# total energy = -381175.07160529576 ev
CRYSTAL
PRIMVEC
9.14877795243932 0.00000000000000 0.00000000000000

0.00000000000000 9.14877795243932 0.00000000000000

0.00000000000000 0.00000000000000 13.39016130605025

PRIMCOORD
 96 1
Ni 2.3195445953366676 1.8123454882241885 3.7119401282151765 -0.2333150134812046 -0.5729623690727615 -0.5350257419279882
Ni 5.515331707347733 1.5765723287264397 11.180128831689244 -0.705189833782321 0.8019558723604769 0.5227379256995707
Ni 6.244324641075552 7.38210327627706 3.2347947570442637 1.8834528790492335 -0.04688997968331924 1.004641848101915
Ni 7.294220114190398 1.1692412829649919 4.493818488422088 1.2910252021630089 1.5012630221097758 0.7922173049164744
Ni 2.2799395350958642 3.495720652074478 5.33012750372317 -0.47033832905193196 0.4027183159101129 -0.07120310250738704
Ni 7.196026279225152 4.2023997161032165 2.840120130857112 2.2082436292439325 -0.005494704565984086 0.10000408589947939
Ni 4.49502338249317 7.162175800386858 4.69623794773044 -0.42076823143328823 -0.42300431985265863 0.24789805350170208
Ni 1.408463531793021 3.819724627225336 13.241249722796312 -0.9088438298639832 -0.7058027847759716 0.3686439999342232
Ni 4.336310380631893 4.709928179226014 5.885846240422407 -0.6743188552350774 1.2419834662440095 -0.4895452409976859
Ni 6.211956264283692 6.055814069058513 1.2894434184419667 1.6323044369310338 1.4622043655454173 -0.533075817290469
Ni 0.9288113954324614 7.20518420606762 7.7599999583719015 0.4336875105981176 -1.6104523740529488 -0.5764485278491491
Ni 6.37906784440809 8.431632798269328 10.485982678730931 0.7931647564314082 1.933040203059058 -1.3160860017863787
Ni 0.8403372222828385 0.47336418119689483 2.3581012056112907 0.683661729902558 -0.21775366870783786 0.5573904827764337
Ni 1.1190602352817371 5.546254577205418 11.703135197541398 0.24148983598251314 0.029002300769621018 -1.484699718434456
Ni 4.254666685185154 -0.015045165526911958 12.566278493783182 -0.7135191795836228 1.5934697234520234 0.24663795584235587
Ni 5.340946848662133 8.450186520183939 1.4542385279604586 -1.3381702352799276 1.017014767844971 -0.635088448979545
Ni 0.9547847763573035 7.458943863239986 10.304265074426713 -1.3942053717976246 0.2975136596463005 -0.17747502369344917
Ni 1.7922456228166934 7.063725799635809 3.0977606996843985 -1.562465047540393 -1.4637485701040855 -0.43092666002352875
Ni 0.7032345490874905 1.4177220951941973 0.09311443338388845 -0.0843398969996612 0.253754255172163 0.9458152648820098
Ni 1.678114616463257 6.378628703061 0.38959339485018196 0.6464943768236414 0.7705950986610083 0.5896488285895071
Ni 3.2416316388917923 8.651377298598241 3.349147163826859 -0.2797835893563891 0.9143218222594189 -0.2211634657203352
Ni 3.0720041447996826 7.49971081829497 11.082112483018447 1.2022928325226068 -1.0269754786021086 1.413346977723082
Ni 3.6232454695142016 7.533085560673914 6.807651501613148 0.43236364958037155 0.17653271438483792 0.46246766805460354
Ni 7.936400292865089 6.613047843405216 11.277207430608438 -0.49094880621343184 -1.1271160900794526 -0.13987983904849458
P 3.7051636283028726 7.1477298798231645 -0.12604363027109683 -0.42199207653806037 0.1391514455229023 0.5971883314996618
Ni -0.11668808982243756 2.399477469285363 3.21201887405293 -0.2230956497460416 1.2958388215015684 -1.4548319843407462
P 5.277619006900331 3.364179521064481 7.366128594898804 1.6493513651109917 0.13827469934490377 0.09982410867818936
Ni 8.593602765121531 8.378798604947397 4.035781255116489 0.39266710232169794 -1.566565957082644 -0.431007135552477
P 3.7545121371822665 0.38446916425630945 10.386882199859503 -0.3054650532828933 -0.11792338938206144 0.7757198214820834
P 8.7311912384321 2.9737005244976644 5.1909508025406215 0.2732835834543422 1.3130083913023194 1.1918675234242246
P 7.061045207662938 8.269983038649379 0.3033890335383377 0.9655178855172599 -1.8562711764281192 0.7042382685023291
Ni 6.403870181740689 4.999322326959233 12.528437317953196 -0.5150850371400032 -0.3702964479359816 -0.24366627480854164
Ni 3.54708189212804 4.954657992448814 12.888739984952384 -0.47742403225411967 1.0264741134856579 0.7849253992407513
Ni 7.428194820165526 4.310272958260601 7.215181075858594 -0.38300695352411457 -0.3906130480061466 -0.3132889202026863
Ni 4.504108119111122 7.55985488529036 9.119770948672747 4.206636389566872 -0.4338764866804721 0.26032650907304195
Ni 1.6473838709449247 8.194917314630946 5.335564622526844 0.22498463923863832 -0.628418236048221 -1.0056918866329843
Ni 3.916454657700277 5.4652695937793165 8.064546312335386 -0.24180762433324804 -0.6037631565037022 0.9801137810535636
Ni 4.464100512635485 5.369564226447588 10.774754709555772 -0.7332148582403373 0.12074183266746302 -0.19988938683290738
Ni 4.311334216516071 1.2062023463451828 8.475249597691374 1.5421291641965185 -1.8079064119714865 1.0386554860431982
Ni 4.218501565496567 3.0410263822736114 3.865900339871995 -0.6600327776297084 -0.2674155547093395 -1.2205090984203173
Ni 6.803342427144814 5.76171744940019 5.240882088582718 -2.6796600218513915 -0.7778661784011248 -1.3986765201951008
Ni 8.89630838493846 7.7679987350336095 1.6103541917292505 -0.6630327407982969 -1.227000876792248 0.4174309395299392
Ni 2.7226306080762326 2.9643047294255216 11.376656477924119 0.45340195830790947 0.14078512447158337 -1.3402170905066273
Ni 2.361583230542603 0.455126092125506 6.974252579921553 -0.5544833364319677 1.1668236930817195 0.42068492769086263
Ni 9.010686408299634 8.891660805681742 6.8197159952466775 -1.07859191722682 -0.4452574748239042 -0.17142007574862092
Ni 0.6043993847799303 0.981124108404722 4.991838626502551 -0.09096305874313367 1.374209388291672 0.6796420672202037
Ni 8.138917644098731 7.574785691091467 9.063104332219636 -0.5872900985493433 3.610350001056189 0.051030227103937925
Ni 4.925354456308529 3.4301696572430247 9.526551237994717 -0.5620428939467804 0.10910296287695405 -0.42078468649352047
Ni 8.571554209986319 6.464599770532201 6.013347271039164 3.2322170877949237 1.177480144354301 0.5978395919304155
Ni 2.104026830473509 6.095977204761246 5.817154470081444 1.1268818625814594 -1.4380218547619426 -0.5059794752943092
Ni 8.735509461678499 3.222995577974602 8.954630015343419 -0.2706813699448048 -0.8088454003914587 -0.03774096619419952
Ni 8.300741230501904 5.698252375967422 0.25548603159311967 1.0663976891534732 0.012875056190455246 -0.2755088732404352
Ni 8.795690123786146 5.545083533613174 9.006008638075304 0.4171162365029978 -1.6882295302334278 0.4442272337871768
Ni 7.9783108451781235 1.8191796254382981 6.835878226575253 -2.0086087816239924 0.3662168785499693 0.23543283115515581
Ni 5.784241740994752 1.5742576878761456 0.28193880848853664 -1.3720704875717982 1.2150146509646496 1.6015671557481772
Ni 2.579058833911544 8.204862036386952 8.782794006226563 -2.045126674044368 1.5779857688838113 0.5746955497137844
P 3.1630070402063066 5.357515285736769 3.6704979933390405 -1.363096309097646 0.36037456083657937 1.8005358305390282
Ni 5.29313533449756 5.151603737841234 3.553776053037764 -0.6108684000899156 0.24709535509474861 -0.028916683034350202
P 8.634625885962318 4.163499111773371 12.041745196872078 -0.6337540464388375 -0.5158730802589373 0.33941801318957027
Ni 2.1643996169205093 1.4552412340363174 9.234498455355983 -0.13304584684579668 0.5326924658091213 1.0536555589964562
P 4.934256217365194 3.4958944788577013 12.258906997153412 0.9834384745514223 -1.0960386519483576 -1.1756441195868268
P 8.816832949892984 0.04958363247564898 10.978633398965396 -0.2052514224757691 -0.10145290253086398 -0.8226990184450993
P 1.6202577439839676 2.693327071935947 1.8026642512764364 -0.2843583532112651 -0.46554759253150785 -0.3735465794421632
Ni 0.7506307087279405 4.9442924269018445 4.309530077481771 -1.3601577952946122 -0.23584497899190995 0.0782929194746329
Ni 2.3420139942628433 8.765929148742641 0.7522784036573396 0.19902703883261208 -0.4336818541711628 0.17052713162070632
Ni -0.011235614340894238 0.8894432885435256 8.9507207424765 -1.1206222548249927 -0.7652549173950176 0.20614616637589658
Ni 5.600854484693779 1.1044130416006268 6.490452387586593 -0.21231167175666016 0.15882475558211356 -0.11660441346032176
Ni 5.580544197390803 7.3133136140108075 12.139882309413323 0.7547671304898163 -2.1769731012654248 1.5167076387996201
Ni 3.2926543741569723 2.7183215336078983 7.256128261841446 -0.8331078724832491 1.0603342565682128 -0.2536259571244148
Ni 7.909164380567359 2.828298994720096 0.770675681467049 0.12018056084735432 0.7020474314985974 -0.24327443868676168
Ni 5.943302396422475 3.2830847523016056 5.145504247505696 3.2794857909739004 -0.35401647982903545 1.2260336277829724
Ni 6.5530318593027275 1.7584957805371082 9.163436236618532 1.7635793079193367 -0.6704172061878261 -1.6867305770903982
Ni 3.5484267625035075 2.528063544980558 13.485231165973444 -1.0458800288160954 -0.7056066096047654 0.110774437042106
Ni 0.9566694246385707 2.372552615441823 7.201657352123792 0.5935358223487391 -0.22442722407327154 -0.3151316298383799
Ni 0.045478575758151014 7.898643285793295 12.707624370244801 0.3113508226397089 0.6321080261949823 0.3348885007503329
Ni 1.8189600547647524 0.2643292404701723 11.80551642822672 0.7256609571524792 0.5208995869392513 -0.9727172314791765
Ni 3.2283750594764715 4.194339642628476 1.894560982299953 -1.3280729989449258 -0.24396915076094114 -0.2885927030075868
Ni 0.4050767868463788 2.1528904541154894 11.193438474017338 -0.7115191184344585 0.9946567118647451 -0.20088877463169919
Ni 7.129953804044027 4.074774262104784 10.440563570030198 0.645197769499405 -1.4102122887488422 0.26137474783189824
Ni 4.1343602536382456 6.502933150622053 1.9464336390473158 -2.035576568462088 0.4026244706447259 0.17672477579098597
Ni 6.7698853457632895 6.61812541523096 7.564369807265143 -0.9338316101575724 0.569965748338283 -2.5816338856138894
Ni 6.764707137378838 8.358424276197969 5.5271107591056525 -0.5123136450424531 -1.2951870468501823 1.3033711253228715
Ni 3.8856690195135584 1.2771785665688271 1.9018580476841214 -0.1750080502101954 0.11969205124671001 0.5655982153982065
Ni 6.318164428833355 5.932854491872927 9.530407447948864 -0.4097736800949975 0.27320027971191657 1.0561127622876973
Ni 0.697327183091305 4.960357681182938 1.8617818253730007 -0.5754411696305574 -0.9605649123873587 1.444106370393126
Ni 5.440156197992528 3.998345370154755 1.350156539432963 -0.13693335482566096 -2.2548790697142844 -1.133243286023113
Ni 0.8585030360075186 4.682271423137322 7.123873526142424 -0.7117487179467614 0.429407395165525 -0.7111020855016978
Ni 1.8408073367825486 3.8826956666426273 9.048200972752722 0.5499497102276723 -0.3381270622922886 0.6731981113670729
P 2.403658460860796 5.790828861201123 9.752924942909099 0.5610327075147111 0.47150098190146533 0.07655176841381009
Ni 7.419841985792725 0.6111063539789446 2.184189338751621 0.10519848561622527 -0.0690919697016552 -1.067339484241452
P 3.7606875623757388 0.15235277135090267 5.455781396048723 0.7365040705145703 -0.38812653413886705 -1.2061829116056322
Ni 5.271965062056529 0.5124806966890595 3.7409161381007556 -0.4399262924189778 -0.7601736462173683 0.9409746489602568
P 6.099270764864431 2.260544125599328 2.877921052063615 0.060812760411998484 1.090567087310825 -1.1154774773992595
P 6.334815204910569 8.706068693867246 8.117624778031638 -0.3864843705497537 0.7277052412760177 -0.07683536109249993
P 8.292909876478774 6.184912476325314 3.26204439250909 0.34053541462346515 0.3361511695128404 0.16281305080590025
Ni 7.391334393344042 0.7599112291964716 12.545095413052861 2.579941842623447 0.2843884351182521 -2.2046489699141385
