# total energy = -340857.64524785447 ev
CRYSTAL
PRIMVEC
9.44448929332003 0.00000000000000 0.00000000000000
0.00000000000000 9.44448929332003 0.00000000000000
0.00000000000000 0.00000000000000 13.82296474438429
PRIMCOORD
 96 1
Ni 0.4286711965897587 5.1154186679205305 12.270341715901438 0.8714579330163571 -0.5335807819513455 -0.27084360655428197
Ni 2.0074072836238264 5.758862270429177 7.541685268337756 -0.46427541068730366 -1.5280053232006265 0.8657156312159414
Ni 3.9501859278728393 8.22725507033017 13.410251891592598 1.5582144997941554 -1.093078283768453 0.7105279581657827
Ni 8.538101542307844 3.045611644365477 0.46755321404440864 0.5367972320061143 0.8767965716204512 -0.022671216345270636
Ni 5.99335949197488 2.7352562858245233 0.20294696103196563 -1.324452114362887 -0.5529926108190542 -0.32630821528048964
Ni 9.404945091590104 3.2839811064699513 7.8667183074942875 -2.8391609775649234 1.2600670632185977 0.7612807632386179
Ni 7.296151216750639 6.255566844738718 10.635734864297797 1.3650724589874104 -0.21632079291605327 -1.437544658015208
Ni 5.620434392697679 8.763711499546709 4.985915832452544 0.3242276786023771 -0.3854304753639427 2.0073900787255425
Ni 4.24732844606813 6.642280898200812 7.960825086459437 0.27147969747638406 -0.878711786365293 0.5623246868532573
Ni 7.021505471752893 4.880987557799004 0.4154933008540176 0.44038934809832536 0.29944044435536815 -1.1271608272744587
Ni 2.9090915534458617 7.711869296446848 6.464903947141574 0.5143383887819658 0.6904275878714818 -2.1416695408681243
Ni 3.61862769115032 0.2409676410745181 8.0446062054175 0.07658210743111327 -0.536468902132418 -1.4753018221593235
Ni 0.9330125848403305 1.3588258790079324 7.507790885612587 0.997892188082907 -1.5390842067226074 -0.40889770524794733
Ni 2.8281522812783693 6.588522865858063 10.337144505913093 -1.6359258357337052 -2.0881319739613007 0.2838904124359111
Ni 5.578944751783818 0.20004844730638763 9.54882055067355 -0.19226143797400436 1.1504434519514832 1.397269098324613
Ni 0.7803424174438875 4.293691443392544 6.016030988222028 -0.3537585981819585 -2.0757657390864637 -0.951196326688265
Ni 4.808047767956582 1.7266320651562204 5.199909068015092 0.143079834043031 -0.00924877229177762 0.5023650184701736
Ni 6.724060729904234 2.913266017658001 6.327061627738475 0.7130977757754879 0.06901406527586824 0.7690987166211399
Ni 1.2875294302806979 0.638625968584184 0.7212643043529522 -0.44450234182543447 -0.6294996420378578 -1.2024825799359098
Ni 2.8960014914593804 2.8544079611646738 6.532581267619732 -0.8211501859007406 -0.7411253713366656 0.8337563047005254
Ni 7.289398406995708 6.151082461076061 2.2893866744603186 -1.7080635342402195 1.3380943877366696 2.2263254264463077
Ni 4.216690523207998 2.1778142016772764 11.890541972959042 -0.6635235643917864 -1.1890501085800878 1.8498017666536917
Ni 2.4016108169959347 6.529145362460509 2.4984319421478913 0.8491412717970279 -0.09693058918047823 1.732367915313539
Ni 5.766823974797578 4.130330114258225 11.870484711313523 -0.3853230032518009 1.5680512833789189 0.7783714001723177
P 4.453359977262279 6.6394381069613235 1.4195218330933008 -0.8368840516962297 -0.21979923838295695 0.5283897246687094
P 2.9116037875644794 0.4311465972006222 12.743529512183317 -0.8562927952401447 1.5386360634415954 -0.298480394434944
P 6.962789082597081 3.7304409984071394 8.534436136061846 0.4026293557407324 -0.1057453592586308 0.08855804884606684
P 6.213359422648108 0.7110009779743741 6.754273650751818 -2.2436559473049553 1.059751130371233 -1.6114376207843537
P 8.952941284511455 8.777245452524074 11.985090754017241 -0.2131259401278394 0.5065584877262308 -0.39671401869756195
P 9.4570503383285 5.583506440051834 4.4203628210080455 -0.5841618373330069 -0.6791376167799594 0.007149209450271558
P 1.8201419524059685 2.1068766435384156 2.2002703635714007 -0.43024531768578805 -0.5985574439330466 1.601094586987133
P 3.4690458717117263 4.037453007782714 8.324424697132415 0.885629853641365 0.46758776288998827 -0.5955657082945743
Ni 8.675858861308432 5.654774555311565 7.114030298782446 0.7338843735035361 0.821632781964114 0.4770921028359978
Ni 1.6463161292737984 2.6672937417734994 12.004000510228881 0.5815130868562501 0.4376521516728204 -0.11718111189939819
Ni 5.483120964687974 5.187461231292017 9.271490681854335 0.1192451935172785 -0.8019345322042382 0.27597141469915054
Ni 2.737995187683167 0.5031948272656086 5.589813469918048 -0.2607255442836735 0.05763976200065558 0.014312302857614062
Ni 7.898549069336306 7.717583212393327 5.611750184907946 -0.3235746183994105 -0.8473021617057601 0.9615583866488796
Ni 8.399305329498805 1.4251073039870996 10.066726114266825 0.6862762847072696 0.07276684745008112 0.19237559495436546
Ni 1.487233153732463 4.062556459990556 3.257450591948866 0.5745430832963201 0.1121162957819811 2.124451377217625
Ni 4.951774004111179 2.1553929843930724 8.383047585845466 0.7664952175600219 1.543742017209593 -2.2573668691331448
Ni 2.222307190146478 7.863746126753201 8.523641084943124 -0.015117572367728803 0.9179236806780643 0.1458525116921617
Ni 5.8617788688899894 8.343922845019204 7.811453879129283 0.889216542551359 -1.3049808930121525 -1.2773705874940517
Ni 3.2407442350600584 1.6241310242187879 9.76580013371094 -0.4416880123050909 1.3533335732839271 0.9333379583506054
Ni 0.3627713289729681 8.33289168167129 7.163254031875765 -0.42627450596349814 -0.3299404127164382 0.021052706905241164
Ni 8.428696579788797 8.220511705064407 1.3629304540002303 0.42671262194218124 0.22175481944743097 1.1624967835715916
Ni 2.039575213729133 5.861684423998313 5.167148968438968 1.350841660100009 1.3107645895734652 -1.6859299355659738
Ni 8.382154137170199 4.056086984910657 10.338581957164422 0.2737659224073995 -0.48406801993319865 -0.21890449448282948
Ni 4.809143328700039 4.454502760451574 1.2468897933919323 -1.2066634507864766 0.4066744723443835 0.7907682311747736
Ni 2.578288875856761 6.083620474950926 0.17328087610719192 0.6454718490963981 -1.0462070731382112 -0.8132594702987542
Ni 3.798422431436499 3.9599609741614454 10.605006274341655 -0.9237053203568478 1.2491612149393712 -1.420121063222122
Ni 7.19513296061254 0.8387905831073348 4.0673382048561795 -0.4983217016387353 -0.22550554473911488 -0.4683380107924515
Ni 6.142714643673448 2.413813097000649 10.364030133226883 0.6390525758336155 -0.11410452985660349 -0.4892086835938736
Ni 3.6806779849823412 8.097723901394678 3.988948000315059 -0.9197450501575193 -0.3888117331313497 0.36258211001085944
Ni 5.0326566093436655 1.7068080823931435 2.6966254917817354 -0.7570027046885544 -0.3383173239262238 -0.0814558905836468
Ni 0.9569723094099584 1.6470527994288817 4.261979682114039 0.8613524691512392 1.577589561886657 -0.304676753053643
Ni 6.0978060976808655 8.360847369607786 11.40932258308892 -1.6273766606121132 -2.3391719155260935 1.2592923898361021
P 0.9992175094572389 5.341226959431918 10.135882441748652 -1.012855751371275 -1.4144260697198738 0.37620535722124887
P 3.160806078744346 4.283056948589674 12.703635989938803 -0.11375074606161054 -0.317987097009304 0.7635240507468399
P 4.1260045382194015 8.090857757769735 9.995385276440501 3.226631109066714 0.49336435763346 -1.0112390417034585
P 0.06829782341647864 1.5476401064492988 12.943699793399968 0.0709768454291939 0.028548758171970192 -0.7885709664131387
P 6.896668213933766 2.3052486940175303 2.0135084236261833 2.4428912454936316 0.09825367886727594 1.4445591416598282
P 8.903603273099204 2.3719456765200775 5.867060227232587 0.5861400441053002 -0.6427516219517576 0.36069723428332073
P 1.7098492079051546 8.054874254040662 4.624804844675263 -0.6512514318926526 -0.11037848715526795 1.0422210919072694
P 0.7914595256432289 6.8996715614891055 1.2698134574998596 -1.507965888051248 0.5170748138765223 -1.3723304261014044
Ni 8.881871503524245 1.226451918832953 2.2292989454773524 0.6359698231432337 0.19413011575162695 1.283697558153344
Ni 8.86867755215692 4.788233229682673 2.3878199739132078 1.5380372535153317 -0.731208626443586 -0.33806869825052743
Ni 4.944926749464572 6.005476771577084 3.5666981119104437 -0.780107666137134 -0.31313079735826715 -1.2298745987956172
Ni 8.177255944676178 3.000381985741192 3.928846104598341 0.46369588403474976 0.5139344684753278 -0.35965388062047093
Ni 4.364015109735502 4.407289759102065 5.737138056445552 0.24299778798660732 -0.33695875301580036 0.14181073752262027
Ni 7.700960911458113 8.505225275514958 9.918958581197353 1.5196790627231185 2.699073136270681 1.4728939840487794
Ni 9.356022637701235 9.234141504991609 4.753911011598206 -1.208352151342809 -0.04342644661475102 1.771987329477374
Ni 7.930868111268296 0.5374008781333127 7.825788724788072 1.1862447779208087 -0.1955892167956567 0.2659387130534968
Ni 0.9084040238648791 8.793631641230094 2.8230503682299584 1.11760995036123 -0.3585609046666083 -2.26110885267408
Ni 0.37256243089315944 7.401268381187533 9.768689202947348 -1.1288934936948491 -1.4598134967157375 1.1475887561115077
Ni 1.447443520868794 3.845068763435944 1.058542123715452 -0.02129516193335042 0.7241681746570366 -2.517270174625839
Ni 6.443172177566614 7.214088050372185 0.5746414433706102 -1.0735813513861059 -1.1328393657164748 -2.0725022378438434
Ni 4.291896990450675 6.19829546242557 11.96622255355794 0.259298839139476 -0.24691023566713607 0.94370001831122
Ni 2.4225586939699717 9.107405904849767 10.508162482415695 -1.5514992925575088 0.6381748012143525 2.235595281784008
Ni 6.602396820445465 4.713536764855054 4.4878191404396786 0.3624260440489694 -0.44424523150930595 0.07403748663238861
Ni 6.084224922257662 0.8459778393639815 12.505594496580558 -0.8901809633471571 0.05102688466982824 -0.2612770459117694
Ni 5.390328858614973 8.640442026929426 2.6766239526223052 1.4094288736155984 -0.8151957680895188 -0.9155407822681845
Ni 3.3077528857051415 9.480094891897775 1.8009668060487154 0.18646154346277566 -1.0160074096263794 0.6583186231520791
Ni 6.472223426246568 6.005193436902052 6.6285401109106745 -0.1948222567226451 -0.2842295409428847 1.5073174558339717
Ni 3.3930555118681274 2.0686264624090875 0.7800600272177722 0.7586605520069515 1.2663474969106705 -1.7624307961371906
Ni 7.74705946308583 0.862353639131918 0.26152640509484454 -0.4716200239778329 -1.319832099092372 -0.08874933892126652
Ni 1.7115019935095082 3.4225695405173004 9.34288629771783 -0.6031566332679548 0.2290773212507732 0.639497376680518
Ni 8.73112801191802 7.011683203018447 13.116016387163134 -1.3986898899315394 -0.9455195880184618 0.42537590540862863
Ni 1.4762492128303868 7.856020534613994 12.848058284945061 0.11182216158033 0.9188760172890046 -0.4229726952837748
P 0.6152348022624538 -0.005245469283760247 9.298072196616927 -0.5001618401712676 1.7324841291764292 -1.4577134196535992
P 5.807822502274718 -0.324161312806349 0.6700808397573268 -0.35904350072998165 3.133933841241293 -1.4149498034338275
P 7.255785470047737 2.7091233842974 12.281455046305112 1.7493389959502388 -0.4325176586597325 -0.674015979282678
P 4.664585977498681 3.494545992464612 3.8382640089905906 0.6092432057816669 0.9804433964788405 -0.34628234440957134
P 7.369903232661484 7.934324794303687 3.594565021648764 0.2579173854109171 0.9011732006926029 -0.3513834130815626
P 4.708058961137767 6.474726215876019 5.683464080056395 -1.1595019626093255 2.4107321442625835 -0.32563381492128435
P 6.399963639624225 6.120085647627553 12.43523588562768 0.5693908496714194 0.6329747450706518 1.719847157138709
P 7.734224402306878 7.239333169917542 8.42497261770996 0.22042607333367842 -2.5928734630834502 -3.1299776848070224
