# total energy = -340890.30431621143 ev
CRYSTAL
PRIMVEC
9.09096487588247 0.00000000000000 0.00000000000000

0.00000000000000 9.09096487588247 0.00000000000000

0.00000000000000 0.00000000000000 13.30554602466450

PRIMCOORD
 96 1
Ni 6.696822948299128 2.0512489618655665 11.41824740058621 -0.290432584429803 0.3663320639715949 2.395559036066571
Ni 4.519991396956657 0.0914269251563838 5.817397547100649 0.1738168581155716 0.23702948621831435 0.6987044831682934
Ni 2.871717637331047 1.55162771150566 4.7401809311207845 -0.828785076738179 0.39143194436301615 0.7022117249906035
Ni 3.1866650262001577 4.115888915065972 4.663367732081682 0.769610623260552 0.21820078354758551 1.4645399556571295
Ni 5.031930904790228 4.351954001279003 2.613116049068412 -0.01250815976933975 1.1411759106066282 0.5254033883468758
Ni 7.051825128628732 6.139583162243215 2.484132529612985 0.6592439631798259 0.9279712947220534 1.2087576143113443
Ni 5.092613095666031 4.728492677516438 11.7147083122799 0.02194230859904608 -0.025875067994548986 -0.9391764194092536
Ni 5.775235469970492 7.914939520558391 12.135589079036558 0.253936289275982 0.9560353999481213 1.1097984247366113
Ni 1.9349755204720804 6.6990593256707305 0.29809092170477913 0.7230032078146581 -0.09668761993173672 0.44444449200430547
Ni 2.899554171932052 1.4802454549128805 0.4166243769786732 -0.8392708067608514 1.189124670571765 -0.1822739877439893
Ni 0.6049982611940307 9.086483079505783 4.332498427242552 -0.4780333837033445 -0.7795003715704382 0.2302147772893261
Ni 8.71438079415185 2.246941072845721 1.3276090629150314 0.2944710161652348 1.5949339667023756 1.250964329586381
Ni 6.831105591209463 0.7374418018999946 4.753206465665631 0.2925329186022575 -0.46395530834372356 -0.660501746846327
Ni 0.6529767376833396 7.18778960005023 2.424709437379324 0.27021111517660557 -0.31910012756782463 0.1396515250877724
Ni 7.648774249477977 3.569567377885243 3.956936120638085 -0.19751934393883402 1.3818666477266135 0.04900188381999948
Ni 7.765720422275929 4.044279384350062 12.588962772628916 -0.10491309316532255 0.02732362751561746 -0.195063940419806
Ni 8.068885920601963 8.83841791959147 6.904633315524592 0.32552222904408457 -0.8380425907807051 -0.4761690768010961
Ni 6.949951775676784 0.75573100513654 0.34138936945058795 -1.3693867700920481 -0.2631835189058629 0.230968367625899
Ni 1.829174870672441 6.377902807757699 9.253607742304945 0.42715767989939984 0.4464846623627859 0.14256947006551576
Ni 0.09178874556040731 4.877257227552638 1.228739364774375 -0.19659760345551303 0.10747751145838909 1.0655512819927777
Ni 6.545558382908493 1.6734557324684516 6.885234105470678 -0.9637425387843919 -0.32146451403494314 1.7204505950506628
Ni 3.4693122166899837 4.698728858351287 0.7202307871035797 0.39326077004163884 0.6870131628732943 -1.3343827432130373
Ni 5.807108392998292 5.591243430849088 4.7779020718849745 1.211011186232211 -0.3506514200115445 0.23800290587517722
Ni 5.3367327768027994 2.809408163733631 9.61744815873484 -1.2165660546121695 0.4803247508406825 -0.5809060493998704
P 0.3580758355708181 5.747044387737405 12.529579680640925 -1.1280352594596121 -1.213636025449568 -1.358939349506479
P 4.121261675336775 6.416284861671952 12.548234340667465 -0.9096557842423172 0.6709337408129283 1.0713853721760516
P 2.2711775853363414 8.490997604009495 1.5655968882097437 0.9515827634934063 0.6417422068506367 -0.3235360518519912
P 6.313002409156596 7.833975386934435 5.979778544401835 0.3268718010934435 -0.4417947130862843 -2.116365257775381
P 4.93366666491359 1.4128450409573445 12.766458408214763 0.40279647744621594 -0.9747915975097018 1.5875302180391369
P 3.9680152795924433 6.187165272661785 8.353886761910926 -1.0874341981087983 0.03909310934671977 -1.4971415437422346
P 4.755292842115968 1.0615974291418546 3.791322376209493 0.9893931494729605 -0.2568282661117964 0.3679901684003082
P -0.1528500296735916 5.547052250347623 3.61217673048972 1.1124782855616195 -0.33298022798402654 1.0856254270348336
Ni 1.7092559523439441 1.2847806180558563 2.5835249582368407 -2.1786700293518733 -0.7593498647644922 -0.38101511990506637
Ni 1.7988746845767027 6.440839557934955 4.8750190319880495 -1.8943093621477631 -0.2971040829127077 -0.29749566192417154
Ni 5.914881782186703 5.709535066455971 9.04456464023562 0.844408642208049 -1.0374059299068135 1.1715776628269372
Ni 8.902509222314228 2.565088481368507 10.371752791474615 -0.2570282979377444 -0.7096846363288809 0.42309225158077457
Ni 2.2768594384145997 5.257759564497467 7.030850454353277 -0.522186681181791 -1.0064261936958472 0.06891507780415873
Ni 0.6182365243181273 9.026928168280705 9.336541888028192 -1.2947443028858088 0.44643118341703114 -0.7108367476554531
Ni 1.3256808692543935 0.9423876060775246 11.488806924853257 0.6713857407486824 0.7901815054333682 0.617085327533905
Ni 3.9645243490611612 6.925006167921997 1.7931082855246396 0.6407104231520128 -0.1285304754739464 -0.6164507792736996
Ni 5.65889839182253 7.894484849476659 7.957980693996816 -0.9180339810036835 0.9652481767956409 0.7971733633701691
Ni 5.319032668093408 3.0623369898829327 4.709085285594091 -0.33258222121465947 -1.084836355474635 0.10023599940462738
Ni 1.0502791778099632 7.483727781260718 7.145902979157308 -1.1164976911336577 -0.5802668731539748 -0.1561207263873892
Ni 4.771811125385082 4.635255741243443 6.809312730090739 -0.059719270237503605 -0.040947646056955285 0.6067996293371808
Ni 8.293596391623401 7.162580354312612 8.858699862339622 -1.1050115448709292 0.5354443175226455 1.0028855275324406
Ni 4.51354590282468 0.7504982457255869 10.787311707364053 0.10351492726621528 -1.7644761087019936 0.06801699146992157
Ni 8.186586643488706 7.194280549006833 4.965895953766458 -0.16064843905441364 -0.2309693960671635 -0.4201915329942118
Ni 6.941269904173204 5.878708832749277 7.018489469344464 1.083952667318101 -0.06544820230148084 -0.7226581657704134
Ni 2.2314409776482313 5.197850105640307 2.848770223666822 -0.5889505169709018 0.9442677178892318 -1.5764857872995173
Ni 2.4676151554403636 5.265186882841366 11.432258395728951 0.1390372885425412 0.11174631403707207 0.44368833056457135
Ni 1.0936339895383085 3.37373890243121 3.915210409824338 -1.0311843744771338 -0.08908383944254981 0.07856468507878081
Ni 3.5433581260058507 2.4902062032795205 2.534613748746205 1.6143074861329811 1.5986633518378208 0.46764407004922043
Ni 0.9535967658303134 3.1818468147897945 8.3824805738902 0.608047642811669 0.5609671443840984 -1.1038116110255571
Ni 3.90625126389054 2.3873328441857993 6.892605968928534 0.02065907101124829 -0.30569799522930574 0.45156696198169977
Ni 3.8372235672133908 6.834796522969099 5.900783513780682 1.0100959292379508 0.42591506574155036 1.1857475265694157
Ni 1.011506212403926 7.507682473838657 11.470924087748871 -0.2838325626147822 0.09624281908483426 -0.5074712293484873
P 0.034492030022754104 5.494170107377654 7.937596932441501 0.7784917278002658 -1.035129732278127 -0.051252113306756886
P 8.62440751428701 1.4050359020865857 8.052675821043813 0.6953880172005508 1.5835385803812405 0.5412634953075839
P 2.023403336299636 3.220801599494336 10.471930679468008 -1.7020052438612816 0.42598422841658895 -0.004225350935257239
P 3.9652334443253276 6.083337362250917 3.86450282566448 -0.6089542137863383 -0.05811001676885476 -0.6387365872550935
P 6.654277232449126 4.103416111188579 10.436191369057516 3.140458015513056 1.476532095021999 1.1955639984392055
P 6.451894171284015 8.028240216421331 9.98547950999526 1.0430173625563197 -0.743143687318275 1.6872388841853847
P 2.1742860811634115 8.545352483297348 5.682306717408464 1.0909357835041533 -0.09392059870956083 0.9390764034962795
P 7.042261433527406 4.1360799481648725 1.862376892772307 -0.23003711406088126 -1.431431603138935 -2.0900546449053103
Ni 5.364069308332918 3.4398574903322903 0.3895905745805647 1.0793835598901798 -1.64258139337701 0.16617553952022993
Ni 1.6940194951292857 0.9269238747397357 7.172048594282223 -0.6370743690613222 1.1769124447762893 -0.3075975262448638
Ni 7.022634040253869 1.0425973124481576 9.455200798618055 0.09887897115610067 -1.442650868893522 -1.4782884155914735
Ni 2.978700112570964 1.6767648437012295 9.24103402871688 -1.842793967877291 -0.20515937698259504 -0.086402950176277
Ni 6.4624578725271125 1.9830212701018357 2.523223678791404 -0.22132235989570273 0.034351995117308576 -0.023116531412805348
Ni 4.450272786945191 6.9782610404539 10.409980298985138 -1.4696993883708818 0.9539088405234217 -0.44457973203058915
Ni 8.137231794909722 7.288790220369356 0.24092238877257144 0.364524835559527 0.010793491071078186 0.012762441871990925
Ni 7.540809950026136 3.6776589508460362 8.493502164846392 0.2657584787218907 0.07836542458378117 -0.9982385156787325
Ni 3.2748292040448828 8.582552711771324 12.587978221127514 0.21052398372861808 -1.0320534073456484 -0.49985510756412627
Ni 9.244965871047036 4.95577589161171 10.256447537845665 -0.24614610380760188 0.1119445460908072 0.102814558765081
Ni 8.81679960499931 2.264841182783467 5.930707333928516 0.22186949064842432 -0.14486083720285375 0.43141928338923113
Ni 3.6969136145576393 2.8470447585240164 11.746029413736737 -0.5967437877630755 0.6188825286436438 -0.05091684145452522
Ni 1.1291160256414183 3.4782849990711697 12.601988307173762 0.15294592820383335 -0.42854736115807485 0.1522656143073571
Ni 3.0577915074203257 8.25701434876434 8.141078182169577 1.483574089470445 0.12001575313471591 -0.17951879359635536
Ni 5.462188092770751 7.803620655049145 3.7824205033547234 0.39867782729215206 0.7176663689827769 -0.3579042449192159
Ni 2.9514544906900984 8.305287372517226 3.7093200543910787 0.6841931769259958 0.014203802304207796 -0.8236356713267557
Ni 3.533003516956032 4.20503491712262 9.22732939909212 -0.489575580014989 0.7642120779527999 -0.4140579092926482
Ni 7.3639452274061 6.2719112476946295 11.338614184227309 0.3285219351023568 -0.3802175637044355 -0.6846297502427822
Ni 0.45807735884466366 0.0893023666533613 13.902965388340379 0.731134835782857 -0.006013553183931579 -0.8916850586965096
Ni 4.509782243345641 0.29561272466616584 1.7995746888759443 0.5918509784471484 -0.5500219582265043 -0.8650707985430908
Ni 6.2267382429812415 5.8618723657077805 0.21992316889181981 -1.141841826325401 0.10889624618278666 0.7783829701365433
Ni 8.072458669817571 -0.2218259078506671 11.600213972722278 -0.11049958611416455 0.20936647308540718 -0.8386118330206138
Ni 8.87135448551552 4.7559201186958076 5.808270218315735 0.24283940803187212 0.13257019276095877 0.40731647680375654
Ni 8.048194884432176 8.735335468304468 2.4117902671241027 -1.010020595915325 1.248699187701288 0.8652998838347614
P 8.657007714508826 1.7372652152785282 3.7373284082291702 -0.2174435936665868 -1.2564109545232491 -1.2082163970958932
P 1.9204572494865138 3.535494441345541 1.4833018373207374 -1.3713354091779868 -1.8762890143109427 -0.08281703259723157
P 4.868802630172189 1.0562701236956793 8.636563043488513 0.9571178343790226 -1.5439309932919476 -3.3248619051158546
P 8.624516605866111 1.7650472040899818 12.57025538500581 0.0595565194073942 -0.14252576131177389 -1.199272043418412
P 6.264029381104469 7.955076130703209 1.3834439512927104 -0.3918003834460284 -0.5188643016767774 0.18061228377085023
P 1.8832933848722393 3.145482955088939 6.2412592412562855 -0.020480122231222794 -0.08344206777574018 -0.4387831799534701
P 6.7237049315829855 3.629240471654347 6.190431656359415 0.8223732596745644 2.0647339067523345 -0.07625686288121061
P 2.4407240811915805 8.614598363132703 10.172089747015125 1.897073812266778 -0.43715515743174393 1.5430696737329166
