# total energy = -381163.5041880579 ev
CRYSTAL
PRIMVEC
9.22237372213731 0.00000000000000 0.00000000000000
0.00000000000000 9.22237372213731 0.00000000000000
0.00000000000000 0.00000000000000 13.49787615417751
PRIMCOORD
 96 1
Ni 1.1056980756511465 8.353414176549663 3.3709999247171836 2.258966866630413 0.9165741086287054 2.7770063584130495
Ni 4.089329706628223 2.5989018584137167 7.412952452075265 -0.9124415745175705 -1.1185764280395574 0.6646124265805909
Ni 4.5190462191432585 0.23981861125530612 6.4514452703295015 0.4517567093950026 0.9253071176263291 -1.3389659917083456
Ni 5.939550028343085 4.307106844229469 11.247469811939071 1.6729065267231122 0.8422085492329365 0.9382945310249324
Ni 2.196400571318401 4.89752322219304 9.227040435033121 -0.08117898277317633 0.953407475406971 -0.2561988600579136
Ni 4.777466358582765 8.204011719145571 10.518219817076664 2.35549842060026 -0.7271066884600703 -3.421219909622314
Ni 1.342962089332321 4.018962993665679 2.412583160469945 -0.9446374425238246 0.09090880846643054 0.42114181272262313
Ni 0.5918163343236907 7.8803340618917845 5.940428920577073 0.2740942522810957 -0.4751056685335882 0.2855459457614631
Ni 1.9788539930650013 2.12392193472959 12.290950064217938 0.10846610062390352 -0.34548967330494695 -1.405255201853883
Ni 8.13540647960057 4.837485568013988 2.1388603359952163 0.28680398653828026 3.2776353680287236 -0.9581015384485306
Ni 8.935807089208199 5.049111382214708 9.034925475084506 0.239234207179117 -1.9079557492866046 -1.1191901503641564
Ni 8.284523043413332 2.6947223233784388 12.666515563823122 0.7950825422794113 0.6877173880291704 -0.22918299359070207
Ni 3.455531281773983 3.8112013541348557 11.12415376138765 -1.8826794912183187 -0.6112556082260053 1.1531451671533623
Ni 6.534457702402692 6.913930721835167 6.3574185570910196 0.2995715706165938 -0.02651578690234143 0.46392856887084616
Ni 3.9110058846303533 0.28439126661825104 8.580518823127358 0.950724529258169 -0.5087760642028399 -0.20841593624667976
Ni 6.949224746803406 0.4354417622407431 4.015091441096652 0.24785203075511508 0.7720670552208445 -0.7517393994070859
Ni 4.557946192311805 7.770025247508432 0.8588769158830672 1.5906535941594668 1.7321907663057265 -0.06004400056677402
Ni 7.286090398753974 7.137370397019507 0.39581414377039525 -0.9737220185946069 2.7423535442258706 0.9186381902465857
Ni 0.7494525271580508 4.063691507147768 13.604914243252994 -0.06906394467719718 -0.4449857092197562 0.3270898306415206
Ni 0.4875620084147687 1.8591383572895384 8.033639427936208 0.2921554806581807 -3.2473428876927684 -0.11177948126785264
Ni 2.0277510195561423 2.0713636257946573 6.2476815298903245 -0.0270955706652114 2.676265908568178 1.978440485570728
Ni 5.881578185920732 1.1596674077948956 10.598087419645237 0.16282642054233892 -0.01260071948314604 -0.602115336487634
Ni 2.612587861301844 0.5785019931042904 4.953450464318696 -0.42955909025204086 -1.980803843596582 -2.415798245931582
Ni 0.524077075689198 6.736372356872146 10.03499601335096 1.3416769628816057 2.437161542098706 1.5644160006191767
P 3.662038678452525 1.0853442964233178 10.480831390992595 -0.37414153271368467 1.8108870918663653 1.521995883781753
Ni 5.154984234745508 8.296991692944832 4.394314534196062 -0.9385043330428934 -2.252688746931185 0.4465270855649471
P 0.9923735449979701 3.874761955148991 7.661893835606134 0.6294834440879417 0.43848133244233517 -0.5249480459770121
Ni 8.158692973732997 0.3789768557159109 12.888096008426432 0.6537271471266548 -1.136818919189513 -0.6387461003367902
P 7.655594031985595 3.4239077616234503 4.936484063029417 -1.6248430955569824 -0.12365129300477415 -0.5021811845941415
P 8.47584119025579 6.718637731835846 7.493805004177837 -0.3806662212060799 0.3392958857894092 -0.1004026068894787
P 8.594782146622492 7.370797903152527 3.0237129902439848 -2.026381532226381 -2.0839405615877724 -0.4103871453092803
Ni 6.827028292445122 5.418522791707192 8.489111264080405 -0.9813504816741422 -0.5436255677818573 -1.4939135237232402
Ni 0.8176353819777987 6.660573665674356 0.37514403711732197 0.2073782390107848 -1.9618267882734473 0.8287711927811081
Ni 6.833336396202184 5.676288142598817 4.1086459687907455 0.5687030795757755 -0.12411460579443785 0.7575408365802115
Ni 5.382334196469312 6.534208698307019 12.17241212559127 1.0254294742712275 0.8478760319313591 0.9560454272504504
Ni 4.097177946828895 1.2998382689112393 0.21731140771859736 -0.8924527901004695 -1.4394318477355919 0.38290436650797927
Ni 0.0970378183213479 1.3918222263278068 10.92318347800697 -0.15142177824982309 -0.13459313672825854 -0.7130262991076042
Ni 1.9182445517032924 6.341285858403553 2.440335128051451 0.4936770037778723 0.10469120696250357 0.3683493515119398
Ni 6.3068495142093015 0.6407004494913525 0.7491149882728043 -1.8259892376151263 -0.8145877021918746 1.6799554631500937
Ni 3.4926605591510733 -0.08919695601980732 2.4294425822218226 0.8884503538092956 0.8644473060264791 2.164774245206388
Ni 1.6793020659698004 5.856640886857729 6.502871993985207 0.527119599707034 -0.9886261893999491 1.4101282136754683
Ni 0.559756595887034 3.407611826917708 5.052377024817597 0.7679661456785936 -0.20596181827923235 -1.3185511754974195
Ni 6.1786954063026815 7.864988031699167 8.496211569756666 0.045051898033315954 0.5482370984119397 0.3941565423830309
Ni 5.60463951966225 5.115042133324698 2.1900435889795964 1.091944941494958 1.4434018881269335 -0.5948730531029238
Ni 1.5956551345713377 1.33795434029711 0.9098941661369986 0.6175350134768139 0.9211617279993877 -1.2364746206106383
Ni 2.1724961781337466 8.29859638600584 0.9882834221671853 0.39716678996426436 -0.27791208336528916 -1.0391591651524943
Ni 0.08209572810615613 5.763079903501896 4.564698814491513 0.4510080041544361 1.0376139321525615 -1.8772241245307026
Ni 5.9176376679238185 1.4502644098197648 8.083446702732646 1.007491144625252 -0.02501169155298918 0.4255407131212671
Ni 0.08933898057808035 1.0056722081817169 5.38843295233853 0.36620196615163386 -0.010529181666097997 -1.0289601131323054
Ni 6.17219363269343 1.8014892979541703 5.678461856130307 0.7530568326669289 0.5849827905724054 -0.0033696878031812937
Ni 7.649332040098102 0.4028111588588201 6.796666393046001 -0.3409408775919999 -0.6719351854942492 0.6976986676115984
Ni 2.471540874663687 5.18456038788717 4.355400727466645 0.8641488009494538 -1.7001478789375686 0.3980355657224629
Ni 2.662840576758319 7.435944752479841 4.880116913668072 1.3454138042162185 0.08635898431221901 -0.051833696841839756
Ni 2.000028563571161 2.656763032349103 9.410638532672314 1.8760928391397367 -1.3036287498596322 0.9908789899898678
Ni 8.46281919828946 2.879105245037696 2.8459729445148607 2.0042985842844128 -1.4437811258432232 0.9641796263218104
Ni 0.11797537381792234 8.568046484646292 8.197084794098892 1.8232643824847954 -1.9897088593956958 -0.34515363012176686
P 5.514389368541483 6.073744791163264 9.951484650849032 -1.760018587151272 0.727233958066554 -0.10687098822264174
Ni 7.57109864218706 6.239913524342703 10.711833412786277 0.40123273250352187 -2.2736841182359293 -0.1541893136926312
P 5.409254305923789 8.921540076763499 12.584704807070905 0.1417595725697107 -0.44795893291546723 -0.6616944816028475
Ni 7.874929750778279 8.106023996311098 4.977962611944271 0.3761631911294038 -2.454147020913109 -0.23203280433467136
P 5.792545388156592 4.854722184858941 13.411692598434719 -0.20469889240640873 -0.5993172049172065 0.9328880152973805
P 7.594191466467297 2.7902015605083488 10.373077174183374 0.047748471028872606 -0.30251496951563384 0.24361202453183856
P 3.3178227944926326 2.108824908632646 2.516935243542354 0.5093386215745292 -0.02645742286058024 -0.5805260403526324
Ni 8.023290079930106 5.435639517691265 12.92474295564783 0.5224893000238743 -3.775922359774781 -0.8866184428068796
Ni 8.521538052998833 4.706546303185392 6.479236894118837 -0.4185766230986081 2.623444393891772 0.45317672967098077
Ni 4.328890091413942 5.133984889343711 7.960304955048194 -0.19273683494852614 0.4082065927181937 0.0975121727155611
Ni 7.853755180272119 0.4072821657322462 9.14172056500669 -1.9253371779878452 1.900745347581094 1.8493505380488862
Ni 6.39214725053834 2.281412414056111 3.1870919553144885 -1.6116546218911663 2.1305086391552983 -0.268322382794325
Ni 4.869791543834144 3.8252562519795363 4.2688515149974995 -0.05244227696011613 -1.147327532030321 -0.26255539840356074
Ni 0.6216654697332016 3.7892244370981922 10.942215691052949 -0.5661332619660702 0.5969363633898558 0.7741470776783247
Ni 1.195274993476204 8.936913774077858 12.446742704506923 -0.6701950628746909 0.32806222185711886 -0.46787392667183936
Ni 3.6031538210127034 4.203069244107522 2.148133432965575 -0.5999664084654313 -0.9809013099518656 1.5960336275244578
Ni 1.97957333823028 0.0707402191060539 9.708037035458634 -2.348665456838826 0.6927176694572392 1.1647788947375488
Ni 3.3427508711817224 6.136355487664275 11.205316185253725 -0.7496699184725669 -0.038498156075198214 -1.5569608298927122
Ni 4.121488124465757 7.343259894645822 7.019570248305947 -0.45973792782826634 -0.06712147623884569 0.6187534592649473
Ni 7.909301538355133 2.928878397050651 7.583188252150704 -1.7480606434584478 -1.1310971862143875 1.525951525995391
Ni 4.797460465227955 5.768557993606713 5.427374426189688 -1.1947283899117875 0.6657601670317889 -0.3750861560151411
Ni 4.561579807633855 1.270031556421732 4.162015846630095 -0.11470333978286697 0.8861559013481642 -0.8460189241179624
Ni 2.123359369920846 9.074834375959227 7.105188001009797 0.7146658915935563 -0.004825960633733624 0.6843906376487826
Ni 3.603928500421465 5.865715702788941 0.6037961980377594 1.3708880372279229 0.3707818722128324 0.8543156169091158
Ni 6.4874143730682325 8.016935864303475 2.4224640118812255 0.3735735760253566 -0.7538713581484242 0.49847365383556735
Ni 3.527862360380173 3.446816138425411 -0.01840416938244458 0.49759125123061404 0.8957083209232898 0.15454823969394674
Ni 3.29425962914279 8.341222198235576 11.908528651845211 -2.1673548614493705 1.2120193157817514 3.317573856094873
Ni 4.887885841453085 3.4198775842231055 9.591523407906053 0.5366889885630242 -1.7370172411600924 -3.003016353592409
Ni 0.038335563885019866 9.05802198831431 1.6885705517532024 -2.4330444346065385 -0.04675551098798399 -2.038906147055953
Ni 1.2890019795624859 1.7526844952021674 3.0347816834153667 -0.28224799173648163 -0.8328119385093851 2.588512357901277
Ni 6.629890827663034 3.1978304874997554 1.0937034561388157 -0.049286504939953825 0.5907284348069309 -0.1740271743541648
Ni 7.172747423352969 8.265783179620424 11.222229096774305 -0.5098854952169348 2.3613376529898553 0.16989026936765583
P 8.077259412073854 1.5445631830887043 1.1932700493873365 1.7198165610110898 1.3960987321655958 0.41416872383889963
Ni 5.959138350536065 3.774689975809992 6.72732797477485 0.031004675911630475 1.8418076927046216 -0.5297441818140748
P 3.49604517037745 4.012470442430341 6.032403655619727 -0.28041505229280095 1.058807792621357 -0.9028637010211482
Ni 6.013052348436332 2.406523138571166 12.541538563729818 -1.2702198353818832 -0.2005280488581708 -0.18971630295464745
P 2.295642537005155 5.212522625593911 12.818433884830904 -2.0254762468032927 -1.1153003283914469 -2.515529280675332
P 8.988125616421371 7.296899020980985 12.303300667363342 -1.6109452545289673 1.2605154636099258 -2.86032552745768
P 4.09685516374191 6.579462887102196 3.0832249691099474 0.13075036594340061 0.34995593660641666 0.4274865239937283
Ni 2.530342730738284 7.276406906144449 8.985185523617641 0.9966814556042576 -0.8036710552793708 -0.8752171429484733
