# total energy = -340888.629769826 ev
CRYSTAL
PRIMVEC
9.06274129703666 0.00000000000000 0.00000000000000
0.00000000000000 9.06274129703666 0.00000000000000
0.00000000000000 0.00000000000000 13.26423796414106
PRIMCOORD
 96 1
Ni 6.544359529585484 1.9945643472031425 11.517033094393241 0.5900599479849967 0.9215934162201677 -1.6794543551439591
Ni 4.698659770299495 0.23005768685479988 5.8354157193258445 -0.4256692682793314 0.49252977754730665 -0.8184240452188293
Ni 2.802027405139014 1.5058922757870439 4.423517664504511 -0.7150968084833877 0.5237823078036851 1.2005280273127004
Ni 3.572976678543155 4.378808443052441 4.632839799359163 -0.7515607077373766 -1.6317056270047705 0.5512324335948376
Ni 3.8590058554123434 2.607704107067688 2.400111143245217 -0.3042160113671406 0.5348987294318207 0.8801500614737164
Ni 5.052351373406932 4.851049764566325 2.4256843865293174 0.20386508365120373 -0.38642343540483126 -0.36665962251434275
Ni 5.201533157268143 4.791552868202261 11.149493622642348 -0.4608445306288837 1.2114601008441719 0.752717189939323
Ni 6.123667080351692 8.005001538267308 12.58095722956732 -1.9061361795793625 -0.2972799463689396 -1.3685071957005723
Ni 1.577641998333014 6.838436420692492 0.038357146103772104 2.6490862628295924 -0.6415277768469855 0.1407954088842285
Ni 3.059798954763244 2.0963570570220558 0.21120899758473438 -1.2247030818970068 -2.0212699220314287 -0.4475416428723905
Ni 8.338111655975995 8.722245006971761 6.724053750716845 -0.551020831804664 0.4797920182656641 0.275054559311836
Ni 8.850292478217437 2.320551150282408 1.2072033556534292 -0.09809452758159234 1.4603192327075625 0.8348068574522268
Ni 6.845052221811421 0.905754830806508 4.754380222381014 0.37020517377375595 0.10758909733558891 -0.9072674865157987
Ni 0.7342886724640173 7.373002213843186 2.155597477808495 0.5858399963663782 0.948645021021321 0.6627496623402391
Ni 7.7382760002793765 3.9986173845042554 3.877150369686599 0.9477759881528064 -0.6031021258809355 -1.5587120082558639
Ni 7.818236566405826 3.7695022227403716 12.64247692978035 0.22946298672496612 0.19890079766739294 -0.696146235522814
Ni 8.0404459193305 7.361329403101843 9.240040197423035 1.4260292011764408 -0.46273609122464177 -1.9611778418355383
Ni 7.346910581759082 0.735126069756331 0.14395983234788753 -1.4542002642940182 0.22920407663662462 0.181213664800275
Ni 1.9304092018320522 6.627954254956714 9.12395191954248 -0.703827920437788 -0.5102734746839728 -0.5406065784498755
Ni 0.19115224490486996 5.029694520259915 1.2511449629208777 -0.5013484042802011 -0.7430796668495588 0.4239651411040311
Ni 6.143161036799385 2.2067049945892823 6.77494829307805 1.5859258496664943 -0.042914797085655126 -0.3690782592581644
Ni 3.2603302305968525 4.627734757208076 0.4602939097123982 1.0106957676054786 0.616303455062558 -1.2595186469142954
Ni 5.98823347498009 5.45614181019305 4.677845372450394 -0.34783323383645903 2.4190031260221243 0.1082742963280716
Ni 5.394941118472331 2.908777434426495 9.115568883878083 -0.09319709027997498 0.361629516289603 -0.037545048133309535
P 9.176841171254749 5.561659306669332 12.217504147850022 0.5009030892126665 0.28701944498319604 0.14263863274055433
P 4.118526514099522 6.187033767233266 12.443566072083813 0.07397140928114357 1.0385210173478632 0.26352239030252034
P 2.4920997795703537 8.534854705963422 1.1474273268585942 -0.019550411328101813 0.48175942640468006 -0.36202752305897007
P 6.666044956467477 7.989458937008455 5.48466950712752 -1.5443372275914307 -0.8701155600558499 0.781305543099977
P 4.9110451116996225 1.3130008908346091 12.615311362857078 -0.041350023701696534 -1.488365083101185 -0.2628474757226828
P 4.065600105148094 6.333650795318236 8.263169129684547 -0.7203387736086174 0.8645120978261435 -1.8974273389514549
P 4.774433349964375 1.1771685248476191 3.7947791143853085 1.3825009388765028 -0.15534502456362922 -1.370814246567194
P 0.30723961651129844 5.760513975370062 3.3714512199934554 0.3008013292586368 -1.8879535951330646 1.182470141369725
Ni 0.6976443844581596 0.1222708799673121 4.690565836081255 0.25003335467715004 0.39931160422140904 0.04572089907588255
Ni 2.061710197189639 6.327007805975531 4.778189856216151 0.24242726019511798 0.7666690241337248 -0.8528791415729053
Ni 5.935053309273414 5.759163626922499 9.020225220738938 1.6257684355847293 0.6321674186780081 1.2122800256423059
Ni 8.75938412065035 2.493685759290645 9.906846792199852 -0.0842689345524097 0.06291078059160778 0.6109105661817608
Ni 2.7154782261174133 5.168662594722453 6.896342805965635 -0.7860942227378719 0.33988286864113076 0.04493748394263873
Ni 0.7732584598768847 9.015705631673171 8.879465442329534 -0.969795172736375 -0.728189637111604 0.19571082997518552
Ni 1.9836165557625043 1.5407657041509308 11.335020624047878 -1.457549126161593 -0.6827531020453597 1.0217101164381115
Ni 4.118154941707911 7.12446559756168 1.2710440239028389 0.562217986072064 -1.8911880429099623 -0.2679706558818611
Ni 5.9096595082662375 8.038207422239575 7.745134682864041 -0.3605596802641919 0.28321909740049933 0.6290057331205747
Ni 5.506811596571035 3.1942447213376366 4.575976535604908 -0.49457791832558695 -2.3491105147960445 -1.0440226638923826
Ni 1.0944710108610107 7.16310912628923 6.684194002112363 0.30779241586448924 1.436202799275333 1.0435984318707703
Ni 5.384908663898831 4.71350454048142 7.113451648109852 -1.1022267830369403 -0.6868766372954299 -0.9549617072679683
Ni 0.7080221294736188 7.584744100613938 11.255952737935422 0.22515561759886382 -0.5345300332384924 -0.7034828783935433
Ni 4.698079754858932 0.6239760795877002 10.429338295171439 0.4271018869607999 -1.1474702282557723 0.08852950960097657
Ni 8.414184306102415 7.406733736808464 4.370221495709722 -0.5066330497179081 -0.18181453160906752 0.49129076293388296
Ni 7.296576116807672 6.313431819569839 6.727754067972816 -0.24426791294828257 -0.6510786537602142 0.35346703508346866
Ni 2.5487237869553763 5.3653059545560335 2.5016220018109814 -1.1668946555289708 0.22967304585324316 0.4092540601461016
Ni 2.2673075453869203 5.458969385465798 11.24637613924724 0.4513985547246355 0.0518079858102269 0.5614795652441427
Ni 1.1475786746376162 3.573674509620083 3.79653003599651 -0.35445716691087986 -0.18467102722125617 -1.2960218840466518
Ni 1.4767464998987228 0.9686620367062608 2.3047538859941827 0.22026435094483357 1.3278346576818743 0.6185940508689476
Ni 1.3429532506949642 3.2466726795198317 8.125685532240203 -0.6522469630367025 0.4725921580831151 -0.6457158467864041
Ni 3.6203204388791597 2.9473937749302683 6.983674099557872 0.619180776610353 -0.9785384661466437 0.0596058845880909
Ni 4.50850533320722 6.975881954623549 6.106748754969753 -0.6774442882379366 -1.1777231136030428 -0.6659110907873563
Ni 0.6146423623652555 9.335076633633507 13.40085980615503 1.5503314975016527 -0.7420661379833801 -0.5376348974160612
P 0.03967033731217315 5.7029746311178995 7.850015068629831 0.389218224541149 -0.03915712981543579 1.2811166848000453
P 8.70160914512546 1.468218460374186 7.8691283899446525 -0.8772521711006311 1.50303528351885 0.09651021381360797
P 1.9933952535807566 3.5154373342909935 10.320837344272757 -0.5483754237620169 -0.8829291668807503 -0.2563603253364424
P 4.031578574462534 6.232075591289534 3.879842910114591 0.6288483816071041 1.7378011705139684 -1.0130416421298358
P 6.9280578690008285 4.085193751749633 10.247286855038665 1.8459250573071047 -0.8624940389548501 -0.5916085234190391
P 6.483439782843788 8.071476745400652 10.350840455484162 -1.4226111766338274 0.772565849234134 -0.10197997867892761
P 2.5273538430671105 8.566556174886728 5.697600425551428 1.1649835545491871 -1.2056249822196332 -0.7580931095392557
P 6.975637260609561 4.082647121455908 1.4782065075155164 0.205073245026692 -0.7255573416950795 0.7512467760413836
Ni 5.098408224484185 3.111365952525852 0.40041547194133864 2.434484509487175 1.5087734715542078 0.044170780979943286
Ni 1.6673087603476442 0.8782575675531635 6.977108143515866 -0.31469171408748386 2.4779608355032554 -0.7890972712302539
Ni 6.68864743316694 0.9174122348877106 8.975551343977777 1.2983225071553706 -0.1702347971912681 0.08297721232417966
Ni 2.936464108972148 1.6767249485155442 9.254379266642717 0.2700213677633027 0.17791982454035163 -2.0442805239939887
Ni 6.52442149881611 1.986163186056229 2.359707630165207 0.1625849939554942 0.47534298135537495 0.28818466893589084
Ni 4.165643705904057 7.143180158261115 10.258256397058323 0.3774448860553048 0.44600232340972873 1.0028171361883504
Ni 8.391074315892459 7.301415620639875 0.22978671089116154 -1.3261708968262063 -0.45148057291548055 -1.0128907183742686
Ni 7.738266937538119 3.796182933006297 8.049522254701195 0.1506807863187405 0.20138988263783383 -0.4089594117238182
Ni 3.5600985232143914 8.577821162271423 12.357322307442637 -0.8684104044392851 -0.3708253238562581 0.21936189373522222
Ni 0.18149317527123413 4.937861763084431 9.913028488012486 -0.3101966544306077 0.04831385661403938 0.36876072801774556
Ni 8.65483633748876 2.383256257052089 5.76032728290013 0.6210993337893045 0.28081511594469705 0.2309665678536861
Ni 4.083073070295072 2.9298845588182547 11.153910802731891 -1.4284110711450562 -1.1028443620162813 0.7351922936816823
Ni 1.3233777295759421 3.6594442928934265 12.751840653646868 -1.140522079072713 -0.3277099807240227 -1.5007562576766864
Ni 3.1814934443864957 8.455039143697116 8.131840039829058 1.624343273102428 -0.027030264644914734 -0.9388347197991187
Ni 5.3348460811851846 7.976172958323045 3.376716672664822 0.9263777249826883 0.08588950087496822 0.8841756376933418
Ni 2.7218855841873895 8.239826227024238 3.3737585939179473 1.1229838130786338 -0.1855140919478418 0.285333829750657
Ni 3.5214731199693587 4.477610448255949 9.143038958907653 0.2951850115131239 -0.5437063004211216 0.1193153846335816
Ni 7.323383705451222 6.1528762954288245 11.196621689736393 0.317927190305646 -0.3348689603663072 0.17741820231358477
Ni 8.066510363190828 -0.09334623496570568 2.229811359702735 0.7892538514127763 0.6608699288190232 1.2700465430288128
Ni 4.654234212648826 0.32216776391280433 1.4484417463992185 0.36784850061612134 1.2479018886109734 -0.23861945641325355
Ni 6.300571789723592 5.514832122585079 0.009814042509161423 -1.2794914904917964 1.182724680582692 1.099696560415919
Ni 8.40268368744499 9.351752077549712 10.81073832340355 -1.239503637244949 -0.4035873487786275 0.1909738295108324
Ni 0.19417829421118543 5.276871725352601 5.709047574035426 -0.6174362831154205 -2.3849552924087956 -0.5610607325391693
Ni 7.221590995632308 6.172687447820576 2.670980166536674 0.04146726600585117 -0.6047424896978358 -1.2166539863402852
P 8.643181652229936 1.5606312329902343 3.5045176373482576 -0.335648518844809 1.7123562480783028 0.1329622859930549
P 1.8844973546149393 3.3067858422894942 1.5532822561034683 -0.642006773365933 -0.10898494924185101 1.5645651246025314
P 4.729681533628389 1.1520012923719138 7.769606803085197 -1.3715925194941152 -0.9942116539075263 2.8524723499618485
P 8.801942753601704 1.8212394206284706 12.18990085052395 0.5415159776380223 1.0962319989060862 0.12376210755102555
P 6.631316531963732 7.812536102154037 1.3336793475648276 -2.3075105798670714 -0.6241604892131315 0.7866161566796129
P 1.9241649731047346 3.2721842961633714 5.733545976206232 -0.3948453409199394 -0.13325873418755113 1.2328737906332574
P 6.978437647658533 3.9698703692313217 5.880805552646451 1.5296071204701076 0.9544361737818015 0.736429508522893
P 2.3440055246601985 8.60997576825767 10.152474268537283 1.7010253964465156 0.41191592324898096 1.9791292841076364
