# total energy = -340858.4166003813 ev
CRYSTAL
PRIMVEC
9.36880689724680 0.00000000000000 0.00000000000000
0.00000000000000 9.36880689724680 0.00000000000000
0.00000000000000 0.00000000000000 13.71219590763059
PRIMCOORD
 96 1
Ni 7.465955273030275 1.5093428774819724 13.06818880488326 -0.8012390487991103 -0.16865305452644502 -1.7452571125713816
Ni 8.468717399512403 7.500048360875671 8.617786357832182 -2.0340986983649807 -0.5973271710703713 -2.2628235213723413
Ni 3.6461990637841715 5.194928404938045 10.2263083606893 -1.0558728783627491 0.9936272421589661 -0.9223894297589018
Ni 9.011030779542844 3.896973914665657 8.63670853687075 -0.48935883601849267 -0.42278217653952355 -0.5183086862836235
Ni 5.735902045600006 5.892426700349398 11.562822985876247 2.10659403732123 0.36100319555951377 -0.8913754978758905
Ni 3.876034631528954 0.36621635105246375 2.469154646195914 0.0016766163714745316 -1.4173987791949525 0.9708326128619538
Ni 3.6708671320163586 6.842835934586384 1.9931639861892017 -0.2069064415806888 -0.06164708338783577 0.027782569429906992
Ni 6.7225872996603995 2.5604105716834926 8.593405911967913 0.1765270579578831 -0.29558430383407164 -0.4866614916919877
Ni 7.78042864115849 3.5976218006683762 3.004918293411647 -0.4520760404076344 0.9080696707021201 -0.7080525000420966
Ni 1.696175622140641 5.854848416384605 3.325249039534076 1.3121668692376305 -1.3003079130165156 -0.4427964148779213
Ni 5.357036868523891 5.797558162970315 0.2011014373732987 -0.2106823636833533 0.6421006186313201 0.533877487256158
Ni 2.105395733159896 6.867091775320579 7.376407281017336 -2.539134835909414 -0.7789342146543231 -0.9601553356537658
Ni 8.818408112298725 8.865795536954403 12.453347744103617 -1.3321014033780285 0.20591553842232924 -0.09711082351208436
Ni 6.478576727268712 3.584037030848144 12.485091135210451 0.3388605980242035 1.0321549659205191 -0.10801178669530431
Ni 4.891622654482737 1.4111015696647624 11.920354453050534 0.8547455053576827 0.17740740368030736 2.000256295894239
Ni 0.5907435528799061 3.3467064176853016 2.542583606156639 2.2450039766924172 1.3420271471321725 0.5898650583653712
Ni 2.284049509506108 5.19061875382266 12.93195792248394 0.6670338915378898 2.498103371889401 -1.0401847782035312
Ni 1.4201518370070687 2.089328229544932 9.429739618061362 0.06585212260811883 0.4703398717138287 -0.924767185962459
Ni 7.397300657000853 1.3760997075624264 6.530460242294549 0.3754862196670372 1.1433104404511276 1.658425045277486
Ni 1.8234695997596024 3.3311916736699194 0.21902490160990978 -0.6582178359081567 -1.3970009322648909 -0.6120575353020105
Ni 6.861929562788891 4.443596945811481 9.940697475585353 -0.35252061200979934 1.014287084501163 0.3947651225013072
Ni 4.318232942387669 4.846989659018195 5.844974630926989 0.24794664735145042 0.6659329451642273 0.9801816581770215
Ni 6.6018702243957845 4.86604581199361 7.63980472526351 1.264320953398945 0.09755768124151586 -0.8025366845646114
Ni 0.2737640289400273 9.204037567864638 5.179013612873474 -0.012151547760869396 1.1769062741287022 0.08414963536572603
P 1.663019414972502 5.2621027494974 1.2517372295826033 0.5294711306583463 -0.6751997151781339 0.3314864170473194
P 5.937837306776064 8.50746678432377 0.7122063851636177 -0.7993742276762298 0.7801961120858822 0.8345214650013241
P 1.6531072174071186 4.067195764916552 10.562902418488237 -0.5828554598167575 -0.20649635062646376 0.08691639947758581
P 3.0738773956611776 0.8606167163672835 8.518152845328567 0.4698472483481263 0.6257291192518319 -1.2674805820738493
P 1.7901728604898748 7.603667363780339 0.6286188280193907 0.39907994782657724 0.4962717610882421 -0.22705694838663476
P 5.143456180529523 3.2590331239075554 10.394790423522526 -0.22205589562761754 -0.5227212135290223 1.2442408948196184
P 3.322534896212061 1.5996206995424944 0.03247415803509564 -0.45903807354776427 0.11530394948134336 -0.5726749197393299
P 3.1431035089037263 7.068230687920967 9.10386909649431 -1.8804747702575164 1.0126390073747786 2.5873558756993313
Ni 0.21000929885266192 4.2927216815459515 12.36073521539537 0.2847026239245613 -2.446247563560374 0.008427819052379033
Ni 6.859137658370663 0.07249207928346778 8.471860634184601 1.176514695117238 -0.09720929676316162 0.23162991246929784
Ni 7.475417767870574 7.380671024979535 13.742910594149809 0.7362348760135836 -1.829186147285869 -0.9340992619966622
Ni 0.16577447767595427 7.005637689873402 4.403260485132842 -0.3384947300443525 1.747515569588255 3.0961715348908547
Ni 0.45914741919097873 6.5316041736014805 12.659990830682892 -0.614808101463954 2.623106550936379 0.47519025782759455
Ni 4.796744748296881 8.386599808150795 8.762971008864051 -1.192395885123869 -0.9626207664751227 0.33298588441098137
Ni 6.1528139469795455 1.2945161381868528 3.192308482073284 -0.18037497094906355 -0.694792549708397 -1.8918408460026128
Ni 8.893405410513179 5.596072604519341 1.1559833399635118 0.13048682786936883 -1.9338246466335667 -2.3937255824022583
Ni 5.003251987177955 1.1255122328163925 9.715241825006748 -0.7180129536889183 0.831190086635246 -1.7765052719523857
Ni 3.276215515528456 2.6184128544124974 6.517735528936039 -0.011916548931927866 -0.39349062666425777 0.29756996680553266
Ni 5.4654808069164345 8.26352179357949 11.082141364318506 -1.0863425077065163 0.858386958765012 0.45840018285344925
Ni 6.038767462137003 7.326800386037235 7.079318670736309 -0.1862813091311695 0.23750154075872643 -0.5438677656996505
Ni 1.735243546382274 4.508372875837057 5.682127905367464 -0.8831754785636016 -0.5367843764903079 1.3046656757645787
Ni 4.466297564621427 5.822535401825997 8.082708507272201 -0.03871952805738493 1.8490618031638737 -0.6498573797586035
Ni 4.427182796345932 3.7106096103456174 8.437429332414716 -0.03863982385938507 -2.6367940757258004 -0.7141210748336798
Ni 2.5825303244735394 1.4112327329595784 4.464649591510132 -1.1754348317894983 -0.6460107523190036 -0.9521270660326504
Ni 8.918476337436587 5.447192896096369 10.408927952942342 1.4680790791586396 0.6726553514897254 -0.7700158291187705
Ni 5.267686558333854 1.3368725136056594 0.8256794990316783 2.1294966529510164 -1.4724764368953867 -0.5563065056836355
Ni 8.97854912646233 0.7189453678751302 9.932785518265911 -0.181697546415229 -1.8046369971915952 -0.34686212817244133
Ni 8.239762499604243 3.9463568951638943 5.56062478721463 -0.39622936575165957 -0.9680321672986811 -0.3032017111700133
Ni 2.042605990170106 8.206222171358428 3.7550439871065806 0.8470339956460381 0.9876854227532345 0.10281661564761004
Ni 8.914363431263427 7.736442093361256 2.076615695635226 1.7772820022174103 0.4430069882268306 -0.2046412996955959
Ni 0.3200965259531142 2.3718258601583524 6.701767000369708 0.8851608844247464 -0.49451106964339353 0.19608312571293973
Ni 2.954509428571814 9.286220740873656 10.505214927666792 0.2731658269295553 -0.7874548505308245 -0.3884726046243761
P 9.342321155827829 0.3644269089589021 7.633455484913737 -0.40082906930719997 -0.6640244152876047 -0.015710211646405202
P 0.35248542784657944 0.5264060830112867 2.4063939465071185 -1.0609505499959728 0.6899642750818182 4.312999584915159
P 8.63235297860218 5.832672450753922 3.1507194119291513 -0.37724151179524706 -2.5964724932886183 1.2097765424941616
P 4.699412214736611 1.6760514251931522 4.593516591786209 -2.282577049850185 -0.6098445868110917 0.6105716947851033
P 6.323766564158701 6.635907099400545 9.09689027232942 0.8253914776755978 0.10414793286452385 1.098250829108328
P 3.859077091270596 6.602853949106905 12.132674099653313 -0.6446910050663156 0.04932892814211504 0.43951568724412043
P 0.7593905067123315 2.906325655340466 4.590143821348082 -0.20628552016723825 -0.5385319553090337 0.5384067425850793
P 4.7326246347453855 4.676842759221481 2.6018619203680684 -0.5557359778921461 1.0750111418540969 -1.4581235106078243
Ni 7.054261797023059 8.416448826528214 3.354345742727659 0.9136453650176847 0.6747343455059412 1.0781918535749238
Ni 6.634810949008154 5.7102596214634715 5.300655389366541 0.1640996308278077 0.4419592636886066 -0.7070744523995436
Ni 7.985315076467908 1.5248482526905822 4.366223718199502 2.3981136841676247 0.4050423360575992 -0.6848071563609109
Ni 5.761104135818231 3.4718830449736617 4.0445082624360875 0.7556873283112404 0.8759064557060141 0.8507294422197542
Ni 3.4332273482300217 3.638488535810343 4.102236039126656 -1.28270562655372 0.17829880514632518 -1.1519375199985065
Ni 7.989268712925934 7.8000656601538045 6.209691036015164 0.5539865993012072 1.9680856246989655 -0.8489121865053574
Ni 7.602599319808265 7.453635292124339 10.84216500012309 0.6623799377056463 -0.13687473367358363 0.4578144855533083
Ni 4.632415877505935 3.5160382312928027 0.5528130017804636 -1.3381972318631212 0.6094059566117762 0.9936827779872498
Ni 6.768419502391831 6.121803196562325 2.45383852088411 -2.9066696619398584 -0.08296229992584422 -0.34268048599092593
Ni 2.696145844204543 2.1434518262700912 11.501515388117877 -0.10383348694789858 0.8681229551058532 0.7770858485916746
Ni 3.8252931740486944 7.796927109884993 6.221991342426875 0.912594812265983 0.23752828023160383 -0.8933025396952744
Ni 0.4885898313544695 1.9405047339625956 12.36545240960536 -0.6873633471238614 -0.6672174683036057 -0.017100664236028615
Ni 9.02492471998657 5.926501050581249 6.458471267934769 0.8427595366404003 -1.2864887477452362 1.208699507379899
Ni 0.863119124656238 0.33594479948960027 0.5639646924818582 1.7864163604185104 -0.6099600293430334 -3.3352591891897787
Ni 4.122274979932514 4.331068207666096 12.162224253094687 1.0570612422438954 -2.874894426410791 0.7786364809082461
Ni 2.2024753089373066 0.2110304987908725 6.442030885810255 0.01852531249769713 0.08512665456701468 1.7847862810142552
Ni 0.8740375320689956 7.76299329175473 9.658692644208168 3.021576375982783 0.5005917286198347 1.7018347797216884
Ni 8.181048187560522 2.692388952688741 10.832771834452906 -0.1310136469071163 0.40750108201073687 0.1198799988878
Ni 4.1682196083452165 8.429752532145269 13.261969456644469 -0.9686021808695383 0.5606370147381894 0.5811618741644186
Ni 2.6710187044405 2.3759012911044226 2.0137322645777105 1.0680635068916702 -1.142570991181942 1.4479972208071
Ni 7.775378854308073 0.18233384364647864 1.2263608795584096 -0.7082119084380964 0.743521382372668 0.289476648274437
Ni 2.019343242953805 4.46779657370504 8.440582872774364 0.1283805801596434 -0.060124218985406125 -0.5100299912145989
Ni 8.889573568543197 2.4205342865689645 0.8938778541712753 -0.894179542983589 -0.0072322560823810935 -0.5772885072519413
Ni 4.7970820253406945 0.45954278283678135 6.885606411264539 0.614198235794097 1.3339654531699605 -0.9226889632771915
P 6.686817195402712 3.364272930383878 1.0484247538109772 1.0278946479822684 -1.1637337413024862 -0.12033302726481857
P 6.900482202658032 0.6461516130135855 10.731864164228222 0.6701127875735298 -0.12270049905573062 0.9262892790339401
P 6.5238561704005615 9.265056606374412 5.398903255348492 -0.4173664048405909 -1.1496728923340458 -0.4232331480340131
P 2.7673300380625596 6.270842174700431 5.284063232572312 -0.4102848154034611 0.9842545426948146 -1.2665539564945218
P 7.888722678642671 5.47729487225665 12.336862558858174 -2.11706331228367 1.1958781872455146 0.12677544045605263
P 5.163402370148334 7.675010827353488 3.3974572439723345 -1.8081429534623248 -0.5737938638351214 -0.13541151886449582
P 1.2984978810651968 9.368160324906588 11.851890023798594 1.1225899200743248 0.06323525381056205 -1.3624594468445954
P 5.864029847021727 3.3605535140951663 6.2196875528415 1.12637972613406 -0.22601590871663013 1.6270925537127914
