# total energy = -340870.6929703611 ev
CRYSTAL
PRIMVEC
9.20173793270186 0.00000000000000 0.00000000000000

0.00000000000000 9.20173793270186 0.00000000000000

0.00000000000000 0.00000000000000 13.46767359043374

PRIMCOORD
 96 1
Ni 5.990193489667873 4.5101767288029215 10.7792298123535 0.6915683863441444 -1.0588610144567958 0.7790370587807744
Ni 7.168310424572912 0.6786107030044859 13.650699365205462 0.5151593420213644 1.7793987914500966 -0.6137719468899558
Ni 0.49948230738144306 7.687030805840618 11.576071808106736 0.838486363186343 -0.7318601439846557 0.4921235432478234
Ni 7.045255580701966 6.413234197969893 9.509228001283223 -0.1889925374147455 -0.4811978974742552 -1.8556258295346366
Ni 3.186120227323948 1.5680865964058797 12.510121841132392 -0.25663543337469996 0.04913918072881215 -0.6002510295853856
Ni 2.5714625244232137 3.1833321006737654 7.803830308137987 -1.5088305500443886 0.7705578176651696 -0.5308698107780857
Ni 4.051065207072791 1.833611951579741 3.044799013112149 -1.3575221574439782 0.015759319716785763 0.44272108155529555
Ni 1.1354300717690697 8.45009414113129 9.390348906170868 0.334616735146185 1.4734696540465912 2.9533405836338362
Ni 3.8700118078351666 8.580878445022547 10.479035068467116 -1.7333066250777245 0.44065982815089266 -1.2420842534879317
Ni 2.250772749223455 6.543263959335357 10.075624428095248 0.04990922612561727 -0.07959595455677261 -0.31228181909441055
Ni 5.957922994083082 0.529533343731831 4.463025182331411 0.13817005544623945 -0.4728752365411727 -1.0037008243448844
Ni 4.165056338896114 3.758578759209042 9.21863619129826 1.728374992104062 0.2504424171901106 0.29325565570089496
Ni 0.12001642994391597 8.949895748825478 2.1891303055614886 1.0520578754920333 -0.48274698712892994 -0.7787035867007558
Ni 4.646942162471798 4.125829329293045 6.675589554361617 -1.3532379282463274 -0.8913053067595875 1.0651874708954558
Ni 8.578044309681767 8.683459421577792 7.98440429681959 -1.0335770430790263 -0.8755197617905567 -0.13260207444015873
Ni 5.955834199529975 2.9598954956581114 4.8987854532359005 0.48961774610683423 1.6649134812153068 -2.6355198369990673
Ni 6.67994657736116 4.635016709869036 2.9497975082458647 0.33552741988591245 1.9480420757845291 -0.15630353182215662
Ni 8.95329119019154 5.071289517586776 10.799754289228858 1.606499302942472 0.558919003605818 0.9667988091122124
Ni 5.91888922098052 8.54632591838414 8.852584607691218 0.07471214410191003 1.002968059943918 1.5963028220254443
Ni 6.015056586066534 2.622799021391434 2.187015746141647 -0.22495378600070287 -0.5757594722019246 -0.7706928005811372
Ni 1.149425915448701 3.070058704423757 11.656110366617039 1.119445718018388 0.11674453858261184 -0.2233170217282283
Ni 7.116449428531885 7.672832523922359 0.5355531208095529 0.03219458245467358 0.278887559904681 0.6019785537994536
Ni 4.082921624442209 8.556981531126423 12.981436707956492 0.3648102280104298 0.26440736401063497 1.474700698240215
Ni 1.370451665077068 1.1826165848454337 7.947207190645663 -0.9078387856382364 -0.6781276874582063 -1.3525123629342126
P 2.2787828400589563 3.5342127786433273 -0.09961893705460703 0.35083628232884095 0.44539014374702646 0.4367226978800156
P 7.863750186423998 3.2280249427197676 11.235191579125356 -0.12249866745756967 -0.5272329853564468 0.8372203519897258
P 5.894274571511083 4.868501612911091 8.302107187825786 -0.3780406106577747 0.3643543714199338 0.6865655338129144
P 5.082202778996403 1.328537747943129 0.1418990833656986 -0.5277225233983557 1.1939783991196404 -0.4280652793153337
P 2.342053991368059 4.432550866027531 5.849509035733937 2.200840651911642 -1.8453267616014737 1.1185041800407254
P 5.414201490344924 7.577134447480436 4.574457310783725 0.2632061446136822 -1.0304081584327416 0.15319429676921356
P 3.497516247023097 6.778175131785923 11.845654209617448 0.747474710593461 0.034346081580037616 -0.3505521754295189
P 9.167434039706585 9.036254061076194 13.484508613378319 0.25390209360393695 -0.4099094343419134 0.13930314060941815
Ni 7.409690418921427 1.4214108907823924 9.916059847887892 -0.9727897365883246 -0.26413379863427416 -2.19691380605341
Ni 5.650152459202983 7.140981262358248 7.024052015553395 0.08370252052597843 -1.1367980932539068 -1.2680824773239063
Ni 0.038249785014787464 6.760204137238704 0.29761549669151194 -0.484160836757321 -1.5277042470204398 0.25925333061352124
Ni 5.182124453235138 6.941441571238716 2.4761527613299292 -0.741118172247814 -0.6925639174881943 -0.7145329655601178
Ni 4.807199633559543 6.312410753395455 10.020838199506057 -1.3729562326108613 0.8728342445385936 -0.13862668336768383
Ni 2.9735048663367274 5.669899389207249 7.999649736535837 0.3370896221667098 -0.0015079520040941772 -1.0508810815751128
Ni 5.856943119960613 1.864953071614471 11.604084659463673 -0.931409630979641 0.9796502111535837 0.6072092060707737
Ni 0.7746750086235626 5.563775743476026 6.378802214100852 -1.4911799268421608 1.4626851618365777 0.6755817811079009
Ni 5.59316609502944 9.467300281542107 1.8745790098611919 -1.831041455327053 -2.034445025960806 0.8434095115195732
Ni 1.8477182161168055 7.770104097582704 7.502180769454923 0.6777620765886714 -0.013638159608724899 -2.523726985994776
Ni 2.09507934024294 1.490672373607235 1.238509782530389 0.2668779370383145 -0.3423074189222233 -0.47493417595273046
Ni 2.9177699385474263 1.8606650616508233 5.738871937455142 -0.21253175818726622 0.8287174567250373 -0.3211007029376212
Ni 4.643325879390868 3.612381543967764 0.18306765971196473 -1.6031244729329683 0.12154067441967456 1.2003783891087134
Ni 7.858946879125663 4.1285714472526305 9.139930964641463 -1.2353518198601046 -2.191958518930664 -0.8968138952826428
Ni 9.031303525967948 4.355164248443243 13.143251113134042 -0.7651654430050048 1.0945903495376053 0.2533410788941443
Ni 0.32488024673934085 3.254792798909148 6.813740769791276 -0.4404667383034801 -0.6807692388461115 -0.20643618681248962
Ni 0.30452324149775734 2.3155529855841417 9.79136249376263 0.4278685899234954 0.13352278648221522 -2.0476646099748734
Ni 7.575257292904075 4.815425987438301 6.8362178554955735 -0.11008255318140396 0.9470375673248851 -1.387183689064153
Ni 8.45387605549837 6.230699318895043 4.336267559041212 -0.8534180447955109 -0.7659948808848356 0.6659334593848596
Ni 3.1927914874605245 6.099454928097815 0.43399813805462073 1.226674603801081 -0.8685258469712268 -0.29335027229723026
Ni 5.583715909980801 5.362073643898434 5.108100150759687 2.861055720755486 1.9082323999867588 -1.3253129197012852
Ni 7.3904219792993695 6.539638474516308 11.704203250898164 0.6099276334432011 0.7009503417796766 1.2544990822125168
Ni 9.042732084712263 4.640399726668893 2.0861564147885425 0.7635878141052398 2.369729733708293 -0.9715959733905397
Ni 1.2440197833162951 4.996396571032851 4.090038248703765 0.24143789969865515 -1.5924232844653803 -1.0595307868303108
P 7.350872908862121 5.525284872922511 0.7843165898250865 -0.22962522333444324 -1.1314417140379998 -0.10346401942362181
P 8.206809386992056 8.026924608495598 10.079139492056862 -0.26297963042517286 1.1837932310565227 0.5798560108688013
P 7.463299745205143 0.6894015812971247 2.724079792350408 0.24642249739744015 0.9292565891923803 1.1012536204903938
P 8.340759088796393 1.524912041149581 7.717151775400714 0.2380011061029643 1.8533408901552018 -0.006068831901899226
P 8.330462343840765 7.186759909502341 6.515633900284188 -0.05766393037037165 -1.288472353834168 -1.223485664550138
P 5.243076766538148 1.4586595266897873 9.595582632838692 -1.1718640837191046 -0.20653620272546366 -0.3053735220103515
P 1.5786685952432078 0.20480860636670836 5.41135171204934 -0.3083058651657981 -0.19379895766445335 0.9103456112204902
P 1.7513668162684028 4.475835842141262 9.581643839935403 0.06769123269938665 -0.9396394750886011 0.02627847408055474
Ni 5.884575939533219 8.68130621485785 11.45864750779106 2.2956657647133434 -0.5182040423849592 0.24708249957894224
Ni 1.881479393276942 8.01665546875433 0.24806689743989382 0.08742624923446879 1.6643912901632498 -0.31859567712758036
Ni 7.351894301793377 7.723515697484102 2.93273380507722 -0.9499043473497191 -0.07686158634474505 0.38547341278673614
Ni 2.3118906938126145 0.14216225307591387 3.3286698735746896 0.06723409055731003 0.1272822048891421 0.08686240631119879
Ni 3.507720974597529 6.244382303478615 5.183882905389759 -0.8649324731930137 0.4210502814500813 0.2459458148713377
Ni 7.868535090246095 1.7412449043370457 5.510055996334877 -0.14390772926096504 0.7648430266685795 0.7319303351009587
Ni 8.36628471033965 2.7314439433673763 2.576217982683328 -0.3732426750484991 -2.819241612933177 0.44441620986953145
Ni 3.769915300572162 3.749809502781239 11.506160682570663 -0.7720346593210125 0.7291725698501635 -0.018891951808496493
Ni 8.705893259112928 0.5784930317438065 11.574886624236955 -0.9595873789654379 0.6956852367259955 -0.16172598838930857
Ni 8.74083225875235 8.916557851618833 4.539521991839551 -0.6427379951050028 0.02353047902177238 0.7149538551476203
Ni 5.520039882194443 6.598741238457315 13.00381993593197 -1.7316888869686435 -1.8767839516694902 -0.7188346782592653
Ni 0.5823632827968328 1.9632552399441896 4.369788570836431 1.5090940881184203 0.01270793448497166 0.2764259857380659
Ni 0.04354354495488735 5.762229629497466 8.578369131037382 1.6359456332280473 1.783964042223276 -0.3782478415725744
Ni 6.434830677336162 0.4067683546116456 6.788043995918995 0.7603160853325034 -1.5313680690252722 0.7333405851849242
Ni 2.927459368787171 1.7690157499814423 9.928786771880857 0.1889549993085907 0.9812160129788068 0.563239742468359
Ni 2.869626444706643 5.863329126215488 2.618035281567013 -0.2672494614451204 0.9507692664531754 1.539197335261704
Ni 3.804863501949703 8.69671912620787 5.457451499853802 -0.4620588626519591 0.3604830613899856 0.8673737356446545
Ni 3.7402396951370465 0.9768013083284613 7.984889228418483 1.7423558797641863 -1.4475989569274166 -1.1815789970140231
Ni 6.394720300873629 2.6746968243849394 7.8238965384549966 -0.20168195995695587 -0.11728318469490123 0.11027281481533911
Ni 1.2720390758899163 7.3564491621624875 4.873654586257964 1.0948551731632177 0.15126931183235884 -0.42129299358850675
Ni 6.814531199095734 3.2039992044899726 13.340094694984582 1.8671446288075135 0.6492796528782624 -0.04579674661914049
Ni 1.671320896367605 5.602294219243901 12.152595667892989 0.0895857187796328 -0.8965902093076108 0.7726311552544306
Ni 9.217473091599969 2.1068483632976727 0.03424794910665355 -0.17236084239533542 -0.9777897609060775 1.2193413033644613
Ni 3.8536879244113234 3.9449415613415693 4.264403824676198 -1.5319316548382262 -0.42835889929635257 0.1631634921667835
P 0.6819720979395084 6.618138502413044 2.3820005768920667 0.43980853589419094 0.6057647603147632 1.6537039856527327
P 1.5662370470438771 0.7809331107185773 11.116756927964166 0.3231413875167338 -0.8415045811873766 0.03884088412659762
P 7.958638509911413 3.868401503664269 4.6517482302915685 0.8820045981839519 0.43995534588470037 0.28470288103487745
P 1.6715509398205906 2.846217222930849 2.777182102863744 0.20885508066662742 0.8196268072776788 0.5657015737452903
P 3.940708761806638 7.817456241945217 8.241233089296792 -0.6141229024714714 -0.33186385499139626 0.27344196340907745
P 3.3597938325898014 8.149040875078365 1.7428515278126957 1.1423869001955937 -0.08640886371354796 0.8975410032566543
P 4.558044170500122 4.530853034357249 2.3678326607096025 0.9843427315332468 0.04078438100621363 -1.3293333537145882
P 5.04995988862597 1.847865443926716 6.253808564008144 -2.198793539574626 -1.2967932149950376 0.8463544530805102
