# total energy = -381169.47109092405 ev
CRYSTAL
PRIMVEC
9.25355290956159 0.00000000000000 0.00000000000000

0.00000000000000 9.25355290956159 0.00000000000000

0.00000000000000 0.00000000000000 13.54351004661087

PRIMCOORD
 96 1
Ni 6.926016093621248 3.951415202771745 3.7076988243584745 0.46468884407563843 -1.989389014162432 -0.7834002208454766
Ni 5.638615527633981 2.8826205736821104 5.56073484922594 -0.23117482720975027 -1.580412633157749 0.3666915041935427
Ni 4.644506325089419 2.1079778884674325 2.8297948154714976 -0.18411695448999904 0.5224327357543261 0.9762671536139637
Ni 6.20845857707917 1.950843304380965 7.9801882582050565 2.0287235500959966 -1.3569945670752823 -0.7524765346834267
Ni 5.110903905156913 3.801239290567559 8.380872656750165 -1.226838897293087 1.5927066200337536 -0.01643063475219751
Ni 1.0895040807818501 2.659933819896065 10.826587649242466 -0.29367268863365553 1.2750568517592107 0.20262606903778008
Ni 2.7383114141020823 0.05733316389393647 8.107429239212122 -1.51056913000205 -0.0702502516758145 1.2840860518410144
Ni 3.519135472744107 5.803800702860854 4.632597927688743 -0.7711188323749624 -1.2992229074824528 0.6973533684570378
Ni 6.346715912974341 0.7439819625886787 5.835316453787283 0.37180825659481775 -1.550100098217137 -0.5053996915314393
Ni 3.5350608375172534 3.7340307348747253 6.188869730659486 -0.48246519422245293 0.14813333730653844 -0.6128185818377511
Ni 5.6757500359632305 7.138921841849353 10.367909383116727 -0.8206876444420252 0.340663198450581 -1.6577213343422414
Ni 0.08113052623391459 3.9878649481764086 0.02704073267872771 1.045763300732573 -0.01939820202095369 -1.3774916585873695
Ni 4.324074290595208 3.5531607872536135 0.6400673380721129 2.3614392115647265 0.3746686088617483 1.0037992975959615
Ni 6.403375418207333 2.3961150228696715 1.4590697058257294 1.0957450319673387 0.2033099824786821 -1.0734419975947644
Ni 2.7038696897060026 7.029202463513964 8.761824778803549 1.5431383221873232 -1.7074937777796788 -1.9903328661329396
Ni 2.7248845086483713 0.8439962145010136 10.706239639891134 -0.07031452925484664 1.6455021665682306 0.7043699089841869
Ni 0.4813300385999922 9.168068712012056 11.77918356216164 0.16304984940705466 0.9460361226435642 0.28726549955573105
Ni 4.990866815187556 4.734136239785934 12.170550558155858 0.6316431707434219 -0.34919437585004376 -0.34426659953112326
Ni 1.5507474318088788 1.6907907034397955 12.950697256715726 -0.17415624373286137 -0.46306210710549284 1.6797451469115006
Ni 8.523364418514129 4.254404289795077 11.205548406682729 -0.5283488441284449 0.7406278628749567 1.8157534188197308
Ni 7.535723449540996 8.967905106313076 11.51836291631857 -1.4504161146612373 -0.17275653517185732 0.21257932359575
Ni 8.564468701095374 9.042544265092973 0.374776300757859 -0.17397343829809395 0.24437204262631462 -0.009946055469118356
Ni 5.4404229287314445 0.06069497971153342 2.3164141705796566 1.845571787732744 0.9334055783637474 0.1373997529391182
Ni 4.463599363256168 1.2641926549756155 0.12699668720694238 -0.5156632782409764 -0.9319061110000854 0.960688068228784
P 3.8530591875632734 8.557463761447917 9.836611083483312 1.337161077289123 -1.1264763996129246 -1.132079861842631
Ni 7.709690246598036 4.743630385199792 1.709732726502336 1.1944869633249426 0.3696431306226989 0.8719785814065175
P 0.4595508761769364 6.464208275859088 9.445366234389155 -0.3261701470407286 -0.07415344338496262 -0.24172483481145463
Ni 2.7526081535410785 8.045251840304388 13.011954852451783 -0.7878148049734045 1.3355852481615706 -0.024305409514583945
P 0.7496636441521374 7.936402295954284 4.225764543151911 1.0794617214262827 0.2090152603935755 -1.822721622607448
P 0.971058601934504 7.217808381472293 0.32544931094976026 -0.3656118979761187 0.01600563139963695 -0.9701877801891032
P 2.3497177079524376 3.686467472275088 0.12256516065850535 -2.6429408120534874 0.44422286291180274 0.08601934158461315
Ni 3.40627913992987 6.572595142557444 11.364007174208497 1.530589538988035 -0.18371329129367717 -1.244782112035069
Ni 6.268930546162561 2.1744183992583657 11.939172867359389 -2.136376410789985 0.13720254932664758 -0.07912081469256696
Ni 7.393477832287763 1.2763610772165734 3.3455582502698387 0.3026561230791884 1.1623895685697658 -0.13029733756638204
Ni 8.557972706864838 2.432990431713943 7.659328709560631 0.014747333512503633 -1.2887796006619416 0.0403596347639692
Ni 4.800743314531497 9.087016840978936 11.617189937376521 0.8128362667184065 0.34120133034223815 1.1154553659120725
Ni 3.1909304537005387 8.901362806438758 3.251593971331753 -0.803721448901332 0.457621909926528 0.4510560837835522
Ni 0.06982268442520703 0.7543875829764787 4.861050570370866 -0.6052220004374158 0.21802569142230194 -0.02993098323147748
Ni 4.436107057189335 7.776158518048074 1.1040543675740038 -1.0127302815370043 -0.13367988088536978 -1.3490542291822831
Ni 2.4344247324343598 1.9657045105550928 4.3610098475342065 -0.5270697203057052 -0.2727482797761625 -0.2880597133222523
Ni 2.205843465365052 0.36630652366497024 5.834761240605185 1.1342563006686597 -1.2707844496361018 0.027574310073842836
Ni 4.924426304396624 8.535810447346137 7.617303698452409 0.1560829311709183 0.089384144291788 0.09203495165107375
Ni 2.057860645230149 5.082245651407677 10.033262965805529 0.44150263576716225 -1.190632622575859 1.224641375421136
Ni 0.9955342497119438 4.901829127885278 1.9609787210201444 0.9448806688828824 -2.6810497031100664 0.36400521561063115
Ni 9.197272925390354 4.236424636248172 9.102458244928357 0.45876579372298404 0.6349771202126613 -1.6610635113415975
Ni 2.7703842289212153 6.358967617192614 2.497558948725906 -0.022394308534800143 0.6754683954584882 -0.6963946040881941
Ni 4.90151450708209 7.312527750338029 3.3507457921012307 1.0373475658650522 -1.4565386826192077 0.47824832792762795
Ni 5.848199250322538 6.4011453119259105 7.880250810782911 -0.8031851167818878 -1.2277536957978725 0.47362882687774566
Ni 4.636613044350607 4.455872646471985 2.822033860541086 -0.3769288656508347 0.8291722848742688 0.517361748989322
Ni 8.279052111285408 6.1738873029406 13.287375754273397 -0.009063652864165035 0.3637835865181283 0.6467098352685572
Ni 1.8547173954539156 2.464924443237552 7.376296760367772 -1.5415390960210031 -1.3730493065452998 -1.1051377860361482
Ni 1.7046062581209744 8.03418459087459 10.399898915958545 -1.21069314077116 -0.3615269292734677 0.5335237034611651
Ni 8.522346527680286 8.519246587413576 9.181050521564785 1.3385484445549527 -0.5130404959061486 0.43603621333595227
Ni 5.652199743489285 4.979096295727102 5.282172366148962 -2.4034579791986737 3.04837009913686 0.7322296115089325
Ni 0.5030601571919627 0.18543657604385874 7.313414240718777 -0.22649953322126798 1.6271406333419074 1.7130224209073919
Ni 9.043497381055573 6.250238369031964 7.325292101394438 0.06387031629139968 -2.1519899489575263 2.1144042773942684
P 6.68466492336371 6.135753410883576 3.715432018629781 0.022940667956573395 0.26310201493565016 -1.4868717863851102
Ni 7.079134635690547 7.506880124731062 1.5191215636013335 0.3512440592902209 1.896102192382128 0.48905107497008676
P 4.414796124549847 1.1970303670479565 4.745443156239338 -0.11062402750717078 -1.4418381431842395 0.9123014493952805
Ni 1.0122924342582365 5.641808003431038 4.375149276571608 0.014600266411678081 0.24995287914820177 0.09586152448601556
P 3.814351575218082 5.830996895230569 6.960863123640259 0.8801986553234646 0.8314659660044519 -0.8864996578408281
P 4.394188461941016 4.87251387187056 10.163849106234728 -0.1005383611363946 -0.08425582192628715 -0.40440547380454867
P 7.270174238097068 8.708805621334506 7.3123574849621855 0.1101720275714167 0.18582468120972512 1.5254527319821019
Ni 8.109989697336891 6.5854853419351285 10.942005365536778 0.11990776680194189 1.114164415014791 -0.03758978532831591
Ni 2.9663282144362584 2.94892228117752 9.154031072058038 0.33559786811253167 0.47793671022448014 1.6077522015129666
Ni 9.074644840571212 2.3769879287464324 1.647039904690557 -1.0130660676098682 0.32955140480813566 -0.6554942663294065
Ni 6.352656694022778 9.139419711815854 9.427257956455064 -0.49285785031068674 1.36049666669127 -0.2762192690438985
Ni 8.939616994685236 7.908549101319089 5.996483736286381 -1.7176534919214999 -0.1253317660309906 -1.5061879702152188
Ni 5.896558318483182 6.882468873038778 12.494240768673675 0.527665444908175 0.6782760401106125 1.877071143892606
Ni 6.489322418795939 7.291041000190878 5.896966400172023 -0.45175799494658325 0.76548785934143 -0.875522332893718
Ni 4.103062429908488 1.5618331883447474 7.305301650773037 0.2694233291679876 1.3012545932005009 -1.4738293513788554
Ni 7.874690350764211 5.433186650258114 5.353573706721932 2.5949609417400987 1.0186412477048006 -1.1387675582754517
Ni 0.2828228188942681 3.9013349737466014 6.194503293747164 0.43090326298476106 0.7727483975585853 -0.36467215977066875
Ni 1.1043652869559781 6.118477027367327 11.924843740484771 -0.5900944007673579 0.11077520837305438 0.5871929108498468
Ni 7.26432599257898 8.290563531260885 3.8368219780528485 0.6606441859614622 -0.45540947565624146 -0.013938464457963092
Ni 7.469597559553252 2.6932003430567066 9.818909036527456 -0.36204732055331196 -0.5307775081745956 0.43654426332062235
Ni 8.417448250476104 2.1214788223454226 12.219834981619998 1.3243353862793643 -0.7403632963596605 0.713547718828713
Ni 3.3023802464534633 5.611687688302279 13.531307740472382 -0.4616881095761016 1.1121540694529815 1.115192084948357
Ni 4.931051848369647 1.9173084281823098 9.94327956538308 0.08525289573223382 -0.3920749772636538 0.4541424360183598
Ni 0.07499356986113648 2.91982911043564 3.8845906695298615 0.514112903034721 0.9379096368816879 -0.031124232208630268
Ni 1.9494275107666177 7.183079796932129 6.49162100136982 -0.44320059229487546 -0.2117264886771515 -0.23912544951539463
Ni 3.9215539871279654 7.885655811110626 5.502917724508276 1.065817648280287 1.1703764434299846 0.2585192806609741
Ni 7.037234547548299 4.352769558556584 7.082415945596741 0.7337429628296654 -1.133901745542718 1.9284857509191562
Ni 5.811249813053987 5.884732277704517 1.1246666569593524 -2.0382052643341866 -2.740623448908641 -0.6303707317889015
Ni 0.03734734004905381 6.877138826490648 2.1241780837657176 -0.41411421645188035 1.523657587754892 1.654084508920603
Ni 0.7564585281457002 0.4665622933115172 2.369599892003329 0.2399032082216836 -1.122190370643061 0.9492278901079847
Ni 2.152589267648921 4.808062874982141 7.809039168047159 -1.2798411605217312 0.20157423073449798 -1.2421904400484929
Ni 7.008705843541552 4.062069189963664 13.216921977531205 -0.5956161019165356 -0.14334285789643056 -0.5963864044236568
P 6.355969466009291 0.3854197374586572 13.233783801871489 1.1390614353667867 -0.3941051203198051 0.790337314284942
Ni 2.5794741762571842 2.306059444733549 1.8699931608040092 -1.5683986394160085 0.800526596113118 -0.1004440016503754
P 0.8569206520249267 1.106160476244758 9.518337902912155 -0.4996777014459975 -1.6661116152884659 -1.6297294771150062
Ni 3.481769625588983 2.7654613387066225 12.121712155948005 0.6866840616686496 -0.12925475523448063 -2.3562442976273483
P 2.529412454338111 3.8729080588232385 3.74755665334591 -0.3090723110181774 3.1356001732001224 -0.6980817619826301
P 2.6340238713982083 0.2813366982768553 1.217364124486953 0.26003546019518436 -0.9217415117622577 -0.9522695051477859
P 7.792713124427598 2.5925401931425323 5.452184194638865 0.786072111250685 -0.24565348044189947 -0.059329233887936525
Ni 6.673958562502275 5.2033561535290875 9.751584811421687 0.1313481474283996 -1.8889038748614757 -0.08779931630317138
