# total energy = -381170.2750230966 ev
CRYSTAL
PRIMVEC
9.23838112251516 0.00000000000000 0.00000000000000
0.00000000000000 9.23838112251516 0.00000000000000
0.00000000000000 0.00000000000000 13.52130460267345
PRIMCOORD
 96 1
Ni 0.3783597413349512 4.442765135738614 1.3168166549425895 1.0336066107653812 1.4789088227842917 2.0417636711094063
Ni 4.3183888124001255 7.858554886525901 11.217572014583334 -0.45882595753695815 -0.13509167363123187 1.1436770797619271
Ni 8.096877401059286 4.982979464433414 6.739870093435143 0.894487304031995 -0.33617636632382103 -0.9396600439138915
Ni 4.879130823666277 6.948195584877089 4.970904900472676 0.44772393408652567 0.9043320580365588 -1.193953459418976
Ni 3.639266187061374 1.586525645069096 12.176313641342151 -0.1430042436100892 -0.671282896622231 -0.811591595678028
Ni 5.018436370693022 3.9361507987233857 3.531359125523044 2.157073019907388 -1.2278200302594338 -0.8113717663577381
Ni 0.3950701248790839 3.228823396206264 10.788770713014546 0.49319826436924086 -0.17998724859234164 0.4307040024897615
Ni 2.3724809082364344 6.3424534197832765 12.922784064135971 0.2617074485809686 -0.22442028209473608 0.5522171661056102
Ni 6.403445211113641 8.880384493262895 4.880406644081716 -2.9761449831228615 -0.8335958678632611 -3.1963160030229405
Ni 3.9531586581355636 4.662592411519593 0.9190091977746255 0.1891411471774678 -0.5524930454748163 0.34619569823303603
Ni 7.2677419451203455 1.980967560040506 3.780002759304277 -0.6284061518633629 -0.19021098320287885 0.21926470603572562
Ni 1.6248741645802054 8.484048710187468 5.971156420719163 0.4992750666909401 0.8572083650758785 -1.4900306437290662
Ni 9.149369194319378 6.012560072825386 12.488993112991672 -0.2714732697184808 -1.1483202349608934 1.0770358855936095
Ni 8.000816715471112 2.666113609788132 7.819384151106218 -1.5349200480425886 -0.8590271634521721 -0.5085264100858791
Ni 2.9355509915133795 3.895483445582479 8.466675934725979 -1.0646357121570438 0.3324017297727372 -0.15140969406496504
Ni 4.389672160159152 0.6196699482821877 7.171726527599047 -0.6408315221109092 0.08136204531825987 -0.7265680423477809
Ni 6.561319903940754 4.520099623049501 8.549195925289476 -0.7747808546075817 0.40579978304891406 0.23705699702214011
Ni 4.50363682811604 5.433405968235785 12.08524722451999 0.45997035555404653 -0.1602324345629176 0.33319542931862617
Ni 2.4499262561192645 7.816621875188651 2.3405512158407955 1.855435053680069 0.8202608413172519 0.9429603119317179
Ni 2.3057058904030696 -0.030290803607088676 11.044674790419915 -1.5949015708025436 -0.4236918328379864 -0.7312150542014891
Ni 6.033632819875457 1.765861096948078 8.545707512625686 -1.110445828512623 -0.5098656977225929 0.01950156036803738
Ni 2.14421899060683 1.4216297826856248 4.80219912976678 0.5142512283847982 0.4699881448013648 0.6369949219736385
Ni 0.9394047714977467 4.265961000252318 5.2875467137310395 0.0755040438755861 -0.5153300632712737 -0.5120390512248278
Ni 3.475257209253443 6.768352022043371 6.647356946149128 0.3012404736785844 0.18361816047670956 2.0854559697910338
P 5.891583473693135 1.4249925533678804 10.993483073649266 -2.402865854140629 -1.1285073140000241 -0.7857887756823112
Ni 6.107364338598213 7.787945940579525 2.1509694756000286 -0.6110126389772638 0.1897823803058925 -0.261878169830878
P 4.048295505624218 9.021149704486882 1.337211304827611 2.184056490474768 -0.5404911359179337 0.07534334992800573
Ni 0.7761173112455412 3.2330453363210743 7.558909846622522 2.5726594500294206 1.455937815810415 0.19250980653938457
P 0.22808176920019785 3.7819622199133605 12.978951572910638 0.1736890742884557 -1.5058329008686453 -2.7124102196992186
P 6.5941993019027 5.057431576873795 11.666533311159867 0.0032830416266459586 -0.5100680435413861 0.7314940188944886
P 1.5481771255579868 6.649555680825989 11.04813641177882 -0.5816655532737144 1.3763161502220296 -0.5061234570713412
Ni 6.616888765626932 1.4893286386185105 6.093483671152914 1.134221590775982 0.6474829659891559 1.069576858212403
Ni 6.699886380487882 8.791160209611174 10.066408769265825 -0.9194300900202618 -0.6976153638691728 0.07222640156557884
Ni 5.644466020452311 0.8664298761784975 2.481808832771828 -0.3987462186362423 -0.1385526355966388 0.08918411246583995
Ni 6.722270977639273 7.4156114713296475 12.398576154353469 0.3676530967758636 -0.3254741494149685 -0.0505075218312485
Ni 2.1141111069434464 1.1449217951171484 7.080282260994178 -1.2249470795870132 0.1305107391287688 2.3736090141580415
Ni 3.5471872436821346 8.836890195537455 4.625219465041577 0.6145414780661287 -0.6433378334725308 0.05031931707984238
Ni 8.366314782784535 2.1739573390304052 1.4301752851061924 0.42093715291098477 0.829256874168275 -0.5445331671977912
Ni 2.5522136104982103 4.664301512003705 11.048285149712841 -0.8549411663082566 -0.8031190394306428 -0.2803543742581946
Ni 2.3770446684480673 6.612066330747433 4.632223081674044 -1.2153203551305265 0.18590207141487983 -0.6519091200813095
Ni 9.194831267196797 1.7885320839103187 5.8012616703791835 -0.3461923557989263 0.6630116577523743 -0.12874130593317182
Ni 7.599861741898081 1.6609130888425125 12.174879844611697 1.287684310715234 0.10228208330037868 0.36681106049054246
Ni 5.463781764948029 2.909748193393763 12.59447325184256 -0.33622753127673066 0.9661794303606586 -0.2790873346203129
Ni 0.3784863071545856 7.052155086216167 6.996463354062753 -0.9827327067336495 -2.255238252825916 0.2683516933703637
Ni 6.7382995686659575 6.1720976742316385 3.8283952466333764 -0.5487531188164098 0.21016300084477357 0.27976019231762145
Ni 3.395354452025887 2.844876282045411 6.185293777645193 0.262177960459484 -1.9682856565249132 1.96672782511949
Ni 8.080996624128524 9.438391943754466 2.5810955610035293 -2.3113759763597486 -1.756760999445923 0.530680577585415
Ni 5.79083892894039 0.48037179196023927 -0.1477364935229716 -0.1674420649374794 -0.5846529180368125 0.4734051409027137
Ni 7.3846444182337105 3.83295808300691 -0.10865814191324087 1.2264596595767974 2.055224681710319 -0.48664375108017477
Ni 2.3185657167483993 8.080682519174687 8.244453146752942 0.382319954759419 0.16088498054525194 1.0841634977773265
Ni 8.13537373466632 6.171127644227141 10.40976798036233 -0.6465092892219769 -1.3891063600081626 0.3529109054696825
Ni 4.23229633990578 0.38199873960896374 9.63866156696859 0.3978185646156504 0.15855376130891405 -0.12277737504025306
Ni 8.506470260862839 8.89121187578928 5.18804380738405 1.1579269048127219 -0.28536545431954075 -0.8108302920319713
Ni 4.84947562067166 3.7370174963716725 10.183787019000443 -0.25305388667102874 -0.09022000992952203 -0.15418905658231508
Ni 7.762605061509668 4.410125935682543 2.7557231339273534 -0.14738951716197843 -0.9846908589012848 -0.3443499032735489
Ni 0.5980364315057086 2.381340515610839 3.5556699251119346 -1.419895320364561 0.6224712744361667 -0.9884094454034525
P 1.8518242321084901 5.375527511300805 6.8767330125267545 -0.2355014796095622 -0.5692324697166842 0.494654022979161
Ni 3.1931447688027697 1.1029425918749223 2.771434848485904 -0.49165123159709523 -0.4749943397667045 1.008452994317889
P 7.974200939823918 3.6360697072370325 4.7630283943470975 1.8836169154309237 1.2186954422503464 1.2367803247765152
Ni 3.623976666514305 4.6079381495519405 5.166328069016713 0.29029168797656457 3.261607110921266 0.18760568436954786
P 1.9605969299460715 5.670231865047947 2.6537452653117475 -1.6275160144034553 0.16160154699630233 -0.37741326148642096
P 1.0726314638296444 0.39078905912590434 9.06742752640618 2.0209559903354353 1.1785168131489316 -0.10691752518986104
P 5.8439319045198515 5.435540034245678 1.7449786605465092 0.7016615089140883 0.15863320839659778 0.2580307710603298
Ni 1.7548766619447753 2.3811742247529253 1.482448816291379 -1.0251096290379635 -0.07165844487725077 -0.2526512519159713
Ni 4.762339211124856 1.7114562712672967 4.662254286775168 -0.21850057417619145 -0.19237559495436546 -0.7162800301582116
Ni 4.393986484083914 6.933312553093808 0.4935780575928894 0.5923091490304896 1.250426711915356 0.03734655896925826
Ni 9.057151675225208 7.923205076730367 9.533614708186375 1.200925262751119 0.932233155322201 -0.1376864309416016
Ni 0.8508558134967755 9.008326831665533 3.6690193168945417 1.4700017501026488 -0.4633806667871761 0.5560581371182552
Ni 1.1090306849507645 5.839987115834898 9.113210171104132 -0.9036183197989858 -1.0609752325863213 -0.6911071304370098
Ni 8.776452707066804 -0.09823632431254649 7.355683941489931 -0.13061409747585248 1.466188804114462 1.848650426658068
Ni 8.41716283178216 0.9908533152600613 9.544377422045795 -0.28485046235633527 0.9119034426259135 0.5460544889383241
Ni 0.7193539268966833 0.2197773885236052 1.491629919324417 1.4274191395454319 -0.15470584831773357 -1.1747403768256348
Ni 3.4527894666730967 5.977075451422792 9.42602544695428 0.11198799773423293 0.6447447411223863 0.24060537649503078
Ni 2.4902517891633487 9.03655932398689 13.483620306888275 0.12019958701074783 -0.6667274160410647 -0.6794836872654685
Ni 0.2332090706525384 8.364014425916729 12.307213185501357 -0.27569116445457037 -0.13820785066271035 -0.15021798774970904
Ni 0.8579167080914132 7.087972289334589 1.0586288497552072 -0.2873590877108019 -0.6399295791219302 -0.7035654108050206
Ni 3.9693258248771777 2.175574055704567 0.935557909651342 0.667931977872127 0.09759033425166419 -0.7654750038256236
Ni 4.07634323032567 5.9337104910312854 3.0758672174209996 0.2162796552654727 1.0787274143634196 -0.9694377893969564
Ni 0.7062224921500944 1.4284384694790933 12.970243474984555 0.8285616478734633 1.3109162846599811 -0.9777347392984257
Ni 2.64315623301504 2.3905419430820665 10.18812721039199 -0.5599417884433776 -1.1700203456421463 0.08802583049168065
Ni 2.351260347090441 3.5935639162780793 13.12994367189632 0.33019855147383137 -0.1421462664851681 -0.77860434211873
Ni 8.010886550755888 6.544090323384691 1.462369195198294 -1.5291155255456699 -0.8481287713721136 0.1462734012796642
Ni 7.221217458428477 6.869392194987963 8.215003959654517 1.737356626777382 1.1391840769875798 1.3406572633678393
Ni 6.090273333757079 2.992228458918982 1.500837813662341 -0.6710656384051024 0.20597595934661944 0.7061542545781193
Ni 6.012255206252545 3.6020077965076998 5.7176321502581615 -0.46534653226429534 1.3082505649023597 0.2990375524899947
Ni 2.7295997639872027 3.7288969594768844 3.1995866918707287 -0.8580244332192707 -0.6221627420568123 -0.23225829008191615
Ni 7.274707684390733 2.8909111345445333 10.231381310211557 -0.7588860377541962 1.6134446239120535 0.6702999638836714
Ni 5.767752214833365 6.410586479622937 10.14868579040915 0.4245133002980173 -0.7116466451512583 0.022242613448284276
P 8.173583678462501 9.527265168928368 0.17034004030394753 -0.7596884790508336 -1.3042008203130184 0.7814469537738477
Ni 6.356948439564759 8.756202175925306 7.0994823882165194 0.17921926007806555 -1.5600073300285198 1.9072502385791474
P 8.514045733278909 4.321908635559299 9.229561112872084 2.65469563859657 0.5190273096172029 -0.7539109531371081
Ni 9.098151610081942 6.18217674789741 4.044587219492741 0.7867475400511547 0.3723543589062749 -0.19663179912755813
P 4.800715445778951 3.941509059700606 7.610195794879321 0.22112721316576112 -0.6096442978748274 -0.5903394268986284
P 4.692857347659895 7.4301803981590915 8.626875928049586 0.646393589579719 2.530177112495494 -1.5569688003125122
P 7.639919361893304 7.023802494941873 5.718903351483101 -0.3789587515966699 -0.6355558755342666 0.31485857868265127
Ni 5.899269806681149 5.990424911960869 6.737382197433134 -1.8521270723527585 -1.0374738070302714 -0.7409446227844271
