# total energy = -381174.7811202355 ev
CRYSTAL
PRIMVEC
9.16571118181209 0.00000000000000 0.00000000000000
0.00000000000000 9.16571118181209 0.00000000000000
0.00000000000000 0.00000000000000 13.41494479886229
PRIMCOORD
 96 1
Ni 4.759598012130176 7.301249729524541 0.2563988555603128 1.398888636205907 -0.06011753411718678 -0.17521528112499501
Ni 6.921312668617828 3.8815412100279567 12.342151667703684 0.4700516510494485 0.24318213608327152 0.0779285941566787
Ni 6.157662273787577 0.6037197331408514 6.210717076531772 -0.4140910765234288 -0.6351576116545835 0.25617417746756527
Ni 8.977878286151467 4.192103002817258 5.042812072394452 0.47043371697921565 0.9696537620625042 0.4143805827393896
Ni 5.1724583076884585 3.8675726661501746 2.5446140752561095 -1.4876276907145283 -1.5652356683069948 0.6528889674960755
Ni 4.4965512662322284 3.287135672614535 11.684336823596766 0.7353393607825077 -0.9653829026012922 0.8826517448496477
Ni 1.5769606129740368 8.065770866919353 3.707823485542651 1.3069202761267105 0.5608074788777825 -1.3556817618011296
Ni 8.066614112350294 5.948088287064814 6.877332836538588 0.8156099728088019 1.7446431331364662 -0.7842301729459397
Ni 3.273222123003988 5.622632213565935 1.442616034115889 -1.2432584763016912 -0.07718143157800901 1.5434406839190902
Ni 0.7017222670676302 4.29953430386154 10.274023505483811 1.366804868297485 0.9957877401453946 -0.17194483790383935
Ni 2.7882551773889386 7.422172957463898 12.505250915756962 -1.1990735542543607 1.2032680519516827 0.057793513969700464
Ni -0.12656289004434404 3.078432428456332 2.7546380983990817 1.0055432768702617 -0.14529458230616266 0.8419519531374403
Ni 8.141342155811946 5.68605893511072 11.277997931561478 -0.8518265319386749 -0.8326031649326887 -0.7247818969816356
Ni 6.339858281138334 6.290372606337713 9.628805098287152 -3.3674943950744005 -3.4966900149361715 -0.19198710126669516
Ni 1.5515440958000932 7.777481752360373 7.933196186895063 -0.15871908324218473 -0.8911476981358006 0.4779073996484415
Ni 4.852932449339793 7.557046397858626 11.146182172425037 -0.2907529438836992 -0.39612009386730485 0.4842138014824435
Ni 9.226388214076868 2.6487163899904105 12.240963132561737 -2.0361270416489194 -0.12036876559876045 -0.1716350199729044
Ni 8.40141004556798 8.963506450980626 3.219895098636977 0.00328098474411693 0.5356633755119872 -0.26690364806992745
Ni 5.7844895077508145 1.1514882987964443 10.377479637578096 0.8401745495220434 2.392264167365383 2.804783528526318
Ni 5.773050700165859 2.4460258523832743 0.4813547388288067 -0.9303048279512366 0.3186699820089415 -0.2054738228992203
Ni 0.48461223259138136 0.7804969720266848 8.178917905471629 -1.5883439721896837 -0.6398884414713496 1.2423642466221958
Ni 9.01334042280707 6.528763589091807 3.029603935149174 -1.0731247234646617 -0.17960055467688424 -0.6867231424367012
Ni 6.3122878218310055 4.728370434051696 7.422582664754801 -1.3790667163839734 -1.8652831501187424 1.1114889250651565
Ni 1.9760448445898608 5.460215810997496 7.822563302926562 -1.0032318551282657 -0.793500285393956 0.6867676225213915
P 1.3735643156040462 5.767927067601764 11.940293891876955 1.137294316164035 -1.072941918029894 -0.7345731720404447
Ni 3.6998493167935234 1.3629320906052096 6.3724478839020104 0.2620666316926003 0.23156434933868505 0.7857316971921307
P 5.97343147854911 5.93436721738959 11.95372165879359 0.04837196354548444 -0.40760058370307867 0.4630286827643961
Ni -0.05061397385006643 6.58766244930088 9.379474839208825 1.1742433825845584 -0.6517553681122646 -1.8224735111523842
P 6.980504831585491 1.6822471375961394 12.1491236228498 -1.1260750504094477 0.5079075455549577 1.3849167474068471
P 3.86363141033164 6.522659225428681 3.78458356717865 -0.2363167764220059 -0.40942709538885613 0.1045474822957877
P 7.275365761079096 7.684788914935168 1.7120558635799472 0.21930738634820293 0.7511380183776613 -0.034539171427450194
Ni 1.355379544571553 7.109310571161918 1.0888388295619187 -0.08461680481013169 0.06637945586649859 0.4503266618166954
Ni 9.320886696609632 4.851685912615791 0.041562834034246245 0.07686955676454503 -1.424636177483656 -1.041060753050581
Ni 3.9491658273050416 4.414930607943743 4.5040946465546785 1.1873398107572004 0.854786128787631 0.4641787372084393
Ni 5.672539511082027 6.181410631522047 5.820610659042122 -0.7457644127705737 0.5307037175138667 -1.0997716366282286
Ni 5.147417584673956 4.797177428074341 0.5531974164028439 0.9530922581593974 0.5104506236917853 -2.7986427057359027
Ni 1.4416105555966023 2.7859179210314355 0.6926152164134541 -0.2192683055801514 0.2909558039231247 2.6262240135194386
Ni 3.737841189741953 4.547970906097293 9.618528502883107 -0.5020438876853289 -0.8229340172740408 -0.11671702777878608
Ni 7.593975048307173 6.170145972450004 0.05696947800023322 -2.4250639875042235 2.110890607814055 1.4079232356043494
Ni 2.6628957452259283 0.5443809187938946 8.8472366546205 0.9750008853070306 -2.4292944806458032 -1.2458354930002478
Ni 2.457785459860436 3.2405921911110056 3.233685827717365 -0.6917360222702603 -0.5687889544213623 -0.632350995443724
Ni 1.2073349771739557 0.21127605929369736 12.564692386069424 2.088022959187262 2.262311100512297 -0.2190245650004615
Ni 8.827615616642044 8.850282420454219 0.582325130044054 -2.1213999919858115 -0.06433337197074727 1.8322640148802443
Ni 7.715420721785266 2.1881210704718326 4.764465004780505 0.5524300534473646 -1.6126388401813065 -0.43705334174655697
Ni 6.395109188287463 7.988907212746727 4.2866381481948475 1.3976845885954767 -0.09026166180073486 -0.7397529164691712
Ni 6.641272694144154 4.148666697412527 4.3272184179878215 -0.8393487111866383 0.352356061407477 0.6647427815108681
Ni 1.2524761048629827 8.591195261797218 10.335906721261525 -0.8727637963119743 -0.46720878228401475 -0.23846801843705384
Ni 8.53232389872176 9.41950974918505 5.833663548370435 -0.038869423371687896 -0.7896171482894659 0.1802782974701992
Ni 0.8539711461953711 2.094612484749304 6.427609883652441 -1.8082887350115697 -1.1004990017125562 -2.3026437386930727
Ni 2.276267715138914 6.38462361466792 10.097939194365143 0.36997608848208535 0.3910341947039653 0.016905774616403142
Ni 5.963028396330421 3.7442388561636673 9.890329419553803 0.33136223276462934 -0.632869072730723 -0.06398550171302528
Ni 5.401023648029834 2.1487910036873425 8.056894792187565 -0.7812656910009771 -0.24752138688857372 1.471961187821865
Ni 2.0364743785703188 3.699235214142728 12.305099280153858 1.7070258370043248 1.3924462230146728 -3.4484769455660547
Ni 1.7593582659713245 5.501250700066283 4.115678386211394 0.6616566863863765 -0.15584099036344126 -0.7942099098664709
Ni 7.535387822279098 2.3428016127824978 7.147026556203049 0.6871903118811069 0.22552328535092772 0.031033729377353006
Ni 5.757863116697693 6.324139086420226 2.408639832945554 -0.26521597595485935 -0.18429770304223742 0.5767439476023809
P 0.767880370551772 1.0727090109817867 4.312730178284665 0.7014159685621857 0.29684671548626296 -0.2896625390329979
Ni 7.20249835699224 0.5026393533911334 8.773252866908766 0.7443171388010859 1.1724248413185807 -2.056701780476477
P 3.626633615680843 3.163132765709997 0.2515346126233449 0.4246516256480945 0.20957241844862615 1.225239156906135
Ni 2.190769961010336 2.524594328840196 8.12949639064945 0.15586104496809933 3.0904780840505035 0.006113826207221729
P 7.606202107055834 6.014383876217043 4.623889575444591 -0.024763580097925095 0.8742858893834556 1.0215087990605827
P 6.885878029095842 2.400490599112393 2.7334827203647585 -0.8376846932206541 -0.250199190831053 -0.3321003964822345
P 5.217727755334368 3.13767958569123 6.24043139569016 1.1509234769116952 -0.6563661274113987 -1.7307782022289158
Ni 0.5001526959409744 7.128714381784794 5.40307035134211 -1.488100516585889 -0.6571770533484682 1.395853448924009
Ni 4.108896676490154 8.258259967954329 2.395412795104328 -0.6638945745779599 -0.14646983356118645 0.19782607654597542
Ni 3.570942754393832 2.2079373380989753 9.94590754259298 1.6530239288665725 1.0182656095329365 -0.0162614561641849
Ni 5.9935135518012235 0.47731632647148986 1.7201849328484549 1.862092925316219 -1.227550321537815 0.729831029369769
Ni 4.127796372996706 6.546114280404564 8.510306943834083 0.36153387125200315 -1.7695681785129203 0.7614162603752177
Ni 3.3396551978243068 9.371298108242048 11.098331660503547 -0.4085403219085287 0.1423843506379032 0.36434331567634026
Ni 5.009400305335607 0.453210505999989 12.719044795918917 -0.22302802973289976 0.3471719461033763 0.5760037270022467
Ni 7.286795402952846 4.408386290142735 1.6587306723551776 0.8938481277860993 -0.1055782375531472 0.11435649796640951
Ni 3.7636243353641325 5.414048123653409 11.965312617184564 0.17897449105711113 0.4346755855429998 -0.007419689502838833
Ni 1.4153324615693046 1.0973464427032293 2.085125057080083 -0.7484622713177109 -1.5598414938746168 1.1979494679522464
Ni 7.457314294227295 7.896333529567199 10.009305850433027 1.4893194765946545 3.3425588081749855 1.9259318741490505
Ni 5.139608398726534 1.9045522971838889 4.4333711023188815 0.38300181131779204 0.5246217729858448 -0.9820439081967409
Ni 2.9153469289698624 6.742168843098633 6.035718902191003 0.43810312316731 -1.1932348360853966 -0.18790316100530866
Ni 2.132677683387381 3.6830577338643256 5.850982159693971 -0.3961306353902662 1.1741166271987067 -1.0407231672055044
Ni 8.594522414964956 2.5970676073451986 9.677903063503766 -2.1208014391698637 -0.23360786213127507 -1.4768799652797209
Ni 0.18564323133529462 7.388406477381385 12.259260641842062 -0.696106383423814 0.9009415442977708 -0.7894569685625179
Ni 3.0869382084554013 0.7744732666221714 4.072495971007067 -1.8859823303393066 2.1571139004476527 -1.3120845939364694
Ni 2.010938707150699 -0.23423249957997908 5.995863640154415 -0.6840211701245058 1.215913765740151 -0.32516381726340127
Ni 6.9196811720231794 8.318524519133081 12.224932303662628 0.2958205882145937 -0.25464977040323883 0.910338926352271
Ni 3.9579649100627 1.4942767321856685 1.87637506779473 -1.1688175835832966 0.783353169657625 -0.4471608624942041
Ni 8.444012271252973 0.7091492428577659 11.136670913906679 0.6852820391148005 -1.3154884774116957 -0.9200548680884542
Ni 4.826003589816877 8.819613950759297 9.310830078274526 -0.38894980137111085 -1.306281356991131 -2.687789078716429
Ni 6.445456439941437 7.603974839232802 7.694772207580628 -1.2753070200968035 0.3906341310520692 -0.5460586027033822
Ni 8.043241548775265 2.000810596268186 0.8394068310892058 0.6322643492671884 -0.49698601354644734 -0.12627741777371154
Ni 3.8562621785221016 4.496633757633082 6.9339970963556645 0.8290144191401658 0.9897050242864245 1.7119842094508644
P 0.9170660689945033 4.897193668753054 1.9211678984579332 1.6005685392803337 -0.13635279973184258 2.073996820111499
Ni 4.260864168283874 8.373564614924474 4.935304695947161 0.7847850170081452 -0.6967949248504064 1.5703711897613473
P 8.516778852516564 8.075248212306247 7.5297683247387655 0.8321930739784635 -0.27942517757570584 0.45637235379014307
Ni 9.123283128721766 4.093333298862546 7.505635007133647 0.9925988008944517 -0.8338370373397896 1.2096600715209556
P 4.107659305477358 8.125723783917104 7.357440122072272 -0.23869376129461473 3.1675993518145384 -2.826635591404403
P 2.6934542263863785 9.035319798278804 0.808153589019349 0.4009334560955482 -0.7188413631274846 -0.31172594659094055
P 7.676539774849864 4.758598949608734 9.124791804786257 2.5176792371387995 -1.140645749134771 -0.19229280543257204
Ni 1.3998882381873736 1.8993370075077352 10.575376508224549 0.7801745148193273 -0.9001159630726822 -0.33531041877909995
