# total energy = -340884.11952458374 ev
CRYSTAL
PRIMVEC
9.08230877102710 0.00000000000000 0.00000000000000

0.00000000000000 9.08230877102710 0.00000000000000

0.00000000000000 0.00000000000000 13.29287694023952

PRIMCOORD
 96 1
Ni 5.421220947557392 3.2992303558705083 9.445679098071594 0.9201230023222282 -0.6824180873034441 -0.33695978145706484
Ni 4.879016203792989 0.39541737968383417 6.1362574836711605 -1.1696665618471533 -0.6449774259584827 0.28774166786120126
Ni 3.047423348703419 1.8601567157763323 4.851940025262184 -0.45522307067704826 -1.0251736495066797 1.0169350636469714
Ni 3.8569840120341925 2.5858513410843504 2.7218225838002565 -0.2772875624074128 0.739112711782011 0.22937685476906303
Ni 5.275286412258535 2.8279311956932456 0.5516149237509075 0.12555725177823537 1.0179462785203048 0.6988577209167061
Ni 5.1484065604957125 4.656572300473372 2.8923174981354074 -0.8374306682283191 0.047765697420053224 -0.37005579268008526
Ni 5.184781206616694 4.36558421381417 11.869156925210653 -0.275158688989868 1.1917960467563409 -0.9661375213791298
Ni 5.868897022950468 8.034228391488616 12.418856390068449 -1.1820019434840547 0.19796902988174292 -0.3161245898792685
Ni 2.419672339817038 5.296829648363146 11.730777962473105 -0.5983373575024404 0.3709546503452708 -0.36973517611587287
Ni 0.8204031233905061 7.847432549598427 11.64028002267818 -0.6308744108981974 -0.6658630111582403 0.45672433781292304
Ni 7.833881745100922 0.2865077838049004 7.335833369504056 -0.8115692270805249 -2.142854819425477 -0.42472438786755884
Ni 8.618892928165776 2.3051989216625204 1.5017897059766254 0.5718290267992668 1.7269058637577033 0.3430874916213575
Ni 1.6378036355431604 1.3510569870209113 2.6664177763765813 -0.3305924444781403 0.2732501591132455 -0.08212720561905856
Ni 1.9027164140841766 6.63909496061624 0.4458750535888832 0.8756580871406339 -0.21170257741775153 0.27856231535477827
Ni 7.728336236343889 3.950459132602766 3.8711251665935853 1.1274184518112196 0.3712135604336123 -0.773583748975687
Ni 8.031113159623574 3.8587641445285032 12.846248945565895 -1.3141301636115885 0.6493105061161979 -0.27045768396977293
Ni 6.6164527651656515 0.9971739129989642 9.716654317632775 -0.30060746808027583 0.05703015344111469 -2.14562004087544
Ni 7.017809066472085 1.0623758067573965 0.5319653489986623 -1.4962961650228037 -1.2003807031015583 -0.8286256683421793
Ni 1.8552431867996906 6.669538859192402 9.26754142101215 1.174698467844106 -0.2984055753329506 0.7526845369291746
Ni 8.571637676288756 5.504996162493703 1.2475640800175214 0.22535590653512805 -1.6789396202910698 1.007122962652556
Ni 6.20364367265858 2.1672477356621265 7.068287629687016 0.10545585304267 1.481272437920462 1.3635503659159292
Ni 3.7215940370715304 4.7370233904458185 0.4996314219935926 -0.8996657629091408 -0.8486825869930545 1.2984762591244154
Ni 6.006112541950662 6.080605637452356 5.054177608309652 -0.7046231626455736 -1.2814385869158382 0.6358027014377502
Ni 6.430992022646194 2.4581268346175955 11.695471395848712 -0.25239568426173953 -1.1326287923675655 -0.21437369649201143
P 0.2893569040266611 5.783541486310024 12.68060670873947 0.22856310061851606 0.08524981040844028 -2.530779007745551
P 4.305722717538668 6.3443558804868845 12.526489013351974 -0.4937585077480851 0.06726417246429707 0.8176072057444886
P 2.383334022930635 8.42811903508932 1.4829402826159552 0.3009741073910752 1.096772959011221 0.9576935043768345
P 6.709037819487071 8.054763491333695 5.887999842722317 -2.422308279135957 0.19216759270861744 2.2232403597630808
P 4.627281855095054 1.035755560120544 12.895127205997676 2.075140189687323 0.65449719252346 -1.0462906339909528
P 3.9074453188626994 6.0695161385974945 8.631144962527125 -1.0026574706820346 0.7413426295537942 -0.46607672556210056
P 4.95655187269057 1.005702200816093 3.9778668153990915 -1.1141641579044745 0.5156607071378151 0.4552554665768805
P -0.03352643413008458 5.99009134950187 3.734248417705828 -0.5270298682067053 -2.8964875792005342 -0.6828243216029273
Ni 0.5320943177814134 9.618346500634495 5.199163042355163 -0.3030428169946458 -0.24681279085732333 -0.8030997561569331
Ni 1.1352976628636027 7.012350598976777 5.082279179486413 1.5731065864146392 0.8681098424797307 1.0061364303695703
Ni 8.667374291709795 7.423170665890717 9.540550169478816 -0.5376901761340288 -0.42847331338702976 -0.18486900216467517
Ni 8.513965016396565 2.563745001843784 10.435426407291999 -0.055515773679117295 2.642029098872495 -0.26415591012146117
Ni 3.6274468256632693 4.270474277689597 4.999185137698434 -0.2152769250325712 0.5819002949923398 0.25580342439170783
Ni 1.4946573689981468 1.4174304985944766 7.377107921138712 -0.39195027876033145 1.1591422652770618 -0.9170610755674529
Ni 1.7267557664068023 1.2510516865369863 11.484620151282856 -1.1379969986580145 0.6399545188225946 2.6917184956778226
Ni 4.219150151539869 6.9293382979665985 1.7540617273463104 -0.06636711457132441 0.41782508964456433 0.06964295710911877
Ni 5.775712536258516 7.717428383661916 7.936246629370673 -0.14946594007503292 1.1778005038081973 1.010008768840783
Ni 6.9884096333900345 1.0435572632461176 5.096422150507533 0.7177543007108929 -0.5261567215731326 -1.4733560112868627
Ni 0.7378667353532962 8.158274562954373 7.577192088806582 0.6123223589276229 -0.8544567704726703 -0.8590436185124045
Ni 5.251790479795369 4.995905516046927 7.473613808101935 0.9004862019279072 -0.9251654498421422 -1.6233716532177784
Ni 0.21307277726028345 0.6369822673925892 9.75250491454497 0.6949115917847646 -1.6914254114629064 -1.957244053998771
Ni 4.431984972313669 0.40385302795278977 10.800408970708318 1.0286685500338153 -0.3026584370720336 -1.755381602599893
Ni 8.019251664533936 7.7180005691065166 4.446839088101649 1.2487261842844817 0.2349569199600018 -0.7564967115864133
Ni 7.49281380857628 6.349396561784548 7.157722031139678 0.41397949064622896 0.7476762850813059 -1.2298740845749851
Ni 2.442005736773715 5.42377307628648 2.9279955311833596 -0.020987915105576755 1.2617670766288398 -1.1864440384158084
Ni 3.387737453610573 4.144793290667842 9.806753544078209 -0.11717005615580466 2.292886659306309 -1.817078822499374
Ni 1.323637497223348 3.670787602514535 3.947665414463736 -0.7561755808015687 -1.1399512941709078 0.264863477711447
Ni 0.6685460146246105 9.430161065521705 0.47366146865568187 0.5254244713927984 -0.20885713754915644 -0.017208136348170363
Ni 2.205793053549128 5.573676580462957 6.839902988283073 1.4457374782386456 0.6318781695723634 0.2781411686569597
Ni 5.634845929183257 3.121008213340669 4.6738286868978065 -0.929367660848948 0.04515962725577383 1.664466109265243
Ni 4.067003317128216 7.005784089826847 6.515476565887636 -0.14877662731749217 0.2175202125407931 -1.3352430343308035
Ni 0.30114392418541486 7.399892708835018 2.2200568192752206 2.086837166409277 1.0585041453380093 1.1392203295421541
P 0.32960061363017323 5.889105159684346 7.898295294469018 -0.8473278727373731 1.9267826521851203 0.43038030060175564
P 8.454439565540907 2.02309333285758 8.08293317982529 0.3949304444345779 1.8471627863689477 2.9147624662503224
P 1.7499156534501237 3.35366971388528 10.791915195664037 -1.170054027093559 0.05161001086680789 -0.255699808934308
P 3.423975865101887 6.361448785355719 4.536380660796315 0.8802881297134775 0.8541189275172775 0.06520857548684898
P 7.065164223744194 4.462846657087474 10.521086201272032 0.8770271995740185 -2.4547777125185726 1.6761173203509263
P 6.687167620271259 7.879175218310743 10.037385148640787 -0.8841650961703804 0.767189158303253 1.0843802417738226
P 2.4022343072197136 -0.17066384527593687 6.08642285613912 0.6430488414772022 -0.15884481018677157 0.053917833064378105
P 6.876878883236315 4.092333875937558 1.64043387212659 0.13341120060501538 -0.8865608500960668 0.37144033173243773
Ni 2.930806505708813 1.8577680686028448 0.6204942442794735 -0.9244342281030723 -0.045260671610012376 -0.6654701465951958
Ni 1.1530808231894154 4.116220347672434 8.452435100023079 0.9503933711709953 -3.3459385232804957 -0.39467230567718486
Ni 7.672934153612807 9.330164847346424 11.578640210370096 0.9562302895677467 -0.8136479639864246 0.2800931501770079
Ni 2.5619467047321853 1.7150214236381864 9.36881915293716 0.9033923198311087 -0.027446783357043054 -0.4255476550998026
Ni 6.304475463229149 2.077096740057418 2.7708071072431775 1.8316428363564778 0.0842787047444226 -1.6853606933260652
Ni 4.08315166189803 7.100394498975975 10.56961842574446 -0.6845227923512727 0.3509859205328278 -0.6194440575740687
Ni 7.273367067109328 6.12768832546513 11.894785383743534 1.3741847057013237 0.30490018191835877 -1.7939422364819102
Ni 7.464031972482051 4.435236438808377 8.417953207023599 1.4485942309611504 -2.0317086008662493 -0.490187245457059
Ni 3.2816470063348735 8.517261894434496 12.580059194429472 -1.2242320557978594 -1.4751143887388658 1.2062829275186062
Ni 0.19302630562027623 5.1037760958169365 10.249672306203328 -0.8814099020227465 -0.004771967467346621 2.046999722697365
Ni 8.582336635871906 2.6462577758785186 6.090942212920593 0.20067614440026083 -0.10296445407938397 -0.8446055887102034
Ni 3.777868021432479 2.4815682732288944 11.336603950842695 0.6928313122169681 1.1803649221012638 1.8487039056038226
Ni 1.2580450641932046 3.4423402931809446 13.061926528945406 0.45570309563726036 0.14985597642459997 -0.8884040739523925
Ni 3.1799069848998602 8.452568609960153 8.173032406270723 0.5046916097208212 1.2218733257576957 0.9345178375913196
Ni 5.59759938143241 8.031639933524952 3.8596796412398624 -0.9085998321739771 0.7084535921352573 -0.8534296147597367
Ni 2.497780194159219 8.491522631736155 3.7268445196988815 1.1963322440637978 -0.5956122452617936 0.2594873010011982
Ni 3.7080069033394487 3.0828897639599555 7.402590154502416 0.5507981742708965 -0.5118588168932217 0.24033412511151508
Ni 5.915925217111376 5.906724838454559 9.632297834943218 -0.5623054035795477 0.5819200924866818 -0.41735894864142314
Ni 7.826479663555705 -0.025666604229186495 2.6089930635103826 -0.45244319393906596 1.364408085930534 -0.46201361123632045
Ni 4.550309289333428 0.38727145706063626 1.7302542716966405 -0.02742338631827535 -0.7943590338498255 0.5141440133829726
Ni 6.030316894488093 5.702227577016355 0.4802334271907984 0.04261552067768145 0.7162782303859987 0.7049553491740117
Ni 8.106905025261423 7.710280606758743 0.3312408785713591 -0.1302708552038208 -0.0740418575077628 -1.0226537112983034
Ni 0.19502895467637515 4.879951681583365 5.806674126427411 -0.8427806196863228 0.4943418910553809 -0.05266930536925768
Ni 6.900511050329147 6.1903017612598985 2.775233824476478 0.494254216437581 1.0545685577290291 -0.050499808521764646
P 8.814235222490385 1.960961259420968 3.6118742992615127 -0.5537451727143624 -0.84077978720621 1.295762202627362
P 2.02114971880767 3.6988337716085646 1.7126672892375479 0.5427274814476202 -0.9957545729146142 1.0926697354761248
P 4.651413549163331 1.3378603925605403 8.584698944350325 0.24843310006956568 -0.2970104947576369 -0.696076301516827
P 8.80150182577088 1.8436178317348078 12.485653137224844 -0.4239219465709215 -0.36028457222593435 0.8117476616399182
P 6.248601100448556 7.977709184794269 1.2776664837886522 -0.37140202229533453 -0.2084051376134024 1.973363585268453
P 1.9737673146096282 3.5082051954704205 6.291159890525536 -1.0911278449103015 -1.2542895373048721 -1.0532341551883215
P 7.01992524438624 4.2919085260904755 5.94466709104757 -0.6343137755970495 0.1536936050031353 1.1435516099276564
P 2.3557964631206936 8.661597943411932 10.399455923905697 0.2391071946829495 -0.9540361101299053 -1.4758481815810969
