# total energy = -340891.0379104942 ev
CRYSTAL
PRIMVEC
9.03251197191938 0.00000000000000 0.00000000000000

0.00000000000000 9.03251197191938 0.00000000000000

0.00000000000000 0.00000000000000 13.21999429120808

PRIMCOORD
 96 1
Ni 6.344824834387761 1.6604286179175152 11.357759706974875 0.36515295606182924 1.0148820377726846 -0.1469498585213985
Ni 4.688623432091289 0.2816942423265671 5.867787164557675 0.027532915312946132 -0.7040816883198067 -0.4903407403157878
Ni 2.7962489382489757 1.4191702221096034 4.807794782556706 -1.0169798008419775 -0.2329164924912053 0.36954954246762806
Ni 3.5713920214780126 4.465150052432602 4.840197112892973 -0.780583834442604 -0.16968303845285615 0.24923065627019658
Ni 4.8886664755940155 4.396801034047036 2.5490923120980247 1.6199705979560293 1.4254321910223902 -0.08152711014121443
Ni 7.219885565480036 6.1558375855862275 2.6115566489085684 0.46356295800131136 0.13988318148260426 0.48799023780574025
Ni 4.8962266881470375 4.44496238808851 11.671457042606834 0.6375911607967406 -0.11206333105685862 0.2377447671177841
Ni 5.775017846699766 7.700189391653219 12.245085686126588 -2.3333805056552976 0.7710784660553301 0.7798243305687602
Ni 1.706413136564392 6.302516548129271 0.3690955382964696 1.596516223587831 -0.18102957381392693 1.5294993912476498
Ni 2.7036837551625106 1.4075815091997737 0.32461402964818653 0.6608997536156941 0.3286630886659114 0.8742763763017589
Ni 0.37174206431562795 -0.1638551873827408 4.75271994382218 0.9918490672126209 0.8562442013903964 0.0992371258264678
Ni 8.57577400844212 2.6164658191864265 1.7219038946628784 0.24971968009147316 -1.3433659205482542 0.205729133443136
Ni 6.900089477738399 0.7423234508378709 4.911201689809708 -0.2872400456344344 -0.040632685919697764 -0.5386605104670982
Ni 0.5315001042502794 7.542138496488605 2.3752498761849656 0.5967725841184819 -1.236523728681019 1.600749030722256
Ni 7.565821742980868 4.161513128678249 3.8262895104222014 0.9727905079192729 -0.8696545612590314 -0.08345389485028208
Ni 7.487564058919478 3.6768827292519024 12.41810887320027 0.6331086995453549 0.3644713566137723 0.11160104670845941
Ni 8.155129924100134 8.58191611660945 6.8480098199866495 -0.7351249307788564 0.8771130744196056 0.5503901401992005
Ni 6.89186989180859 0.6871618999880424 0.24931629977272804 -0.4138321664350873 0.09464410713914667 0.9936110442090499
Ni 1.7311712519859377 6.353550240990172 9.104319578013675 0.43940153026375944 0.8335950965323128 0.39920464632989955
Ni -0.1112651927023812 4.816126371635448 1.2693840754348522 0.7610874162808893 1.3993979717421574 -0.13813483133292984
Ni 6.319533800757578 2.1553651135481604 7.110334743557301 1.148503554616293 -0.3307791065676497 -1.4170825335061144
Ni 3.392421828496434 4.331911467761598 0.5482210904846337 -0.00287269356210473 -0.8417871454248019 -0.6342461555839076
Ni 5.853925871625933 5.642601220621743 4.877847332707504 -0.4567423355350521 -0.08068404541462879 -0.748794200735833
Ni 5.08450036849972 2.469561043843114 9.371799356188877 0.716630728629411 1.973601669421188 -0.24766408311402505
P 0.12410219877210055 5.66063914710727 12.374946111305562 -0.33304707666621997 -0.5531430203539892 -0.5363634869028053
P 4.126737957436749 6.067508650632818 12.807213232103017 -0.19146311044242512 0.9993237783231113 -1.2053354760036725
P 2.0779293880797507 8.412141020854845 1.2409181138328815 1.2938392745730363 0.06160800261978421 -0.07542973899422493
P 6.347254580118659 7.71260909566804 5.763150932420005 0.45191431801878945 0.40514775128721187 -0.0262591908068451
P 4.675932752716144 0.7200537924752947 12.46312330005719 0.816577993149026 0.7956425285479394 1.1153535502268856
P 4.130242572096932 6.4139054862461995 8.178840268128429 -0.29878404171829187 -2.434437458299324 0.9886688697124262
P 4.654354081522393 1.0850034077588169 3.6710730175265693 0.9423491607102803 -1.5658347353435744 0.6003227633635854
P 0.39646043668432623 5.586265443210514 3.512460300114885 -0.9983981811850483 -0.8365685773383399 -0.8075657623480866
Ni 1.2882710580493915 0.9321191094643683 2.7051542481178656 1.1425000287346905 1.0996793340247384 -0.08902547540078862
Ni 1.8826645434307263 6.46271718115245 4.7300474354239235 0.5953157970672973 -0.9024237852702521 -1.0440560882334793
Ni 6.0834239367958105 5.912610102159965 9.239731385074471 -0.7399349505729902 -1.217597066979845 -0.28076729342589707
Ni 8.467754197305212 2.6007311832636497 9.958502560844236 -0.9905126077893845 0.05029283471728112 -0.13719792134095726
Ni 2.5255084232378806 5.075910449577469 7.1259076975150855 -0.34230330515716534 -0.4658044457373203 -0.1483693645767445
Ni 0.20417812750126124 0.38590775290213297 9.524265449177227 1.0764303907991268 -0.7834174472366572 0.06571945368499649
Ni 1.6124027515562023 0.9408535485787919 11.495009630229866 0.09638551531028561 0.7380896698341353 -0.40748925493619503
Ni 4.027488715462307 7.041457323219105 1.5162670164718763 0.4380247045208908 -0.5286671466998122 -0.3866414649529083
Ni 5.769544144421234 7.879611210235337 7.8426032020247725 -0.21095644328034635 1.0748597038778973 0.3585971572211824
Ni 5.158323089163818 2.7559729671929114 4.932683713124945 0.22933391734626954 0.17015226477979084 0.11054072376474512
Ni 0.9093120166371509 7.049315608668482 6.781605501437003 -0.42406335724479227 0.29642042658212175 1.0525345580181356
Ni 5.09494195238418 4.468618537044741 7.098462409770334 -0.07561948640752783 1.4328847906456934 0.65318155903583
Ni 8.186626293481721 7.297059348100134 8.954933571621002 0.17996410866389007 -0.4663808870660806 0.17319850780528237
Ni 4.648428753643322 0.23907794740850982 10.263342615198424 -0.08932346625718166 -1.2345352374960803 -0.3773209588829308
Ni 8.148743938108513 7.0043969264388775 4.617677566502624 -0.4364023384261194 -0.18291290687956885 0.6356900871192858
Ni 7.128088145914488 6.0176311193092955 6.872294631778829 0.6365688901798133 -0.005619660179622579 0.6005945289677335
Ni 2.3770861858767574 5.064014631259273 2.5775420151783766 -0.6536541277968743 0.41948525095580663 0.1494803382527361
Ni 2.4175066771249942 5.287894473958445 11.365057073428384 -0.7359787941387196 -0.7863253649120716 0.8537373758081426
Ni 1.1876398417373004 3.287048543378684 3.922425245506527 -0.05386152590514595 0.06719089602420042 -0.08574114822256201
Ni 3.608768556178617 2.6077765426320574 2.7049428873368133 -1.7740262142842738 -0.1187793096244535 -0.7877512987253207
Ni 1.1823738872350162 3.3213811215316555 8.40106806438083 -0.15131044948293942 0.3281954050008735 -1.5166238208365623
Ni 3.75034414943557 2.6673549918551567 7.157238771926875 -0.6994215638399761 -0.3042736040779534 -0.010285183976091964
Ni 3.889038371361084 6.833727611995204 6.068664812170198 1.1445882787222867 -0.3762066427728295 -1.0502925560614944
Ni 0.9813372674111042 7.6979131986265035 11.93573840827902 -0.554829921138109 0.0948960752489527 -2.041371834987626
P 0.01659001481019812 5.37339623265248 8.001784967693135 0.8261849201111707 1.0118190825766447 0.8132147331037479
P 8.614270574632062 1.6851777008270503 7.836204570516336 -1.4015127040923152 -0.44486229626801455 0.478690300561053
P 2.041465137092235 3.2099650858786943 10.34025626147261 0.30753941931341877 0.9088798253082412 0.7415377762837358
P 4.122709457079941 6.1489096488739605 3.554380188356911 -0.7705303068613439 0.2501683375931176 0.7352730263209466
P 6.547658924101817 3.954198913006845 10.354375884247862 0.593775706273687 0.14298958832206987 -0.5881982121859096
P 6.321602246008047 7.846660606420014 10.14579079413654 0.677654861586846 0.02297949161430881 -0.4446409242858278
P 2.314834113098467 8.29498934007504 5.666578927005557 0.3673013698633997 2.482835389986737 0.23627409610952857
P 6.833411474074827 4.145227509522814 1.4904222898554338 0.038368315365553275 -1.306237391127073 0.3434711002130214
Ni 5.379131877779326 2.8437780164496957 0.3951073663851115 -0.3528540840898181 -0.49338878311349216 -0.2746012738245013
Ni 1.4162978832901756 0.7927591914036597 7.150469807425997 0.06951980126769317 0.6494917688890686 -0.9623793398882781
Ni 6.842507213669682 0.8726391146221864 9.058128214841751 0.43635888678269363 -1.3971626546537357 -0.05750375064342355
Ni 2.8245568308907574 1.4255923381492672 9.148064033681878 -0.857495300188678 0.25019996216200135 -0.41452919250211195
Ni 6.321105457847454 2.3116546688706725 2.664635302488711 0.05869751384120859 -0.8814309850686691 0.30329195689097443
Ni 3.7926072731340055 6.963705459830317 10.536811852087975 0.6835372885095519 -0.17159182543979482 -1.1314967356456513
Ni 8.318844204295507 7.433504474534964 0.43234389714954874 -0.6562342298192247 -0.1959388868255916 -0.2877956610275882
Ni 7.396696988091039 3.9665192593895475 8.142471761768228 0.6026555252618201 -0.41379025745355835 0.7049990579277535
Ni 3.2153574955491298 8.154940241347907 12.519652373225448 0.5190820741145383 -0.03085066683226945 0.6680569334857656
Ni 0.13197583949189676 4.790717915349127 10.330804640904532 0.14796852959390003 0.431780780493708 -0.3019423848416155
Ni 8.570354501235652 2.5792609022140276 5.7352567288283165 0.47091065661563414 -0.3929949179747619 1.7470566276739652
Ni 3.7722479910617093 2.2519858945274653 11.27736944682774 -0.4369165590583766 1.4541809810203086 1.1826241504490858
Ni 1.2449420979336838 3.2195756786581637 12.484605323372424 -0.7297027313220208 0.6439325296337362 -0.026514758461076916
Ni 3.265930530297482 8.355001349874657 7.819163833356801 -0.661075617071926 0.2381898250750027 0.8979063570158731
Ni 5.680366153338811 7.777778669825813 3.7110247214014467 -0.7113437691988588 1.2229210502959196 -0.47237052899061227
Ni 3.1823346316377212 8.208087542019332 3.3846358031431425 -0.6627362926038005 1.0555712879619303 0.8532709776946854
Ni 3.8367130292826404 4.544970361071858 9.499068353671957 -0.6360968356394012 0.1226544763091436 -0.9836045678156415
Ni 7.270991518437025 6.08805761545734 11.364118595430464 0.3817923643907231 -0.5211965493543798 0.003540151942774548
Ni 0.3964017253562562 0.5825292808551763 0.49183653750854583 -0.6336334617005733 0.28271978916657764 -1.298292168138067
Ni 4.699543739112321 0.46251068076314905 1.5532696051752342 0.14609676649248385 -0.30160737009969996 0.06660082784868529
Ni 6.455789244440183 5.963824445261084 0.4843738760852401 -1.771501390979891 -0.6817056346174518 -1.5531268008586026
Ni 7.786079548363719 8.598147540692821 11.555266421104974 1.4123861564717095 0.8559248703777647 -1.1062269053352691
Ni 0.08727574405295276 4.939799526087037 5.781315314073681 0.4674399244582143 -0.3175865191367756 0.06232534040178298
Ni 7.935504394558039 9.184529187920594 2.39983908363191 -0.7088940221067855 0.39322143216327116 0.6262772784458183
P 8.535741915210348 1.708869979831324 3.8479169571808107 -0.12750589086417394 -0.09009094055082549 -1.598351477024357
P 1.7660819109075994 3.139502459682606 1.4804278153155066 -0.4350653647822508 -0.5365565767502178 0.5426266942036977
P 4.7950896511623435 0.9723408854483679 7.90114110586423 -0.44155174383754275 -1.4227253336141885 1.2371071119883146
P 8.629580682490332 1.692629523235943 11.84199538562635 -0.9520926132502894 -1.124535988057102 1.60282879606942
P 6.314999479728168 7.929868107063312 1.601642319997761 0.6355209085312732 -0.13304096174979024 -1.1601581081360859
P 2.0280157267081846 3.1583713772731237 6.098885790855863 -1.40306179374699 0.1923696814170945 -1.109785569220805
P 6.802339632757747 3.93037114632241 5.901339333672915 0.4625735975048485 0.5765205187376652 -0.37312491852371227
P 2.2730406800245917 8.557302521380077 10.033393827679209 -0.09979479810215071 -1.5388018995954984 -0.007845464186347779
