# total energy = -381173.95460084564 ev
CRYSTAL
PRIMVEC
9.14563417856740 0.00000000000000 0.00000000000000

0.00000000000000 9.14563417856740 0.00000000000000

0.00000000000000 0.00000000000000 13.38556007520143

PRIMCOORD
 96 1
Ni 0.8624561712775775 6.11585022607459 8.876084945165966 1.0051645533746045 0.3122841330872557 -0.6719644960702879
Ni 8.226333361820714 0.316899884067088 7.286081682155358 1.171217451274041 0.13559329585799873 -0.4279053566987018
Ni 1.0673503875837964 4.226252448072916 10.127876252680537 -1.4948964564617997 -0.0501100292825137 -0.6520950108398704
Ni 5.389696014433665 3.3373425298064423 4.883347061135499 -1.7533090363415804 1.4115939995877174 0.4007696768241743
Ni 2.9206217064532676 3.4318260769602156 6.207312970244635 0.7346428489361154 1.0515364557709244 0.577165865631148
Ni 7.865172266369888 5.998145913629613 4.37849707728642 -1.065783195497926 0.5360608680607218 -1.9669103734439413
Ni 0.29915552454838223 9.07076806086264 1.2429602831092212 0.5627823432159662 -0.13990015076346873 1.309016496534107
Ni 7.497600081329013 3.6437395675322866 3.433543627067221 -0.05142180611540177 0.7412724384374911 0.9974730982676178
Ni 0.2847264574353721 6.469118639191304 1.446658250459123 1.941401944760192 -0.7212245186476804 -0.11221296926084545
Ni 0.9730954812855888 -0.06090352197861956 5.538984774666421 -1.288064576872788 0.10196635183217279 -0.8499100316422524
Ni 5.186260526785952 7.014134419419238 1.0901120420370254 -0.8274828129869877 0.0283528401110802 0.4103879166402287
Ni 5.6924896722758005 1.6270814932759075 0.1965149862314646 -1.1128174140685934 0.37709161648094414 -1.684404242950067
Ni 6.574567801777986 8.882724675611579 1.0083784235529918 0.21504938240279736 -0.2747843363695848 0.88428002448169
Ni 7.4494208802443085 5.3144640273184836 8.636483961548366 0.15905744041820993 0.6744327551051224 -1.0911658972370886
Ni 7.321775263399356 6.787441583943431 2.2595761794065172 -0.7256951528245243 -0.6510238892628789 -0.5953890735073939
Ni 4.1655162912005705 5.598874960373176 5.763781720167882 0.9397081235430074 0.5914889671220394 1.1433214961947213
Ni 8.751987834399385 4.244205328051898 5.508881005059282 -0.08213234782538115 -1.073005681388294 -0.438558979757806
Ni 4.260292498649467 6.1054516399634835 8.28349357571202 -1.3616438929218355 -0.5632243158493913 0.12348519974055508
Ni 0.7603808331556171 2.1824318401753886 6.413878093923325 -1.1841400728729798 -0.13819988024291036 0.1013271755862771
Ni 7.905120396654244 2.943824180476026 7.898444083671739 -1.2241862901615885 0.1947772624173226 -0.12335458769996174
Ni 5.66994568391707 2.5346302140880583 9.858063580971974 -0.41924151037611673 -0.512873117090349 -3.299986739140729
Ni 3.6805781821809553 3.4553029200096526 0.2285622031109085 0.24343358997244527 -0.6261677494511474 0.36296443305094267
Ni 4.488558383211562 5.625397299618742 12.490467941407099 -2.1783982637477255 -0.5390937413497748 0.3337628717863219
Ni 6.154362491785996 0.6308841399440084 8.187960109749492 -1.0986552636355982 -0.3232763704327013 -0.8582512045180961
P 7.388648140835073 6.532077185179745 10.827017004518144 -1.045633460022928 -0.7057179383716491 -0.5283948668750319
Ni 2.304004755896529 4.258042672630705 11.86928366111959 1.840550166148437 -0.0003568691187864821 0.7377163456551166
P 6.405968034884189 1.2834525786298223 11.28212662752072 0.6428850622058282 -1.3960521951983764 1.6706799513854391
Ni 4.4127227842376895 7.13841444287027 10.848581495451633 -2.1416127194882604 0.5407883554433783 0.43295577463841567
P 3.3509055053585715 1.5794327389761147 12.53945927481077 0.3678384733137923 -0.5371142490259008 -0.31108419924188363
P 2.614435018314543 6.550981211117877 3.2819117553466324 0.055529400525872116 -0.23051611057982882 -0.09982179468534422
P 1.7465051849547344 0.8012837676528132 7.650757444837933 1.4880038431070244 -1.456489317438511 -0.09439805256661161
Ni 7.981779102708152 4.408890763498417 1.248171465489264 -0.05301743273729579 0.1170201608415017 0.07390970280527272
Ni 1.9295916364571424 0.863643274599672 3.4052333163311355 0.205889056059768 -1.0598344341136585 -2.0087846450802247
Ni 4.9708076757697315 3.4555315608652175 11.660871119327933 -1.404981379367206 -1.0657569702456806 2.1221700373826167
Ni 4.019643425349958 1.6804919971359433 7.5842046646000085 -0.7794386650945673 -0.04412732933651755 0.7440769977658217
Ni 1.4069552231719333 3.114545734509467 4.506302742730268 -0.197053460046009 -0.8606130198820533 -0.9834474734124871
Ni 7.49762751823168 2.0465917350669782 5.752377114292288 0.0771904304390735 -0.1668648522777707 0.8880058100727094
Ni 2.0496829594342203 6.418031126423811 12.936152988343276 0.09574916727786736 0.7414035646987166 -0.5636248937219197
Ni 3.3303461196261472 4.383209822601331 4.129873925508219 -0.49716444810584054 0.551642781659379 -2.478345986756816
Ni 5.30025171173655 5.447990286968574 2.928358913005594 0.3773343286193695 0.043093231645048365 1.0402613970777375
Ni 2.8402590185392027 1.2212256833791915 5.397285061711585 1.3626080566073178 0.1596076564947251 1.096839293472782
Ni 2.920585123916377 7.710583611105129 5.1375517934797585 0.7795764762240122 0.0689767842800296 0.32361472760872656
Ni 7.11713255203426 3.313947997465009 12.629864783664683 0.5190831025558028 0.2120689596182348 -0.08906687016168532
Ni 7.844686045711244 1.182740854570453 9.506063667321934 0.8270246424036467 1.0029837436732016 1.174156736408023
Ni 5.082869131899358 3.0912152216075914 2.1553561900593547 0.4547134780304814 -0.23681916997972116 0.9196607179738291
Ni 3.4677135456497328 1.0587260545118762 1.3528651986891573 0.5205794845956712 -0.2312157077500147 -0.14288391598214104
Ni 7.751903586522877 3.753121352834689 10.181325168204308 1.4895750442488862 -1.3434422823121444 1.439703870450056
Ni 8.207164112490126 6.2663599284760645 6.528231445989137 -0.5520564721580299 1.1192264029187304 2.29098918517328
Ni 0.8760584730568636 2.4237485447731473 8.769322469504917 -0.2558093379289788 -2.604931165578933 1.484559593312166
Ni 8.850897868516899 1.340475608007789 3.911661836647037 -0.6126820562598867 -0.6612129139807387 -0.18682226923630404
Ni 0.7778563110281781 -0.15359452482476096 9.419806618151398 0.761076874757928 0.678190936595974 -0.4728520966127212
Ni 0.9709919854143888 6.324782239890091 5.139881186516258 0.19318394978827375 -0.6363531746245815 0.5576810174336588
Ni 0.7186941178055433 1.3335340716328288 11.149274401112836 0.3225451486936316 0.7269717055441028 0.19491353088487076
Ni 2.529618406534068 9.004078096111376 11.157145133924812 0.09724477798678736 -0.38925499131635544 0.5466224456266522
Ni 2.3440443425231106 3.0490721391098097 2.222444904462725 2.155055218146411 0.32226052757367724 1.3823284178543807
Ni 6.693241551450559 5.946043235463411 12.902970798256808 1.5499473746893564 -1.150578691977767 -0.5224481623732937
P 2.883700781096595 5.722661119576188 10.364037563267011 -0.47229416722672213 0.09238127924689896 -1.0086951922356822
Ni 1.168665723501858 2.0004245735112485 0.5220337159899393 0.35793921192220934 -0.6786799604172505 -0.9455257586660489
P 1.033941385768606 8.360874786869514 12.606092536629854 -0.24226245248247952 0.37554149838500483 0.3190602754688247
Ni 4.310309972212915 8.113549400587502 3.158095415550686 0.06204329038498992 0.7345086373510964 -0.5505318079833874
P 5.58767155845048 4.780066328423 0.7803914808346853 -0.7566412075840775 -1.2323518566915164 1.588127999524136
P 2.24111937498187 5.707909211575119 6.748076030559055 0.475884969901774 0.08687886137143103 1.3585359434204731
P 6.721090007658403 4.045114016659924 6.27516443054217 0.6397118066841693 0.9670934575344957 1.3877737572396678
Ni 5.637899381601048 7.431358252654657 4.899383016181422 -0.5787378381039581 -0.9482459858106894 0.7181587352381632
Ni 0.6481858507663399 7.748730051447631 3.421643327816762 -0.39709711306859347 1.0812897757739572 -0.44712358149836545
Ni 6.28646203249736 1.6186400728884394 3.944978467556579 0.6891368940845164 -2.4163263505209094 -3.6694910301927193
Ni 4.5119894980898865 0.3201346948916248 9.959820651022985 0.8612840778071489 0.05520338464502106 -0.12782522187680564
Ni 0.3341192841814161 6.873566021417739 10.89275399418341 1.991234037790971 0.7224524775175106 0.7260669343416463
Ni 1.0032303460490852 7.774017730073146 7.323641887344191 0.855081805651179 -0.5750858431736676 -0.3764524402350485
Ni 5.0978588263902145 4.037815800550282 7.809055569343382 1.2014006597256406 -1.0511142806318414 -0.5870558710513503
Ni 3.2065691060573576 5.415102586304072 1.4332589817595787 0.19302171317879663 0.7608040807125156 1.1145973887871514
Ni 8.867789854926059 5.335434966590926 12.436751058800606 0.4555128340033252 -1.3755677020917791 0.08380227932863632
Ni 2.7930035265109825 7.822434717647637 9.05498361075784 0.27506715771732626 -0.2842670790490395 0.09135618041649428
Ni 8.337361361283186 1.1958374027772292 12.955187796850792 -1.7775990192371964 -0.074190210160169 -0.30820559214250787
Ni 0.7895791849747182 4.885780714402136 3.1418582565518665 -0.10898854878627681 1.0457992961768312 -0.18967773640722818
Ni 7.571679718532145 8.58742129219776 5.151606804153064 1.0314620536185526 0.5713793408563579 -0.31892272144969586
Ni 4.086516302785674 8.365337856370147 12.9114707507033 -0.834063551528299 1.0654003582372102 0.30387945396332827
Ni 3.0425330106406445 2.2846068657103755 10.438862569659287 -0.04365424635484094 -0.29492455876288565 0.02884752035931161
Ni 8.286959771082389 7.567628202571529 13.342900497576696 -0.3334880208583805 0.5238782099516011 -1.4197042873996777
Ni 8.199271430156013 7.671129345068795 8.903458742957655 -1.2000803982523203 -0.5196906542328147 -0.9032347112073219
Ni 5.881255562630449 7.355778731439016 9.343924376442992 1.6360747026067437 0.9526585130560883 -1.6244659147232217
Ni 2.8104716878761655 3.7000766743435576 8.517807468185527 0.9050661079891057 1.188373137117721 0.5694049907388065
Ni 0.6785493563854015 4.273864619835819 7.55086151135122 0.4140280844959773 1.5409765386493137 -0.6349128426336291
Ni 5.7311939963058816 4.861855735275791 10.212365450755843 -0.6314020012668933 2.6898508463414643 -0.9205896575460017
Ni 4.417341329520107 8.410489852527167 7.206303400268118 -0.2490301102236163 -1.0641628862856833 0.2041057389071001
Ni 2.575977626408473 7.970228166684997 1.4649156800577172 -0.7006639208875094 -0.6099242910090915 -0.015993032994146648
Ni 1.3374026749089925 4.269776521338312 0.5398997124438057 -1.4652359532828896 1.0697192973275382 0.4668110326249638
Ni 7.412399352911189 1.8508202888978118 1.8550647777405245 0.8706624336982554 -0.1401284647241909 -0.6156095143193269
P 0.292841378681093 2.8796218282333115 2.481535234608702 -1.565858132382342 -0.3418669889506951 -0.6045105761926879
Ni 5.134258450596198 0.7529792713792597 5.560723032650141 -0.16282282099791312 -0.6537155771624289 0.839737976205257
P 6.615412204216157 7.740480689378838 7.0849902205589 -0.26964084449543235 0.5620233535627546 0.2568948576836737
Ni 8.07340921198447 8.684776568497432 11.11183491829574 0.3821502619507741 1.2552747840362768 -0.15210954834546708
P 7.480323978282504 8.732772856897682 2.9604171046461056 0.7832325849193609 1.5377711443381388 0.5859649519800167
P 4.108301203503929 1.460795571840432 3.4642500939696306 -0.26118757152175665 -0.2894601932142047 0.4269586765147163
P 0.1987547520525815 3.205307008534638 12.00272486637141 -0.418720347765324 0.4737147017233325 0.651284342013117
Ni 6.238410870291772 8.019020125262616 12.209438149324505 -1.3588501322267823 1.146179791579123 -0.8114470996803639
