# total energy = -381167.4168334867 ev
CRYSTAL
PRIMVEC
9.26550056822808 0.00000000000000 0.00000000000000
0.00000000000000 9.26550056822808 0.00000000000000
0.00000000000000 0.00000000000000 13.56099665275045
PRIMCOORD
 96 1
Ni 6.903816905272089 6.429488150012337 6.472826600969537 0.6557233516210772 -0.32034608415978383 0.1985552414025161
Ni 4.004669667671036 1.1937485236293237 0.37390370404653267 -0.4513916127461 -2.4935666603613122 -0.10372498639449232
Ni 4.809322773013132 5.339466901892026 6.054564314386211 -0.5120943299427955 -0.8658045913853218 1.2391763358125176
Ni 0.21212992245365433 0.7075793855760949 8.386730573689773 0.3323685625419566 0.02675489949634102 0.9619255401803112
Ni 6.157369672618481 6.584926182521422 13.30130294390608 -1.0907545207312828 0.8334426301148485 -1.4650564902822316
Ni 2.948328513027748 7.272027885953483 0.627200244194385 0.1183674188980155 0.9606908964422615 1.1219576858069646
Ni 6.40770495888043 1.2032734579056317 12.050233402863936 0.4991799358739725 -0.19577047956852736 0.014942737352761363
Ni 1.2231294249816311 3.0091472567920317 6.8589616919208884 0.4570344128541742 0.350126657856326 1.2041260290766036
Ni 7.833906353252955 1.141055623600761 2.1778956798283438 -0.7270043585542512 1.275149668583333 0.3563602974708637
Ni 1.335751580748675 1.7793466716168778 2.1628429480916807 -0.14914506640050443 -1.2059412279084716 -0.8206326228343738
Ni 6.516518994037005 5.2188208228922175 10.640500508669145 -1.919839645208384 -0.3212269441028403 0.8196802862234335
Ni 7.126596593734681 4.603313640037035 4.018339986767597 0.36291532498056206 0.4845521586584687 0.08939879957980733
Ni 8.660036888218087 2.323741139909159 0.3665181737822866 0.3487387763698639 -1.8641346383365962 -1.7249348560742614
Ni 0.2850901777701506 3.272797066940221 9.812899538811358 2.0603692020257354 -0.6717495518460045 -0.25420728354918154
Ni 1.6269755196967595 0.5076975279277435 6.4744397245663325 0.3508666213461441 1.0519244352379626 -0.3061376538698857
Ni 5.868350922734367 4.647528607319662 8.413662603321042 -0.5857116983186299 -0.016743023786293748 0.18834821896252724
Ni 6.914110876070706 4.3186867372803235 13.065951824678804 -0.20438444648978346 -0.02398916382574578 0.6032962441696126
Ni 4.609215763708249 2.777741387579204 12.553767014970889 0.8176611989108756 1.9072713216250703 -1.2344046254554872
Ni 5.065652837948984 9.075529716771074 9.328094282397693 -0.008750235388804284 -0.035656058640712786 1.0227822664563677
Ni 4.022301914682528 1.2378708359092632 10.785535237476441 -0.119774069437555 1.1135818030384435 -0.05713428311914676
Ni 3.2472613481994586 5.0540987591138125 3.063605234621798 -4.2590197882645935 0.9575736909695187 0.9404447445987159
Ni 7.621754193598655 2.671132541486599 8.584775082634826 -0.15932380670571916 1.4279215331031472 -0.2604131552495773
Ni 3.0849853764920123 0.12970495861259732 2.6750694525508045 0.8061364861007279 -0.07310160508168057 -0.9066501646467741
Ni 0.8155891753093395 3.8498153616788833 2.7834619074451497 0.5660142198897027 1.3963550711507757 -0.18713671515292932
P 2.0983115183696954 2.1943298976550825 8.693005391274468 0.3440740239043429 -0.2676215000725584 0.2078934880843065
Ni 5.157538804114494 6.043543001816495 3.999015859407025 0.7521127235861046 -1.079583848826444 0.38422694197414475
P 7.413780774565576 8.745233163189537 13.206823564215338 -0.05589783960888438 -0.19294098053953224 0.10849489697930993
Ni 6.992524804845407 0.4759455850566548 4.917217670543043 -0.3596914187266257 -0.16036587481698833 -0.42109501864508764
P 3.030754403418831 4.359232566456513 5.166089007762525 -0.2889966233142249 -0.347717277083885 0.0046169299467210805
P 7.136464351520933 6.869951501789691 4.3102542054857045 1.0052152041068816 0.6246639112121113 -0.6186171907973991
P 1.008883262266587 2.9814712074891805 12.076527966076712 -0.321480197764227 -0.13044389044657534 -2.699820813069983
Ni 1.428554831440795 7.676420645184468 2.6455060208432024 -0.11703224502635973 -0.3887292007198725 0.27736906637762554
Ni 8.239244193511357 6.830990073159462 0.5857158198409678 2.344018444985118 0.11068136310766745 -0.841877391145763
Ni 4.73014907321639 6.5385245571753625 1.879228764514347 -1.3423554770058688 1.167284691878538 -1.1488483395502216
Ni 4.252929481872778 0.3862407176544158 7.352758189795379 -2.05951148201113 -0.18888326553039084 -1.4461347136770644
Ni 8.858077690963032 0.9385859117273387 11.512878861675876 -2.253320981198545 1.669463048259202 0.48342807235635454
Ni 8.981633137047238 6.01574650101015 2.9394271469195288 -0.9514714347265226 -0.5861223034934873 -1.2115153795621394
Ni 1.5088218602692525 5.473761062787751 6.31749882791365 1.0436061451802543 -0.3175736636209692 0.8006646643528791
Ni 7.33760909685592 8.172171237065644 10.982182508980962 -0.38688854796670785 -0.7078560677605744 0.5565931836861189
Ni 3.2473354722016086 3.0956407018011114 1.0942870844440573 -1.0322601240398157 1.4470502835127983 -0.0845890368959898
Ni 6.243131143106326 8.637327147059302 7.3950959667235505 2.215452488287546 0.9796388982996741 -0.6358878049523887
Ni 3.933881245617542 6.423252468331446 12.071876684941785 1.269281125617698 -0.6369596978603288 1.4803509545474571
Ni 8.39447838501453 5.370867682302928 9.175085664059083 0.22514996117190902 0.43284238898900296 -0.2650231432177629
Ni 6.6848638684205035 5.605460883608218 1.7639603818705387 0.7878001496853851 0.0371257012077038 0.9818672734095607
Ni 7.72174747249935 3.208068282062511 11.132466143690523 -0.8997786343379213 -0.4894516528426151 0.10076693220743292
Ni 6.808363721503098 3.624997263157159 6.54421172124034 -1.0972141603136973 0.8397361764330442 -1.7700271204272098
Ni 5.42980552951265 8.84501333558405 1.1390829985935373 1.307075570757652 -1.0521764033477685 -0.827615224799794
Ni 3.0911654651712897 7.061135834335737 4.580944869288142 -0.7046750989294316 -0.8185194331461129 0.35318729905952073
Ni 1.5705208265590713 1.0517176700091657 10.669723896516883 0.2786762152248232 1.6492621478312952 1.5830279592934091
Ni 0.2546279925364763 8.177239465712669 12.090387301378756 -0.4546335167221654 0.8364119971558176 2.4248626701266947
Ni 8.29437392011061 5.979592518961362 11.755851781424251 0.6977007244941273 0.28443342942357464 0.4745258847707183
Ni 1.2187097813534222 5.3582573364371155 10.752988314682291 -0.5011619993010078 -1.1122090910606328 0.31008763965656916
Ni 0.39848137005950357 9.088853506157584 0.9499759912077523 -0.8927047582102754 -0.4080415278952391 0.08779006033179074
Ni 3.608273035172008 2.3352210947421796 6.067786183269762 -0.5314290257156654 1.8194720053218987 -0.021360210843330958
Ni 3.355927135351733 4.695570226213296 7.901341590759176 0.04870415007392258 -0.48777889312588246 -0.24368504386161904
Ni 7.850723236240794 3.7441423311134256 1.859565519843938 0.17786660270491306 -0.6320262651144534 1.021595188126802
P 8.661120951749535 2.3303937691021446 3.7721537915260073 0.1852479827706487 0.8654492649284321 0.43301105335638335
Ni 3.366119185647393 2.4864525901292382 3.373040514348173 0.479098077522433 1.2176693149786773 -0.2193122714442094
P 7.905278501823382 8.092006128740143 8.625363533112251 1.235616386375401 -0.38563847760969067 -0.019632429518946833
Ni 5.720501334945413 2.839662725875473 4.352808795120167 -0.048336482321858686 -0.28274550019819045 1.393792195519606
P 1.263879095163734 5.851747146252709 1.2338977893940093 -0.27077624365145625 0.10733172990914419 1.3304034468503152
P 4.645610648764023 4.8937129494611975 0.4097565573365843 0.2096438951165099 -0.3236959744686232 -1.5484643623859267
P 3.845627355557394 6.282157430238435 9.958042673971798 0.7677758840446584 -0.92119412389922 -2.2069992153138696
Ni 6.0529104225882335 6.973567591295479 9.070828401934694 0.39007568744543786 -0.7857975174330596 0.779701946058283
Ni 2.846695240579479 4.401983584696673 12.406603074201826 -1.3147783387185485 -0.6137902017224011 1.9771929863168722
Ni 4.495046269396318 2.3811223830737256 8.274025028420311 0.2637255074522619 1.5548550964036187 1.8808419237889478
Ni 0.1531605725430187 0.258669603753719 3.9360660505809206 0.011418783359902915 -0.8064360196190175 0.22074720411852305
Ni 1.3638723740644283 7.657148404625402 7.275311579248738 0.35891391713065285 0.6093198246558732 -0.7311260940321086
Ni 0.18475407535951127 6.75243716188073 5.000780437817108 -0.38335559511278494 1.1760668089465423 0.29085064580382813
Ni 0.3174971915102422 4.298117326683627 -0.09444139113964026 -0.3982358546587271 2.288239904562917 0.8475127350546694
Ni 1.3754727804009432 6.471127308220242 12.712254323618431 0.3642039618849986 -1.3966870005688978 0.955824826599212
Ni 1.7206960549154884 6.1797365902673205 8.7565250283671 1.037953060659535 -0.6677170336478436 0.5533014003087245
Ni 5.2785277066242475 8.221315450491264 3.5039305304451474 1.0673577390738973 0.9572949833868352 -1.0817024378313436
Ni 2.552663855049954 9.253936924446469 9.159395465903927 1.1144626629815002 -1.2084105153845706 -3.295048421298848
Ni 9.22479692610115 4.16338768727527 5.157721334469788 -0.7309674569670573 -0.5466877516469488 -0.8905455457754277
Ni 4.479220794937239 0.8129633325331667 4.660426183693806 -0.511551570065448 -0.350554489422364 0.30996885469051777
Ni 8.670089956009715 8.518200610103573 6.469340919768421 -0.827099204395324 0.32156504416854936 0.07160882258623796
Ni 2.4434328723812837 7.601583199513517 10.839548471293307 -0.225973742624785 1.5345150992946863 0.16133389515721247
Ni 1.589607757112762 1.398692124074511 13.284243304811199 1.2199776513968794 -0.7427739626836821 -0.07744419832109244
Ni 1.5978355213514404 2.164550579791217 4.593150312792208 -1.4483389204172348 -0.07379580293522774 0.9824902517055403
Ni 0.32056314554918214 7.7220439685079505 10.00154697738381 -0.8703670139450237 -0.09828041834015332 -2.629184381699343
Ni 5.2750624095237235 1.4417211073227338 2.546714477327369 0.44041300224740926 -0.38494376553551124 -0.1683524925668907
Ni 4.929468514998427 4.050496832000431 2.4659860265855262 3.7701306927936686 -1.4026866697957585 -1.3085711814665721
Ni 3.52679222580834 4.062013848834527 10.309055959604306 -0.17468923341819595 0.12029497493803154 -1.3060144764829895
Ni 4.824119776942376 8.144226488254999 5.779222369448846 0.3052351966602743 -1.8658338804158898 -1.639632595161331
Ni 5.018028166567444 8.580881719421884 11.616010365517608 -0.5922183890888961 -0.8486905574128545 1.2478365825906768
Ni 6.249172249281572 2.305951379393098 0.6545983284891732 -0.10465675418014235 0.00819899087102459 0.12149542300403592
Ni 7.753324297415358 8.225169898603077 2.3557756805384455 -0.6548278363900012 -1.4727440887344765 1.4943500970400263
P 8.518117220601154 4.577008884773963 7.184385518911075 1.543578752158851 0.32795654951719 0.5400411928647086
Ni 8.477738170429802 1.7117919091571892 6.465313206801582 -0.37993577079795854 0.38400556999195795 -1.059627460309175
P 5.41108921896971 3.0776007727777928 10.22950700704668 1.692249964246731 -0.24012817974829614 0.6153732299388047
Ni 7.337822203362102 0.7291605888021417 9.52986815520093 -0.5562049471087647 -0.3734000265619698 0.7430369865370817
P 2.9788953984144593 8.835599587310966 12.695967427245966 0.09441990694348255 0.5000908777240162 -0.5597011331874813
P 2.3038481108320843 9.001507635123776 4.603049573279375 -0.5090406307181363 0.41459784095651825 0.1232633135377361
P 5.951267884639695 1.70516707646501 6.496029266742621 -0.540259993743734 -1.285839029976379 -0.3863632715908572
Ni 4.207139379544458 7.148129616359331 7.692501847450966 -1.4442966320270612 -0.8993608300742124 1.2079292048727777
