# total energy = -340866.04474898055 ev
CRYSTAL
PRIMVEC
9.27722686685955 0.00000000000000 0.00000000000000

0.00000000000000 9.27722686685955 0.00000000000000

0.00000000000000 0.00000000000000 13.57815927611196

PRIMCOORD
 96 1
Ni 3.649892967842757 0.4227279734417402 13.221488066504513 -1.035461404585933 1.2301504781648234 0.07628257391282346
Ni 5.303707086939044 5.881854586114218 10.33731049772418 -0.6288144430453751 1.01461335749233 0.6109887277178638
Ni 4.554311257603333 3.0116939793599737 12.749334739372795 0.7791177914200389 -1.9645297890269071 -0.937094082958928
Ni 0.3464533975665091 9.012139356115188 10.43121737092338 -1.1824115202176475 -0.7588487567583575 -1.1394812965130248
Ni 3.971627194505493 1.5793643737396423 4.243065863601061 0.5221853956302104 1.0353878710355202 2.7206174381003594
Ni 7.215576547697692 7.081075313033438 1.4943441561263788 0.13906531356699922 0.24588410839546684 0.3707101384346325
Ni 3.3113669606073697 3.7042760715537417 6.102907708542313 0.2171890544536195 0.21432330287005028 0.30993183080499526
Ni 2.3995732755123966 7.362555652455988 3.4993087327361 -2.6527043191981545 -0.3902343245104892 -0.1212172296419848
Ni 6.943531147967068 1.6736673845247263 9.75286561697292 1.7281842162494947 -0.9183021470634056 1.131711936980251
Ni 6.545241245455978 2.2472875970040693 1.3644824626026677 -1.1578597990202124 -1.3374048178688127 0.16989155491923644
Ni 5.630608728949276 9.02888475055366 0.7260051573148129 -0.8985519610196718 -0.44806151993160254 0.0307863892532373
Ni 1.7206472612208072 2.057410595357408 0.1318433091758209 -0.3946993022603783 -1.4249943321540233 -1.3208222309197832
Ni 3.865068967070424 8.519045472569886 8.343466532922434 -0.08572160783853625 1.925056413522633 0.661021623905539
Ni 4.843955556641316 7.827279776337662 11.850556075805653 -0.7712471304227104 1.5989508011712528 -0.9568134157647264
Ni 4.374759809424827 8.45792710217617 3.181104490884355 1.6191349894286113 0.03461990406671457 -0.09587103756771231
Ni 5.513251809477429 7.805663837810436 6.7334093819195004 -1.0570447871836635 0.35387069827979056 -2.0722780376481795
Ni 0.3306292317528231 0.7782832582567732 1.4292644098738099 -3.373973317930525 0.045473044731134594 0.29921547282875566
Ni 9.094419080921181 1.3011217864827573 12.136253842547722 -1.0828049268669029 1.2578101488636206 -0.29891928174457555
Ni 8.811714147556314 8.946679243562354 5.181140076876258 0.6499856778063515 0.8469347510640124 -0.781749315505615
Ni 0.36282306431813527 1.6524503667514367 5.741022571857269 -0.4332933604834925 1.4397740615663592 1.6279492452861317
Ni 1.0784312335181578 5.578693367576592 10.979122966059476 -2.181553778657572 1.4774206682745394 0.2535118001440537
Ni 6.6966177557344055 -0.0023267284903983314 8.076248074314435 1.48321979145482 1.8685085990345756 -2.520750162754639
Ni 0.18452404176245138 6.30921931752845 7.8787266377551415 -1.237201985694966 -1.1018732563522635 -0.4852450709604353
Ni 3.501123358305166 4.698451530949899 3.88483317112124 -0.09658811823939495 0.14957418351812304 1.3430309058063385
P 7.646652169846213 1.8059142530679009 3.8664893104989724 0.7610246813637539 -0.460889010713574 -0.6775242495462525
P 2.4569158145839762 3.8457908897057997 0.5144129508137841 0.378978806201328 2.5852316302674767 1.4293958036558287
P 8.686397367459422 6.872560362673817 10.131383893651725 0.6119405501081719 0.8934925442188933 -0.18748998472729003
P 5.675807378092899 1.2214118535102594 12.5591998308201 0.7940420168300389 -1.4089696745909928 0.3862316311089994
P 3.71218954604461 7.507326777227384 5.092094470538977 1.2565382241297327 -0.8990147595887034 2.0865522881790066
P 0.33175827025873017 8.66754604252924 3.1666579932557735 0.200346528974984 -0.6533188559446426 -0.5947974626699821
P 7.765604772333802 6.1703948951587515 3.316832174936292 0.27753181720773495 -1.2681608959703254 0.8589060644932756
P 6.031820957913616 4.85116396189267 12.274275784796131 0.023681402777339863 -0.09035524995580567 -0.08356625205843028
Ni 7.779158800740787 -0.01852662199093089 -0.19377900325376468 -0.4197354192933997 -0.4907924831412258 0.9198160126047707
Ni 4.1501581477320695 4.966257238016601 13.518252637138911 0.9549761054456715 3.7609454267499745 0.15004829494106417
Ni 2.9492860744360923 5.72820515526104 1.8650955384983197 -1.0153060126839806 -0.6278577355590605 -0.33049062879295343
Ni 5.475669763565931 6.032590967740981 3.7943625827419916 0.6201752793131383 0.717034648936049 -1.8725256906137686
Ni 4.981805870193266 5.512426136289051 5.9366022848398465 0.5832084722808021 -0.6689593906953769 0.2329244629110053
Ni 1.7056738171079566 1.4912956593881617 11.084788724272947 0.763244571833208 2.204597804961229 -1.3672602106673486
Ni 1.73145523048442 0.7383086155443435 4.144828380914949 0.4453816591065942 -2.768287233372497 -0.25322357947967356
Ni 9.25666850105107 8.569068279668084 7.977399222379849 0.11979900913821948 1.789748767225853 1.0492926540420704
Ni 8.972358607443626 6.636473494158439 5.044394681040444 -0.18536908172954528 -0.5555575433327529 -0.06827950110268885
Ni 2.645057974812358 2.791285624196961 2.498639214554939 1.1326889561815396 -0.20240186884211592 -0.8059089434709539
Ni 0.5951183302257547 4.200032519200895 9.206793201859561 0.5159718106203307 -0.09405815272868961 0.0985598972537851
Ni 9.253885333000355 3.978881985891025 6.768848388431947 -0.23035181708782265 -0.279737309499486 0.39570666047897013
Ni 4.990081156530726 4.142513712819437 1.9811759115575704 0.5713541440453773 -0.09854781306892706 0.32287810655301813
Ni 0.22347818952295198 1.9421317746967632 8.484856108512211 0.06413179748290246 -0.9873936025444285 0.5130538656425874
Ni 2.8766917744465905 5.1898847908916075 9.74314401097177 2.011153916643349 -1.1722911439541939 -1.1337809036941378
Ni 3.7669530160558593 0.8051426853915469 10.951858124111979 2.8224534350022554 -0.10994731315512032 -0.8922928674838375
Ni 7.543674951969731 3.849956364555038 8.743913390672828 0.23857523343887943 -1.4482946974428605 0.3890994395750977
Ni 7.59642526375763 4.551073505437667 5.2733900373625975 -0.6633039921818125 1.0901765367406258 -0.7852686415127831
Ni 4.911632926407887 4.060493750364845 8.107952997025505 -0.30211901962879584 0.9169263497618015 0.05063427721709989
Ni 3.5605254417342755 7.501797550033296 0.35901754587012336 -0.773589662512958 0.41601760412218025 -0.5227638938414997
Ni 6.645759998220994 7.090092777517756 12.898301026119304 -1.7736359208243906 -1.561015716688376 -0.13009550596822111
Ni 7.350643693198926 2.764029131753619 12.776748944672345 -0.9995844881836656 0.22787224519907853 -1.727564580387625
Ni 6.514190367236826 6.733309187869675 8.479274928847842 1.1846226689363535 0.4754314273041231 0.9355794460866145
Ni 6.771865342598923 7.954080912728268 4.623648323250814 0.2191803738520354 -3.0042314569464326 -0.8482097611216941
P 1.9201633015497805 4.730801220926051 7.531763920435352 1.0485511478903555 -0.4676463840420656 1.9539856949624734
P 0.9952794493896083 9.110422297212796 13.179096706201378 0.25858073002652887 -1.1877568436899608 0.014730621341955278
P 4.466353869973881 1.1661381360230456 2.33184488099823 1.0180447517713822 0.37466089555226445 -2.750720171023011
P 1.7979729468965253 0.21596827439943742 8.4741158630045 0.3584161515586279 -0.7774853980229385 0.8904977232566277
P 3.4010591896551015 3.0484317976294215 10.104961423900914 0.5268727738035507 -0.8726714937084842 0.20217869708771632
P 4.6928573631679615 1.120920932425751 6.75689932026754 0.517293871865864 -0.08540150549495615 -0.12360655580976776
P 4.9760632667819555 6.765909362970391 1.6715939243269429 0.7945924900168703 -0.5853951955194757 0.3955230837132543
P 7.850352239478094 7.828587865321498 6.70998716732736 -2.1247218572701922 -1.539799487622077 -0.8899853023965834
Ni 0.1596610738427244 5.2318271334158934 1.5081941280694238 0.4402379101221257 0.4902877755906653 0.34304532552951245
Ni 1.8304803497288848 7.210362746216018 9.29248509069573 -0.07149697959872203 1.5700433741082833 -0.18078146235886286
Ni 1.0019126665771474 7.601323639526889 1.3255310980102177 -0.26248906394199956 -0.19158163829816038 -0.37002159700804016
Ni 1.6459841396469406 5.778895922691409 5.8392331505855575 1.305371443582352 0.6966355164544067 -1.8366606012860434
Ni 1.780949235652981 5.93678504620851 13.104784263801902 0.6240036519202932 0.6819964263849932 1.6213047433864205
Ni 6.323812395341037 0.7287502887355022 5.085631954325215 -1.1124222355127036 1.4586678131470685 1.17010776314963
Ni 2.484107366439469 3.9271243373745484 11.95269092148545 0.11439377896224816 -0.9797995922472544 -1.4532278730784198
Ni 0.2218166381966747 4.129868852642352 12.788290742578663 -0.45449133471734626 -0.8247908679771214 0.24744296824215448
Ni 7.165331087155438 8.606455503816031 11.12204699496788 1.6223126158256447 0.12456943394366933 0.886321737502067
Ni 7.433006913046438 4.880990246169507 0.4719724212084203 -1.5915930752546008 0.20851826615249897 -0.49790312604407794
Ni 7.919096490330772 4.983828305643453 10.920261744954889 -0.7335758411241818 0.2356518891444974 0.7991891082486172
Ni 5.980230299480183 2.96190310293267 6.066341518969327 -0.3607504561187594 -0.3134259600011827 0.6150001628701021
Ni 6.987941232829654 9.228938870039105 2.512828733000171 1.2774358935143484 1.0538699890001075 1.5092169868495298
Ni 4.88904287906291 1.8379485173316388 8.974022941937953 -1.4527594180824337 -1.0238896405879334 -1.320627341300158
Ni 0.39886416285222015 2.470033813329683 3.1440902112552034 -1.458960661797139 -0.12329519521693605 0.053412868403501554
Ni 2.4446049345729772 0.33859929732738936 1.8813353240742456 2.1742790993730297 -0.7271023175846961 -0.15077180337065
Ni 5.6049015333874985 3.664281946664957 10.359633360936288 0.13190144882870833 -1.1629744945389582 1.087207941030605
Ni 3.6646715901920572 6.386285240852768 7.583320253129493 -1.1460275822719745 -0.9341619969137976 0.39421156399068236
Ni 2.2306071431534464 8.280388812221014 11.516641778030301 -1.88279699063279 4.017829485800371 1.4344004559592716
Ni 1.872339197211649 8.38062924818096 6.209251632037477 0.4329460044464028 -0.21170180608680317 0.1331700311284868
Ni 7.60894951998585 3.7759612033133427 2.9090795010527692 -0.5080157889980477 1.3457480476271857 -0.0024949985077118322
Ni 1.3140264090112423 4.6463877339478445 3.4389000701953156 -1.1976856727678986 0.7735099583149582 1.2432415070208265
Ni 2.7813682687095778 1.855825733444069 7.589036880305663 -0.1759578157179744 0.1471771440408562 -0.18942911073153182
Ni 8.750901925648176 6.940905692772559 12.64988843402999 2.5284974108002256 0.17066185742635767 -0.42988253502973056
P 8.590090475677822 3.0179004441130695 0.9915759804367893 1.0198170131804567 -0.43689136224739594 0.3876969028006162
P 8.561071310135693 2.8770814179736908 10.529712760515524 1.0673518255366263 -0.45452270217591395 0.9652232370949764
P 6.768061679596278 5.021243361471907 7.3268559558694575 -0.9605276313915201 0.0910892999083528 -3.0852417753522285
P 3.1258409783466603 6.644609622093364 11.454697734448205 2.360628028517341 -5.571606518648463 -0.7416902427012001
P 5.376969347260717 3.714341862670497 4.104039197686343 0.5678106496684932 0.32905595322895587 0.10536406465981209
P 7.893175918551774 1.9509358629638607 7.032848577050636 -0.7275005814643795 0.20938961301385875 0.1292688963018677
P 1.967866801939048 2.672731942463308 4.7872921105741115 0.49574905581555273 2.457676631332922 -0.42058388333662405
P 5.76073111254707 8.660532459041438 9.68683495496969 -3.519470503165797 -0.5866370383463768 1.4488410568646337
