# total energy = -340892.5764707099 ev
CRYSTAL
PRIMVEC
9.10675106043545 0.00000000000000 0.00000000000000

0.00000000000000 9.10675106043545 0.00000000000000

0.00000000000000 0.00000000000000 13.32865070145450

PRIMCOORD
 96 1
Ni 6.367003042674096 2.135724306833094 11.500879171597798 0.5029406884679855 -0.0694786636171126 0.43537801092666306
Ni 4.693755969002261 0.33750347043838264 5.958079879004239 -0.6496966858110229 -1.7943718678201612 -0.5613813491033816
Ni 2.8142683097246644 1.5818881495407346 4.711531435909308 0.227809253171627 0.6535245441975455 1.1322516115338048
Ni 3.463033237465846 4.399917547350142 4.815654381976427 0.11259863473503834 0.15340024213243258 -0.30543599981717073
Ni 4.952642681043618 4.711077009043864 2.4966958741101775 -0.1575011516746836 1.5159324511964927 0.7342384144088452
Ni 7.099459010363922 6.135618718080497 2.744048886250016 1.4725060045817415 0.2601033373186424 -1.4684668015153615
Ni 5.35975086927694 4.354757170080791 11.800707103257995 0.40735478624085975 0.3649884054595069 -0.40898178032132143
Ni 5.725295846811064 7.963999291809476 12.610156095675332 -0.9650088070913252 -0.1681149226347879 -0.787919705982385
Ni 1.7508365905774332 6.649886043101163 0.5944604619829917 0.016419064787971723 0.22351679644386022 -1.141501412266847
Ni 2.628481486439321 1.4501863193190478 0.34981944023452494 -0.0714103334221867 0.27893692508537765 0.11627222693188363
Ni 0.7714820376132129 -0.028825598340527257 4.90851500931618 -0.03980170537797016 -0.3156903305553273 -0.22963242242329485
Ni 8.55441726710768 2.316119933638612 1.5960791993287624 0.38203661919104526 0.18529889061324217 -0.2551632197045477
Ni 7.090188338038817 0.5245269904837939 4.80977688500332 -0.2449914213778684 1.1569491142804849 0.3005904987994113
Ni 0.7245394692102446 7.743470214182014 2.533296816292723 0.8221205202338099 -0.3716465342059728 0.3557632873168131
Ni 7.834974846326082 3.54319085810001 3.9978891047189276 0.4346969256992384 0.8030164524145073 -0.6708429808713349
Ni 7.748579101386714 3.8621365917367223 12.995354352133631 -0.24429233842831477 -0.8273858823978073 -0.9973386295722824
Ni 8.093688530102039 8.694779617350168 6.8477138123081716 0.2777382767915862 0.2984449132113183 1.036223479562938
Ni 6.952048034994095 0.5803932640059872 0.3099100154825183 0.0629586031104077 1.2561098783430624 0.5752480797831447
Ni 1.6659252460201792 6.451877960228107 9.235648672163434 0.92130236734231 0.13889022144171562 -0.3592059944497749
Ni 9.211387377329137 4.8679134715025745 1.230979541909272 0.07348804188682181 0.12749663489279334 1.6024104775850792
Ni 6.053730814792335 2.1047431405757178 6.64606485046107 1.7136461705343198 0.25744044577449854 0.8635631036493128
Ni 3.4915464742535725 4.579165723553534 0.41174079237063055 0.22948792642563057 0.39626536119591754 -0.08509837243224054
Ni 5.946198301221758 5.8212901071047165 4.634318027812183 -0.5067698324060884 -0.9167602564975825 1.5686128123093437
Ni 5.304837161889526 3.1571830114946557 9.218894072022245 0.5672624904745069 -1.11379057661514 -0.3033618908969614
P -0.013475259174320976 5.714586307857897 12.564705213055124 1.124710051741121 -0.4058275509630559 -0.23504125214369198
P 4.2205145563829705 6.35862483192842 12.465300474582936 -0.04272196434855868 -0.9663815190691358 0.6685878662885713
P 2.4094641294464036 8.66255993298256 1.3021187472157822 -0.5146672328762942 -0.5404949925726756 0.8638037589052091
P 6.41171718915373 7.77181042270434 5.787726266317477 -0.6090768554071316 -0.30527427742832586 0.2587758767564705
P 4.730765804296199 1.1250844221344263 12.841354642552394 0.6436857037302527 -0.4885165426228555 -0.6387761822437773
P 3.9169136978619785 6.000137586272446 8.272800105043274 0.32885437874111106 -0.1523201216943764 0.011661752608644431
P 4.737058569106266 1.052813247702169 3.807768378722859 0.58100503687158 1.2191700678939197 0.44532020974103953
P 0.220337835860442 5.7153421681751695 3.433180397633892 0.24610239505386003 -0.6306481538200043 0.17131260363647915
Ni 1.6340971519374246 1.316134947388248 2.607177153593199 -0.3549474762837371 -0.3537012625814618 -0.2301111618319263
Ni 1.986974639094121 6.464053686061768 4.6212033959699585 -0.8484139067127002 0.643144229404486 1.0841416434004554
Ni 5.929724189005534 5.700671192619428 9.0700132670716 0.329038212617143 -0.9246720551454913 0.8266322920612343
Ni 8.508073012232963 2.3277492544236407 10.237829296034214 0.007777329952573702 -0.06127427342944931 -0.33157383455480316
Ni 2.48330166501807 5.023065185061341 7.042192118567072 -0.9103432972276452 0.07514023277826413 0.1913615518675543
Ni 0.5148109980440541 9.015191537867373 9.430179797577033 -0.2597621519291397 0.9865914183581073 -0.4527818082254073
Ni 1.4005454206509236 1.4543754246918854 11.35811628184166 0.17204613936839402 -1.2275868312027052 0.5674658647345646
Ni 4.123809969526098 7.183687348610387 1.5603051501198109 0.25462534492320665 -0.9321426524909238 -0.43728062726601463
Ni 5.7575701716835335 7.878978666242496 8.186296900444342 -0.23101464748280215 0.4089725243499408 -1.0898358655717553
Ni 5.445199512132014 3.1577294165432868 4.529341779194119 -0.3145641873706841 -0.16617219708612024 0.26263895925630254
Ni 0.8742517205098894 7.132908106090949 6.776978946737648 -0.07030321640093698 0.49562898529792065 0.12339752512275522
Ni 5.0723691339494765 4.379099514997302 6.8048893166217175 -0.48590610158320185 1.099140173691817 0.7208303685330553
Ni 8.278664852565246 7.133946275683347 9.330895268215542 -1.0799350615182757 -0.7969800164124403 -1.0766206524330622
Ni 4.8329526551410025 0.5208688086832095 10.529433831712511 -0.7233150826281222 -1.1645138140016202 0.5964972189699083
Ni 8.330099781143042 7.129620569048352 4.738108577474718 0.014791042266245492 0.274300711864947 0.27053764527808893
Ni 7.260056560907376 6.128460811943431 6.954889341246976 0.11285343105832175 -0.3413638240620314 0.2401070967023736
Ni 2.269648184252547 5.305984612491652 2.525152649042879 0.031615570022752004 -0.328088447109364 -0.1804294783360828
Ni 2.3467459366143784 5.829923306873085 11.628407377923025 -1.2960514517330068 -0.6316287725657187 0.23813557479829955
Ni 1.3335652684395762 3.3975465923874233 3.906374455148968 -1.0260051442690394 0.5394603806605742 -0.11972830380128413
Ni 3.9568650136677133 2.760374558428029 2.316865776529993 -2.0723523425295407 -1.0830370974823669 0.8810216654453923
Ni 0.9419112363317014 3.04138156818813 8.085412314965442 0.60533461475588 0.7034448260667563 0.4547571867842233
Ni 3.6760401389238218 2.4317119216764955 7.168787793609302 -0.44303835568539823 0.032675378745834045 0.163216456891906
Ni 4.152641942592193 6.769994979541062 6.0935919737650455 0.15806268060510842 0.5150210166712873 0.2035580939337462
Ni 0.473606593326792 7.368262974037932 11.245381992208117 1.5157164785309445 -0.7480413817302085 1.1224487665107699
P 0.12906269383679916 5.511970209074719 8.0009617719992 0.07093493644766494 -0.3808793656581505 1.062574715862957
P 8.47893140963931 1.472024307762666 7.970172758183925 -0.10439064500294926 -0.30184596847306727 0.9739806715726322
P 1.860472763585239 3.42271765162769 10.448901923620035 -0.16836457675174873 0.2377519662066357 -0.24147698046670668
P 3.897753094156652 6.327625452169423 3.6909834063287983 0.8980835060236855 -0.015909729251720985 -0.12953989057506723
P 7.102354957121666 4.121624349331574 10.296769097954954 -1.4177888155445195 -1.239725523447768 0.3689239930684872
P 6.401253532472447 7.699530141521272 10.309750771235347 -0.47255744819043777 0.6215063394197361 0.04204602132745662
P 2.571919457155204 8.393837930065846 6.037678345138637 -0.24458672974028198 0.08916611474371096 -0.95946370890338
P 6.936366210098385 4.088730765403989 1.9388518357861098 0.8176593991386627 -0.855539719124204 -0.8711830820884157
Ni 5.5113782702720355 2.962271223897175 0.5664653993163836 0.14430599314064824 -0.17152626230918203 -0.5512522310891796
Ni 1.4578633102523133 0.6781979463607702 7.34024787651954 0.019916022197636666 0.6218356977346968 -0.6184546970776058
Ni 6.754049058871849 0.8054010416820621 9.224598540729952 1.0833114341896761 0.14464229343414445 -0.43762515508962696
Ni 3.0008838473337645 1.7819907851002095 9.586631955151542 0.4685120744764706 0.22697467308547362 -1.4583155720139724
Ni 6.399650744329796 1.988969017521624 2.7256022518082346 0.3306927175014305 -0.6495938416845717 -0.573668908221483
Ni 4.02840764803513 6.998119087344496 10.240695190514282 0.4970551762214859 1.2216817785721799 0.7553209461107572
Ni 7.9979856858343235 7.246141445668908 0.4117061867175506 0.4439205011800355 -0.27439352868906935 -0.05893405533204689
Ni 7.565014325299137 3.751189046612202 8.12466514298401 0.538936132725988 -0.09089106785461766 -0.21829437170265628
Ni 2.8623155270009484 8.406514527194085 12.309728029136723 0.6840121712634414 -0.5848799464459541 0.09338632347264561
Ni 0.10254747817689991 4.767265661544749 10.318894859724185 0.4218342108039574 0.3987732152194358 0.07485046945198723
Ni 8.80275836171046 2.2759409490626137 5.978753114019192 0.09594277134591218 -0.2175675208389608 -0.27681679341858134
Ni 3.6187131425716217 2.812355892054456 12.055284500815816 0.0388370274718557 0.208736295700576 -1.6504895924804928
Ni 1.2960909888543015 3.514167643266895 12.6276037195532 -0.9887624578674972 0.7749821719851105 0.24774995795961205
Ni 3.208781861587041 8.208615725330755 8.188776668690046 0.3451806267049604 0.27004219369890914 -0.12181501112698374
Ni 5.585188485591271 8.057971853423195 3.7123360049542162 -0.6585081134550659 -0.19588103700446266 -0.460811106287787
Ni 3.0920788499502745 8.630704518647375 3.6699103849532637 0.028804068715885877 -1.4694484487023403 -0.3237345410160425
Ni 3.719069536503512 4.539779026298051 10.143289383845 -0.8519486593388361 0.1406154316629385 -0.9209192729712784
Ni 7.145757731484586 5.938166147006883 11.493895204401213 0.4977133786307751 0.6866151561039271 0.10442972577100078
Ni 0.5048381952314577 -0.16454988039521912 0.03593159599797313 0.6907451191119007 -0.09488244840219787 0.549675630630679
Ni 4.595157177976802 0.4428886121678395 1.7302990461495569 0.2478314619298248 -0.23868116288912442 -1.1161323373744392
Ni 5.996167042919061 5.531795605589213 0.4276748742637909 0.01999701194721717 1.3127746780249585 0.27467635003681085
Ni 7.974963819785339 8.881923346506278 11.380281202639376 -1.2338032444260623 1.3013216989930105 0.06779253416394132
Ni 9.15201136204457 4.72143138471542 6.0150334985732075 0.5162916558535946 -0.046266487166707414 -0.9232075547848229
Ni 7.856494098491332 8.850477735957565 2.7184452563462496 0.04533780470485095 0.5600675153879645 -0.46475492142688346
P 8.861105314153438 1.5659695491239523 3.7851098720312137 -0.2560409943238106 0.04391521332571146 -0.5746101890888297
P 1.8579593003615364 3.3792966637631485 1.463912014140658 0.23990732198674167 -0.8137158411098825 0.39711331101850966
P 4.866310683359925 0.8356655066506509 8.093156695854706 -0.24491300273144917 0.9396343328822785 1.5045074971890025
P 8.68916985885089 1.5804219626602416 12.608410331544956 -0.8929657251811459 1.6729954868924928 -0.21492854055421692
P 6.302336005168619 7.934866795966635 1.5296090251628038 -0.7830924597970708 -0.6122778788429326 0.1069324375881965
P 2.025459768019363 3.1436412730394174 6.018605166241092 -1.3738808013076595 0.22228395247802366 0.16246183811406859
P 6.979231686163485 4.086918521992697 5.94977634361521 0.20772456660660998 -0.03780704354544457 -0.44553592529627145
P 2.469086027002854 8.85022274693487 10.220662160081309 0.10942383655148251 -0.6417036403032175 0.10529104533003159
