# total energy = -340889.41432967014 ev
CRYSTAL
PRIMVEC
9.10139168121094 0.00000000000000 0.00000000000000
0.00000000000000 9.10139168121094 0.00000000000000
0.00000000000000 0.00000000000000 13.32080670822144
PRIMCOORD
 96 1
Ni 6.43235406957038 2.1068083842696796 11.578871692237438 0.3090774532244999 0.3275958237436616 -0.3991439682952932
Ni 4.846618570519454 0.619659161553023 6.040839497093344 -0.4441958663286092 -2.2592869689739925 0.30934227685011245
Ni 3.1174997445325916 1.741524023055142 4.76690403015076 -3.108600761793143 0.43582101200135265 1.3129675107620549
Ni 3.425117687093702 4.3205945281435865 4.643793143383485 -0.1087034134456902 0.074870009836013 1.0530922302938186
Ni 4.219924033079578 3.045316605905645 2.7404500140956287 -0.6263122454488116 0.012053331620108274 -0.8487952013115189
Ni 6.654965012411949 6.272005748257866 2.6780554223849955 0.15207149601868003 -0.8206200244288835 0.07049810602056246
Ni 5.245860224662644 4.720081919866266 11.901461424363712 -0.8700934485686629 -1.0514120143779184 -1.70137378092487
Ni 5.427196355541887 8.188658752962196 12.87117649831642 0.3986824552778424 -0.21000204978687703 -1.3590195679251111
Ni 2.0217103706318094 6.6542824080244785 0.2911999418336926 -1.8337495982868355 -0.004356734306798948 0.37549033343209526
Ni 2.875420924560391 1.7048727181439438 0.3394063738159754 -0.21052398372861808 -0.8104173728642688 0.2963155255731413
Ni 0.7664709827924236 0.20531101724554088 4.696117045030984 0.976679301450718 -2.121882845159501 1.53481437570266
Ni 9.139435650788947 2.197312624656309 1.335051313100692 -1.2893192752154956 0.14062777295811266 -0.2372943098439268
Ni 7.26249201865168 0.6220100510634681 4.7287801200409945 -1.0425015992621658 0.007233027413329479 0.46805596077565836
Ni 8.669985860046555 6.721396071400485 1.3923973627616002 0.30312020719980054 1.5213232831947605 0.9345792869568744
Ni 7.603075202431652 4.219423456528768 4.173488731947983 -0.14856425419636993 -0.3797995023304104 -1.8451421563944934
Ni 7.814755373681876 3.7497188268150548 12.88039438796481 -0.4404726518407511 0.2465785633593302 -0.34080975133077435
Ni 8.354149360660312 8.906740365796495 6.938635372782261 -0.5111088261010746 0.17865156050005362 -1.0831481691389346
Ni 6.865207163752569 1.003537666282231 0.6168522923117483 0.06587886208099622 0.3667038454887169 -0.943870225340497
Ni 1.8531889994533273 6.526171216584194 9.438258008282716 0.9329157832115225 0.33980213600186643 -0.9542361419558535
Ni -0.4876006964747976 4.5338674429645724 1.745518623930614 0.179082220279569 -1.2517271758943347 0.7125992388725146
Ni 6.451084733962544 1.9764309462629959 6.906385500961466 1.4425246277283026 0.46619319653530683 1.2919453999844328
Ni 3.443111138747399 4.547483125146632 0.5009997655312332 -0.02871562276713764 0.01719990881805425 -0.21245333954084702
Ni 5.87193586745788 5.627654510662111 5.032414383396832 0.36287598710219443 1.1310655616455036 -1.65057546732608
Ni 5.68812415800008 3.000783495667132 9.1674060481699 -0.9874141713697189 1.2172062592993296 0.40921703626057915
P -0.021352775379230762 5.658216984437081 12.93359748406337 0.2673134819138364 -0.19639937140177788 -0.9059860487002138
P 3.8608013141359323 6.335815606398519 12.572763703455133 1.8611339038370593 0.12799182936165698 0.6881297929762408
P 2.4308088321300594 8.660920873780961 1.2581026857100246 1.5938294207842871 0.06914776264025511 0.965688606767169
P 6.520482846688615 8.067519227665933 6.282159260986679 -1.0330263127818788 -0.10858282870742589 -1.1446533276322672
P 4.7782671178541705 1.2043780798594381 12.577186069746752 -0.30781118491756665 -0.5476174625500697 0.5867342260458733
P 4.248484200651304 6.17224539237715 8.208401492126182 -1.3293086711242397 0.6827340758819661 0.44199294514001947
P 4.755713868892176 1.1815244849669575 3.8011589833155766 2.930227137544825 -1.4535454043188387 -2.171312817655854
P 0.10729721845756336 5.9514820320776645 3.497884224937139 -0.57951739658246 -1.0626557056125379 -0.45035365839988883
Ni 1.097982809332518 7.832712419768241 2.8084392313659627 0.6845184214758985 0.32188411807086503 -0.29941550465470373
Ni 1.8388543073164667 6.4146245582798365 4.664746367661251 0.7366179703846152 0.3316471109948998 0.632741031793291
Ni 5.943518314223853 5.464684988501715 9.246491682362938 0.1531333616242911 0.568766328713543 0.057665730142584554
Ni 8.738264501577177 2.619790132148962 10.65788456001904 0.005998383675279992 -0.11404462315294553 -0.5779932466284498
Ni 2.5143778119399975 5.0973892196921 7.098751608603034 -0.865101137560394 -0.31738391620766626 -0.05369260442744946
Ni 0.5568977837515229 8.795849007704108 8.725008324372519 1.2648153765368604 0.5906086213996152 0.8504270804879869
Ni 1.8115501318176848 1.3848495785145536 11.508098359205412 -1.4519070973844672 -0.9023461379547815 -0.2310174756962796
Ni 4.168310039995047 6.989541277582189 1.3977253175405961 0.4679780563498715 0.2844858799280649 1.1988123301731741
Ni 6.023938212459599 7.924663781456306 8.443566894862089 -0.8007667371483822 -0.1594240797290093 0.054124035537913236
Ni 5.443324021869834 2.822286999039761 4.943165224943964 0.28775709448016895 1.3649994396576297 0.17026667887046804
Ni 1.476582506798628 7.385069563857544 6.962932448419442 -0.5965977491035144 -0.07244391689302362 -0.2626489865586315
Ni 5.015039826387774 4.65514348913833 6.8493188640298275 -0.5288262979854957 -0.8750495070223575 1.4880434380957082
Ni 8.182251373111814 7.066293314909266 9.400493603150352 0.46557716021786266 0.14017705857393925 -0.3341094564924633
Ni 4.494831573393148 0.48481111987800535 10.451944636597846 0.6345819416567716 -0.2271780473455313 -0.17558706264211696
Ni 8.045184412107929 7.209931480816524 4.978944616517567 0.49901821348512776 0.02308310707170863 -0.7948395730306698
Ni 7.277800559714663 6.173000807899283 7.246812140801913 0.44717088979653313 -0.8428322988598644 -0.6196628584530941
Ni 2.350461745028977 5.52016707311524 2.4283833112065842 -0.5933525026933394 -0.7679977702474773 0.39474121124190725
Ni 2.3892427756290804 5.211757309464664 11.514678665500618 -0.32393868660704855 0.08612218571106459 -0.5603876177315446
Ni 1.1991902865146695 3.566789952365048 3.7714666025998342 -0.6726638361301576 0.05064199052658375 -0.18590309985614434
Ni 1.6905016204397516 1.3147506586173476 2.6594722005405247 1.184628325363308 -1.0995692908094354 0.47224891581108347
Ni 1.1383565835033833 3.238639269828854 8.257741047391663 -0.1142567391637516 0.9062105060061942 -0.26119785593440176
Ni 3.6522156161089043 2.710348980886588 7.123167912473227 -0.501284126701169 0.5654418923260003 -0.5435600046512444
Ni 4.011165408607725 6.723944461113705 5.970439321126468 -0.45424168060038544 1.6575899509707002 0.11110585223959575
Ni 0.9641286396456559 7.287402528098402 11.490034826834602 -1.1606677007826527 -0.15790172954721193 0.30897692309089364
P 0.3708808070526046 5.831844236433835 8.020324870455472 -0.754364752845075 -1.3597309921698388 -0.215138599682494
P 8.657043680860133 1.676203333870223 8.040025743217026 -0.21643366434483371 -0.32875616260034995 0.8515943613232108
P 1.7769284372852292 3.3440788942133173 10.435360080399883 0.3413332279344121 0.06341960190722626 -0.11759017441235878
P 4.054952204715938 6.114997637748037 3.6626221475306733 0.48907421489853836 0.8891262968303978 0.10670232385526139
P 7.01118438736089 4.159681920537432 10.586298472696333 0.6580072625592474 -1.7008101951119161 0.16303005191271278
P 6.744750242843776 8.220741159173265 10.593025311400051 -0.7933131090838144 0.16991572328895252 0.9493613303620552
P 2.7654124014757984 8.666336201921553 5.897667322447933 0.17215695391464544 0.4727875619233729 -0.6991688243992217
P 6.3678161000830915 4.249740192724248 1.8367391438544944 0.5329166660047855 0.038648051389501184 0.303554980744374
Ni 5.2279759897109415 3.041785265874469 0.4742808095273085 0.4992935786337014 -0.7822455384157431 -0.5288882615716827
Ni 1.596793690127932 1.130028809976255 6.911474089135255 -0.15546303819873225 -0.042576697019946035 -0.09606721273891843
Ni 6.8503445908893985 1.001034783528176 9.237393931086743 0.7868768665401673 -0.6809145061747242 0.16731968042700215
Ni 2.6041539409799928 1.609071467710551 9.13542284712981 0.500262370304874 -0.709844816055829 0.647069275490505
Ni 6.693309176204071 2.313883251252442 2.767424719210059 0.4082251046609551 -0.6575470350933773 0.08832896355439626
Ni 4.133679244070759 6.997768935799155 10.579011898394892 0.746758658363043 -0.3135226334800471 -1.5067469280424826
Ni 7.919193844964717 7.810978296071211 12.89399459778075 -1.2800756451300406 0.6967404174633871 -1.3014991051111393
Ni 7.900863641813201 3.811380756483137 8.358433385796072 -0.6518366149721612 0.1753078408388013 -0.7991903938001977
Ni 3.129886738817206 8.42011624866537 12.224984049152864 -0.840577441387417 1.2979188439590486 0.7137292387118999
Ni 0.11725505126196913 4.924025908058501 10.185394904404452 0.3379432284162567 0.37850186656490936 0.2629171526183537
Ni 8.687870094998258 2.520584961170054 5.848260416882886 -0.13744423302380845 0.05223993114132294 0.7260785043058721
Ni 3.6192321721063756 2.9016875413902192 11.650031834422364 0.8657781090227605 0.59060630740677 -0.5555709130691915
Ni 1.2882747097753622 3.55202749481204 12.782700048030167 -0.9851896529145744 -0.19287156075417752 0.5300910236305322
Ni 3.541915848485658 8.34331870437913 8.319523115431942 -0.26328559170136595 0.25904815658125063 -0.3561520381147995
Ni 5.6816530684068685 8.037120578943956 3.8297855910476826 0.34540919777599866 0.5731156068211742 0.5173491505838316
Ni 3.4039114441229814 8.402049985877008 3.7684030741088708 -1.3404248356420592 -0.12211583019685421 0.00364736694460017
Ni 3.574589845165867 4.364954711937275 9.422419766215056 -0.21018716921448963 -0.0295129218574524 -0.13211227928793376
Ni 7.156524513540907 6.118246834632393 11.377367787195611 0.6368573679545096 0.5462686618316592 0.27564591303893177
Ni 0.6086564889661973 9.047884750341531 0.3049667071201785 0.4063309729620357 -0.13214673207029498 0.07022196954104035
Ni 4.521999228014435 0.46444948606938047 1.6500614061085057 0.23007028129166182 -0.05802028526852588 0.3857693467606001
Ni 6.198775949570133 5.8418739702337215 0.2330638913616861 0.5136405913839929 0.6060797204520207 1.8623978581511471
Ni 8.66129403084611 0.16501005420933873 10.80910236504476 -0.07498982324332891 -0.3653897546629836 0.7638076434255296
Ni 0.05791488665046635 5.011999961515576 5.6785403924000075 0.923619702621577 0.3954441508462028 1.8159601355138981
Ni 8.143124489622059 -0.04798526816074266 2.415462065221377 -0.03127078508882356 0.16390705520102739 0.38333811161128817
P 8.86733133915992 1.7233485435647862 3.835792509657415 -1.0475766997922282 1.544617734946327 -2.6880323050754864
P 2.062102347586341 3.1929047758683944 1.6522329981998423 -0.056612863398037984 1.8485491251935129 0.3935348496386319
P 4.694470603248408 1.3075150521101704 8.304923572792742 0.4276215069096958 -1.3643731189275405 0.3452575026894828
P 8.684930345436223 1.504869632615366 12.56908674115463 -0.6336188064125539 1.026350186313284 -0.09074888584979855
P 6.304907279733898 8.157368167840591 1.5252194346146084 0.800800161489479 -0.6999638094966912 0.36042649712043734
P 1.6640438743814319 3.160567530686004 6.004779782651288 1.598136018579441 1.181974689790545 -0.3215416471297817
P 6.955174422021056 4.047816713518922 6.231180545052087 0.7913055917354824 0.12033688391956048 0.09700360851025874
P 2.1600788306678034 8.693358234273514 10.163096494413779 0.8165844209069292 0.009456260316893391 0.5818779263948366
