# total energy = -340887.9549060092 ev
CRYSTAL
PRIMVEC
9.10191827168097 0.00000000000000 0.00000000000000
0.00000000000000 9.10191827168097 0.00000000000000
0.00000000000000 0.00000000000000 13.32157742660473
PRIMCOORD
 96 1
Ni 6.6950889892727306 2.0656257612562663 11.131257507563134 -0.3379260020250761 -0.18642143425345958 1.2607427491293837
Ni 4.994604887035066 0.4352036756274136 6.33956532738963 -0.8291020937579657 1.0378499594227677 -0.8951012834669101
Ni 2.9156630192119026 1.8042732773452024 4.426560533265103 -0.2560055131001849 -1.057777808694946 0.932265551222033
Ni 3.4331434858929506 4.2083356691393625 4.453109918941782 0.4800905233426893 1.1529291944878144 0.1509147567064175
Ni 3.736346590442834 2.940392931407569 2.33573884159292 -0.5535047745687822 -0.9372432069422827 0.5051801193214656
Ni 5.098057291163128 4.904559608657545 2.3603167517519035 -0.14452068025461565 -0.3093859856038543 -0.1625420565327007
Ni 5.0601478011760275 4.600455414189601 11.480122205970948 1.168446316286807 1.05106388700988 0.06713818840939403
Ni 5.544060392929723 7.728038398676327 12.45273135777059 0.17782160839959052 1.0227606691898126 -0.7866074149288647
Ni 1.8083873444458434 6.869263299091011 0.002390163762451951 0.03453582899334052 -0.4491447256934523 0.20990151965327075
Ni 2.5079243822486124 1.8069583432626564 0.14151480634368027 0.17480493306045378 0.1880142326618762 1.1904634439878468
Ni 8.618988779679265 8.627426258002924 6.629882846111245 -1.8300268980196095 0.10320073845990614 1.404881106343916
Ni 8.748327039635253 2.4722721680158464 1.043937245252919 0.005853887677615725 -0.025716430929497647 0.26970306519193554
Ni 6.908101184751264 1.1310680893702079 4.998096382919592 0.5240270768246394 -0.9713036389611013 -1.23732591286734
Ni 1.0410319129110506 7.676903821305973 2.6208737279979317 -0.05389083648118461 0.921629925885058 -1.5699626414690186
Ni 7.528442430866696 3.6170932560344355 3.5865417568529954 -0.012760384989461894 0.8534571255635625 0.7486432769802656
Ni 7.635162423687524 4.041734155400137 12.556239283600672 -0.40226760152593943 -1.1605874823640205 0.29750928877092636
Ni 8.078043567455182 7.2953969130684495 8.983859201530613 1.1155898346074078 0.04166138429452825 0.23554493125298787
Ni 6.922564133032057 0.6411336684267248 0.1126626353208454 -0.4965221865361513 0.129721410458254 -0.4142178319092802
Ni 2.474556749525273 6.720292201223338 9.095426876072239 -1.5827595361233708 -1.0945430412394377 -1.4009758577522389
Ni -0.016692918280033806 5.164938187303633 1.166385353007169 -0.023640522237075415 -0.4366093122306029 0.6518188743603485
Ni 6.508536070479069 2.1796181868501283 7.233203504885532 0.3726407797984421 -0.7676087623391749 0.4821330076940148
Ni 3.273741589579847 4.31552896171513 0.446624762790874 -0.6201282281252868 1.2609985738939316 -1.0611001881999595
Ni 6.053330929246218 5.503547754290448 4.514309397639323 -0.5326502997172762 0.2117023203074354 0.6345662579274878
Ni 5.200417465087479 3.0530200692467937 9.447809465927836 1.3548597801204665 -0.9150828687951594 0.3258904110167807
P 0.0872154919580763 5.689044850553855 12.306060314673562 0.013942578223021149 1.6690920380730287 0.13667598739921621
P 3.940393396332582 6.21669216004777 12.747018223090855 0.1454578473569043 -0.45031046386677925 -1.2449502621818174
P 2.6489039957924745 8.799789286066721 1.3098352271950888 -1.6857697558390254 0.3357379932348218 -2.421298092703888
P 6.598226374040386 8.056581243952282 5.8051971613755535 0.27628020418882093 1.6589714046992592 -0.7979362096781226
P 4.850922003737021 1.4871169319429245 12.607048012293587 -0.1326324134574619 -2.9601012993964373 -1.4356919210771855
P 4.2877499068674405 6.083003183113672 8.0986666940849 0.4426154092153668 0.8670662317065647 -0.30132454875195847
P 4.9194412451830924 1.2370508268035305 3.72820310408234 1.4060478729585077 0.9948690849858671 -0.4245233276003463
P 0.3152640565743506 5.821659801120972 3.4165980186904177 -1.5208275745052648 -1.2570280192819578 0.2803086086219237
Ni 0.44677767501939336 9.27503685153765 4.7029166194077945 1.4104223478771192 0.6989135138553061 -1.0912733693492302
Ni 1.896320977762859 6.775012934429205 4.520544211718835 1.7772251808375457 0.2561093856679009 1.8922221406014315
Ni 6.288333359492779 5.7782436505235015 9.158930960499609 -0.813464901441341 -0.31488197572141896 -0.31458089954123236
Ni 8.906272629010076 2.4326788231313605 9.969708913974728 -0.01869449108570974 -0.5813842745878697 0.42899756132161604
Ni 2.761431012529693 5.442719633862168 6.599096517436007 0.2725683025548725 -0.43152932660453425 0.6048160232482487
Ni 0.6858077041421349 0.058222241200595555 8.938938503827531 -0.2641091160439258 -0.716332994883334 0.9034619967267795
Ni 1.7801804994350339 1.1965563920009838 11.186234914866874 -1.1344882141738075 0.8404054345859268 1.049443577797638
Ni 4.148354027118957 7.0699970066961715 1.4329222896185094 0.18880176156017808 0.5409364509854685 -0.7338900299304909
Ni 6.016786727013756 7.927588856894135 7.953021437187521 -0.7155418664406065 0.1565794111913626 0.7470450792552101
Ni 5.330401961247327 2.9259390850451408 5.288546789649325 -0.8713648590819187 -0.06260996152173734 -1.4888865028222937
Ni 1.6115947674924023 7.649698187315231 6.925408482520885 0.030935256126275755 -0.6022644604709886 -0.6505060690861958
Ni 5.546381382112607 4.406120355194506 7.395473415675211 -0.9152703022156173 0.6481018305200774 -0.8941962551541375
Ni 0.87039642895279 7.116098223211096 10.74429217888257 -0.7590711571818088 -0.11844069533811215 0.74867618710073
Ni 4.684857503181288 0.47498087926285726 10.56486333159261 -0.4446694635309181 0.8762946922833682 -0.4566358918641749
Ni 8.18183274256272 7.373218315082784 4.460902981445252 0.4489387803302333 -0.11052966802115159 0.19755662493467266
Ni 7.38436816507899 6.28056032120971 6.537816941856861 0.7382925298735608 -1.9041988533473337 1.3610939339556365
Ni 2.2454705662154746 5.185909007214865 2.6299055615907765 0.6308628409339715 1.01808408964975 -1.0507700099185453
Ni 2.653400343464414 5.350062104914106 11.191803468522123 -0.3468387311336736 0.06125139061131387 0.5838551047258654
Ni 0.9055079892347193 3.4435378766649234 3.680605532188333 0.44120618757266594 0.5500677238627752 0.32832653126209904
Ni 1.4281091951874942 1.2265472130111863 2.5390256372992535 0.7937558530481879 0.27069473968124347 -0.48467248628641696
Ni 1.3306094456696522 3.531917503981788 7.956086053100765 -1.163655579766383 0.7426880878380951 -0.36947806579974435
Ni 3.712936456409984 2.7901202592138072 7.023228619565149 0.05850056733905409 0.2557250057452886 -0.20842596354900875
Ni 4.6713684601654695 7.186692702044216 6.100283175128199 -1.509169678551362 -1.2742896345758827 -0.8420236869156402
Ni 0.6558141525564231 -0.021569726139598754 13.865364561163348 -0.2808215437026002 0.782899112839342 -1.310234428101608
P 0.3497366621871096 5.88567359297674 7.856200690779653 0.45534699784942223 0.035015853953552604 0.14695294384519206
P 8.584638139772588 1.8049013097123359 7.900734556952253 0.4754188288986328 -0.5434620456207995 -0.4286602325868553
P 1.8146221585253544 3.3684288463231358 10.357180309316343 0.6775324770763687 -0.6713253198243923 -0.3111124813766577
P 3.981015257992228 6.463809243637147 3.5114745953356827 0.28649545415892597 -0.9499717102525445 1.6748487380511479
P 7.084541872242243 4.015793688062026 10.21105538132117 0.06653963559344671 0.04061314553567199 0.3468803830048865
P 6.423897331609913 8.167724769098134 10.418166803124162 0.9456627984645457 -1.4967414800903382 0.05358487520499159
P 2.9931294464100313 8.764173479507411 5.245398235451764 -1.528796451643354 -0.1409501892945379 2.5272727943645057
P 6.931793478253406 4.026033346221807 1.4700362719405735 0.45303660454869066 0.3936973433584252 -0.22478229341984513
Ni 5.228697125445202 3.112000500247131 0.3433079772464401 1.418599484371273 1.7470604843287072 0.8130422120816256
Ni 1.3881153658949814 1.0027401423526523 6.975498159663023 0.9127138543423507 1.0484233640632397 -1.7774480954816292
Ni 7.214216903177707 0.6278885568230688 9.217545494381703 -0.25138086984398 0.43638434070399035 -0.45757614429025717
Ni 2.544768947787095 1.769349216581577 8.938112049640058 0.5396940939379351 -0.35967856321081926 1.2717948931784873
Ni 6.623402280235901 1.8597767755303969 2.195702186791594 0.3653650720726353 0.4870831526104385 1.01281024284532
Ni 4.468850776560915 7.150958570546172 10.192046024817435 0.2811223627724707 -0.29147053877601414 0.6890764731602262
Ni 8.133674492497477 7.400551375930625 0.05562910465862084 0.5307620815556278 -0.2374999980968297 -0.3899563882587542
Ni 7.887877187070915 4.096882678769126 8.088075701876258 0.9448693560289728 0.19870487960650296 -0.2895704935398239
Ni 3.285009764514788 8.748618301022908 12.503645668716528 0.09393062601188984 -0.26385329127937784 -0.1323138537757786
Ni 9.354951694775762 4.749026027649247 10.246117791243933 -0.9039736462558754 1.6849937969049498 -0.7626318779498737
Ni 8.928481309818846 2.523197401263823 5.735831441521607 -0.6874973015985643 -0.14102603683779583 0.1730470698290826
Ni 3.5982249792653462 2.8831418648964386 11.49685426249995 -0.43615345564010694 -0.28015691353540784 -0.22832141692135519
Ni 0.9767359615859912 3.7901025203020926 12.510040676559251 0.9985845861642415 -1.5487659527867454 0.33209833959970547
Ni 3.4478794917246707 8.736185080537343 8.032271840385043 -0.26629198262785747 -1.017056419716184 0.5467476583506067
Ni 5.861189432576909 7.89842631045508 3.4960350112144063 -1.0301142813414066 0.9152235081380818 0.65785633880368
Ni 3.461887344087251 8.740936281923481 3.156973989076725 0.12569943378305448 -0.6329053252852971 2.1250717844104434
Ni 3.4113716971656656 4.25536528132744 9.091789749493884 -0.8200700654626843 1.1149182624616798 -0.39107481813391365
Ni 7.236962597169967 6.000676331509034 11.273198283686261 0.4740085788146675 1.6327068145757753 0.1536565811176128
Ni 8.049499951464895 8.840101682501981 2.236506086818525 -0.03692258405796222 0.48397468888844386 0.7531146824880579
Ni 4.714475145538556 0.8011226384743225 1.478734975321287 -0.5982741083646729 -0.9990342721071505 -1.2537403496696213
Ni 6.231819548369153 5.850895162906942 0.2517444988857617 -0.5688182649974011 -1.521188043168477 0.8330626210676105
Ni 8.665253830724746 8.991457482981088 11.256346992026689 -1.1174865374094882 -0.4857063268675699 -0.5438790785535601
Ni 0.4544515023922922 4.873012359607056 5.821130069472172 -0.659683878930722 0.9127459931318668 -0.27177897388435773
Ni 7.29775430992479 6.383876196562308 2.5452741042563107 0.9459463911432352 -1.8422730623768142 -1.1299993251645184
P 8.653193788892116 1.72272919071989 3.378684887935972 -1.55007464429584 -1.08153531612586 0.7570716102532767
P 1.5748139153824696 3.410297670798684 1.585747139721606 1.1714663340600535 -0.7565707593574583 -1.2704918580963476
P 4.632166497770646 1.3248024217532608 8.342718251569197 1.4808818873502625 -0.028423802558331695 0.14802329409123538
P 8.534149798606094 1.6245194915696368 12.346917916018842 1.0491995801076317 1.3448787576483547 0.2657677346932713
P 6.304598487609693 7.918778199917543 1.2276567368597884 0.23258713417624463 0.09171664907970656 0.4608715272120773
P 2.037755687224934 3.270901791050201 5.817332749130609 -1.0920123043977836 0.4131868195416045 -0.10769296990330485
P 7.074274908327369 4.009841033451807 5.859669412210079 1.1147902215242478 0.6991991634165249 -0.1786299632334988
P 2.43614665402814 8.584765566629686 10.221913059737883 1.2748676185665397 -0.4950810832142506 -0.17363662378396547
