# total energy = -340867.1839539742 ev
CRYSTAL
PRIMVEC
9.24264422553099 0.00000000000000 0.00000000000000
0.00000000000000 9.24264422553099 0.00000000000000
0.00000000000000 0.00000000000000 13.52754408486115
PRIMCOORD
 96 1
Ni 3.974595734156753 5.471894827094096 9.604542547244321 -0.6707514495987932 -1.4715053312313688 -1.289952023703488
Ni 6.841516035168962 2.024554965231022 11.703475841913146 1.2775667626652578 -1.8819554685681008 0.32706540516148835
Ni 1.4785919813866226 8.678953671672543 9.139573777446422 -0.8880474619439223 0.6129527934227702 1.9393664023874022
Ni 7.645755464257105 8.465947696970021 8.136317115420587 -2.094820698835386 3.064975826014341 1.7297911557252983
Ni 9.232005763500839 9.090981500634784 3.179703390993138 -0.09103273563880451 0.006867673654110752 0.12193611008588033
Ni 2.951813986582055 8.809995878968056 13.372004158461483 -2.019166759645497 1.0965988953272017 0.5352232026507749
Ni 0.281168626018854 2.863934926985093 6.300359226228898 -0.4029265752661771 -0.815042530341106 0.10473028773055511
Ni 3.12716542943792 2.115742891396738 9.970557721348383 0.5273569125288207 -0.3385703204772943 0.3961018390348598
Ni 2.4452616369532056 4.563740350987796 6.851227281268934 1.3699567836629052 0.29549354389247817 -1.6776867217205753
Ni 6.907776550340461 4.14939261836981 10.83845770983766 -0.5749608875600292 1.7351105110556828 -2.1916103915626253
Ni 8.769550068619266 4.84383867882603 5.235781318010171 0.028903570408227643 -2.439967644088933 -1.6921008402633764
Ni 6.632992742829137 5.3288649104698855 8.41245497028477 0.3437492935750725 -0.15145803080439724 1.4402132059863066
Ni 1.8073066169110186 5.7195514743280675 1.7542251878858488 -0.11417703496575175 -2.1424750674885558 0.10081886849129089
Ni 0.09643959651310703 4.541890740461164 10.04200982968097 -0.2853001482992441 1.0126341222787723 -0.4144260912653443
Ni 4.0262805996664515 2.828683482590603 7.7223603466457815 -0.5063651407685021 -0.25279009148668075 -1.476811573935631
Ni 8.8489905942015 4.302284436191955 0.8814598715703362 -1.354576701662409 -1.4567975927075492 -0.008234214984334206
Ni 0.8814497046618848 0.7219993066241321 5.438600050444314 2.2601254057148883 -0.36733350865291575 0.26681340234896633
Ni 1.6790556881176397 6.944284994325317 12.908199037549076 1.2537647751496537 -1.7233307448119353 -1.0506365696644744
Ni 6.1247674746278165 3.975519998561433 1.338517862328579 0.5263372130150549 1.292857113165425 -0.336460216112827
Ni 5.444878578545303 1.8748426169609766 1.9758332914027275 -1.5431632618879876 -0.3484078753930064 0.5083790858747375
Ni 3.881050933759103 4.575007134080844 0.7034659567814914 -0.8225858899060028 0.6616610572617507 0.51661407219002
Ni 6.066982464047231 1.7375154117136415 9.529180800479939 -1.911598231135198 -1.058351678920545 -0.22818334868159412
Ni 6.269803045010181 0.970884301251923 5.348831794404185 -1.7173506159691003 0.7135924560237195 -1.274925725497985
Ni 2.1310949231584706 6.5916134254316185 10.41960418824686 -0.6920363271194985 0.5803738310454843 0.1849088542636751
P 2.3367252679116484 2.4669818504631826 6.1120283383381135 0.8945806350767497 0.31708412557906035 -1.1101336965888429
P 3.849219267661929 5.702489553417677 11.877048075790002 -0.7565833577629486 0.38326637783308837 -0.34397452221200114
P 5.2984196409797315 7.577581721767917 8.775290674836732 0.1614195128924833 -0.25547715140054067 -1.4487531251365178
P 5.072714273356907 3.6149644542958157 9.241382425886316 1.4557830354001058 1.1948263489422326 1.5853658633979664
P 3.7578649739033705 7.113305226009125 1.1639326346641936 0.23989189536777392 0.32253177895719287 0.7132222171684942
P 7.12486777371167 5.69381995330178 6.334881426008096 -0.47777138829120946 0.494534209571845 -0.1355516439867859
P 8.225851532566333 0.0477706057558791 12.458719090644804 -0.6014681898219383 2.179625194176291 0.9119798043898036
P 6.838891124259671 8.571544905204696 3.7992516854161256 1.3602593538694832 0.939063805090789 -0.6891494924900066
Ni 8.724824914076807 1.0219776375426264 10.180829721941862 -1.36140118078341 -2.2721890217476415 0.3823544075417802
Ni 5.145638734886149 7.452990880017071 4.678704054699497 -0.818455412677397 1.2594651679685407 0.10443101132258142
Ni 7.910381605960998 4.98375382440647 2.746510831428134 0.7859319861283949 0.42003083904663147 1.6041948231790113
Ni 5.579479203798833 6.609202177052676 10.695972184947808 3.2848575968087745 -0.39360504075493497 -1.7957618061891527
Ni 2.4009154308166654 8.149645932400476 4.702444710198105 0.5108992811934299 -0.283310371562725 -0.17648103521129607
Ni 4.789695269999885 1.2053054822108786 11.70217725042457 -1.3369039669729943 -0.8809990397375731 0.313844278485524
Ni 7.842651510386057 2.798561705642086 8.836814334934248 1.153760175029542 1.5244659425888003 -1.1141957824733584
Ni 8.097341809739643 6.849455466405162 4.547648907702319 -0.2528217160555646 1.8774856057222051 -0.7334334020090466
Ni 8.233338074244239 8.989959401203274 5.756754040880837 -0.8677295763221764 -1.1154237413431884 0.22855590152966446
Ni 7.103739089420689 8.864065346641828 1.3736815016046244 1.549742457767402 0.6626067090044717 2.407418763618635
Ni 2.397717475976473 0.7022403821808859 2.000548121583867 0.5613407256734332 1.53194733856751 -0.3940058757377795
Ni 6.140221175474064 5.230014832389375 4.167322423556195 -0.40916561419735337 -0.6723540181992227 1.4377858274917366
Ni 6.1922295335254 7.758756030373266 6.5678117684823025 0.08223776305499385 -0.2476080330651091 1.2849501996135224
Ni 0.859867206548205 0.779081876257161 13.41749737672423 -0.805079248480807 -0.08875628089980198 0.28256783696974563
Ni 1.0804743317148153 6.358014839792828 6.1014907998603585 0.7190619637787229 1.2739538485030188 -0.8071083630956939
Ni 1.8905088986203005 7.843067429368164 2.1642584542627894 0.16591380121841104 0.30326624585936157 0.9490805658968428
Ni 4.760220478134643 0.5160436208005074 7.745600975101457 2.027988728812501 -0.36918547425999 -1.6736472615438789
Ni 6.498576970456543 3.480234432025631 6.415221260856084 1.12448430888356 -0.2375642756758618 0.8126519186217424
Ni 4.488006125668328 9.056219916374774 2.8471558309825347 0.3118665859338629 -1.2815190624447865 0.6856314520344192
Ni 7.333206213170559 1.9875381758235933 0.5984445652709319 1.161685857634522 -0.7178576590579766 -1.0858259730814137
Ni 9.177196884303322 7.933765495399399 11.217729608298045 0.6022045537673306 -0.34216806513088166 -0.7182520662829179
Ni 6.650590737094241 8.838472465276244 10.561710764730796 -0.06565440477501595 -0.33622264618072417 -0.18360787606406445
Ni 5.037527527470745 9.175274414341589 0.4688312707450549 -1.572088686673086 1.8479546861426237 1.642415557223107
Ni 4.313052116506475 7.871941449370362 11.899760949270606 -0.6693491699346279 0.2791806656650676 0.11283260512271535
P 7.258655046289082 3.7757679754220193 12.835583280330999 -1.4225517841508017 1.083215274931444 1.9287145791005105
P 1.4724456230955016 5.493208364266014 8.499517904412398 1.603220117970568 0.6554366736185937 1.582241715946688
P 7.081695383369074 1.1954713089450848 7.274288054429837 -0.35766256122205503 1.0608155670800055 0.9419328991084681
P 7.389854378533389 3.243391678326414 4.3746450964343415 -0.372454631929565 0.18334716620351002 0.06787198125162504
P 1.251426276004404 4.797394392490867 13.416888286481546 2.2276744842750347 -0.04520590711267698 -2.0860542654966654
P 7.500091394079557 6.2050028675980755 0.9225554397956174 0.20129192360738882 0.9477106821325098 -0.4374703746793176
P 0.8632176650151696 5.948602679095832 3.7335346377145773 -0.37128889375623797 0.269522059529381 0.20865376328909874
P 0.7931879996013852 8.242700872663645 7.160507409156126 0.4037876377148917 2.148832377165151 -1.785385348050835
Ni 5.891150403700932 5.784970908891309 12.78469235794492 0.7688112672877082 -0.9449919976497663 1.7344530799773419
Ni 8.641437779486589 5.762594467654009 12.258470737520078 -0.1560639050075248 -0.6148453824597927 0.22515741737107675
Ni 2.247718605740977 4.168672773851432 11.18542564309008 -0.06369265306295481 0.48384099152405696 0.2527044737514099
Ni 8.862512582441965 6.81342763991074 8.201479604479328 1.717697200675242 -2.5727941758350723 -0.024449134181299827
Ni 2.860228626722327 7.454358791335997 7.721603374098349 0.6795621059118877 -0.7958011656129906 -0.48788945056181776
Ni 6.111051390862367 6.915189150865995 2.5245644471391433 -0.3988189808557067 -0.013859788701227742 -1.2436328289219745
Ni 0.04116303952682271 7.7997471567208185 0.5654788267492149 -2.3875233102462885 0.29659963247246335 0.6826551430149147
Ni 3.8256597679866386 6.086428987121695 3.4762268215669385 -0.9289598838875679 -1.1068935923849905 -2.475861786882381
Ni 2.3019544410075916 4.035070354154957 4.066487949798835 -0.8592261668368557 1.397295323576858 3.3028085248602412
Ni 9.109032384458182 4.644253023279459 7.46321324433283 -1.7502568797788178 0.025687891684407372 1.0009507724035729
Ni 2.2107480295537822 3.2047574262107954 2.0724605135899847 -0.6190977299782434 -0.45316850214086474 -2.0075834256832716
Ni 4.67349674904353 5.897546313381317 7.15337855780283 1.469604000443598 -0.802142020229354 1.2914507197362017
Ni 2.44233171879037 0.8689231491852585 7.549884290352876 -0.04683495807566773 -0.19153921509599917 -0.25132661956727687
Ni 4.033896538361014 9.02256744940038 9.732499559957013 -1.109373935604683 -0.2604056990504096 1.3504598512805581
Ni 2.182826001888403 2.6941567984894474 13.136813989517835 0.8084273390174336 0.6005842445550883 0.21903407808215827
Ni 6.476792058438239 8.210517986092691 12.876950582291256 1.6279507879480286 -2.380343504668397 -2.3074077357406195
Ni 9.18026544212686 1.1017971115307799 7.799305358335381 0.9172888753075428 -0.6264603409909018 0.2566511171039838
Ni 1.5870174386996183 3.1700235698829258 8.507918543586534 -0.6442652303828066 -0.7635068243556593 0.7503929126815205
Ni 7.748247144092056 1.7664356449360747 2.8327761253745254 -1.5847367144544 -0.7385465548658958 -0.10602792349605612
Ni 0.23569574157300907 2.429170193667729 4.068476042533302 1.4090756040412378 1.14801761611881 -0.8787027875042286
Ni -0.07226638527310972 2.890202521366095 12.437521086523471 0.14550849808918168 0.08633738704566421 -0.35755945998528743
Ni 4.564091571461574 3.687352842470343 12.104987390478938 0.6563941524358566 -1.0766057400347264 -0.7421967500239735
Ni 4.726956202210214 3.4584495200073264 4.959143436103059 -0.31457498600396144 0.5892618775637336 1.2223389525402046
Ni 3.571570240496096 1.678676739711721 4.172205312406119 -1.4976771045307304 -0.881161019236734 -0.5069788630931011
P 0.5751309199272868 1.7917512469802563 1.8840353507299228 -1.3118814767867277 -0.4345976811172128 0.10841287878846491
P 4.076754678806019 0.1505257009461637 5.647938543989066 -0.05335090481731457 -0.6385380980910422 -0.14116024842281497
P 2.042929341596058 8.782277189471706 11.282052865277336 1.0605463725790187 -0.2836407583189502 0.6189506628774178
P 3.5319932386877038 6.087279310374001 5.529085535662473 -2.249029552912043 0.48680290236585844 -0.6428212988474283
P 4.125620537881444 3.6827315204469437 2.9639930186425216 1.6406990887526325 0.28768664625354967 -1.459780329484957
P 8.139968884083478 6.383284228616776 10.087637990546801 -2.237481957283759 -0.32363812464749425 1.6340461022124892
P 4.128716823637122 2.068180245131912 0.199571791580501 0.6472916759139561 -0.45742290654184453 -0.20144773245896272
P 0.6755152769195675 2.564029612954569 10.490853882674822 2.69363396753298 0.7129345107247463 -0.8164805483392132
