# total energy = -340855.3219526894 ev
CRYSTAL
PRIMVEC
9.42820815211772 0.00000000000000 0.00000000000000

0.00000000000000 9.42820815211772 0.00000000000000

0.00000000000000 0.00000000000000 13.79913564850503

PRIMCOORD
 96 1
Ni 0.40294180951072844 4.835520448553704 13.306768140366646 -2.8647038590310343 -0.610607176008729 -1.2226744815027524
Ni 4.4233663370329825 8.682163303904824 1.283235674314068 -0.202827900635941 -0.2268180929029513 0.6795523357198748
Ni 5.764594918586303 0.8016776954448952 10.499983084367372 0.05849722490494441 -0.31457987109996793 0.7745430275651629
Ni 4.842403040373678 9.147916777749584 8.46850219765133 -0.8434005126585088 2.751379916094197 -0.38861118708476944
Ni 7.321672893463551 5.195951411136931 12.959913797263917 1.0279226730067266 -2.1937060977493896 1.3166349323113131
Ni 0.3990837868083544 5.915606525682893 5.2033506687538 1.36990664715126 1.8657366927163932 0.3083655147591399
Ni 3.7632503558337738 1.5240509623493486 2.3182822591375114 1.2429525150254983 -0.04745330838595698 0.18242336883766003
Ni 7.011569705037883 7.107492292950769 2.3957924997007733 -0.22605550370531394 0.988568082468504 2.2438750052942966
Ni 2.8406153518464374 1.0694604867441064 7.265493030617423 2.549045667265223 -2.3900586750736323 -1.525494898073947
Ni 4.9881254227976575 4.654036873289781 8.076771470240782 -1.01870038307751 0.27100892848755265 -0.3396548117907247
Ni 9.435561974784601 9.473086242515414 2.3214143098259976 -1.538363783616815 -1.3158990825865533 1.1356444392654377
Ni 1.8201249773118389 4.694747875315322 10.001254453138563 -1.1825539593327827 -0.6150523562642762 -1.7374206472460982
Ni 8.191236514773314 4.2064044151682936 9.813848077626272 0.9838084562963315 3.771775684596259 -0.8553368590847786
Ni 4.586248057967032 3.881706360801093 12.3586024920104 -0.29801271076990615 -0.055359964827543365 -0.6463884473733965
Ni 4.40594300869968 5.9866292163402335 0.9478818592962733 -1.1036342049074284 -0.30944177854245414 0.0368513645003946
Ni 0.5665674160538141 9.441784592046496 4.836418013952693 -0.2400191649742576 -0.7443701035262084 0.3209058133179957
Ni 2.2852939022623002 2.802110550486478 11.237574421760343 0.8447999641091967 -1.4274803318006704 0.4331419225072927
Ni 6.340752707789812 8.079389683594762 9.714729327210685 1.3274405075672495 -0.5202681240028395 2.088940843015841
Ni 8.642008566149666 8.207141901623032 7.284812371574008 -0.7775756437438995 0.04042365523268522 -0.25821383360541333
Ni 2.6644775705029593 0.5530558512083298 12.50621145884969 -0.5098736681423929 -0.8622734383036118 -0.14471351299171206
Ni 0.02548161768745413 6.877604297955692 0.46886572529650444 0.6202020187860158 0.12108353227759791 -0.15562758880105457
Ni 8.505054417140173 9.222842746507567 10.786591178525404 -0.862631592973979 -1.092740697923376 -0.17214255573694223
Ni 9.014413352858051 1.933602888469643 3.8095409713374786 -0.36487373425851355 0.9138646801173422 0.33571022532067996
Ni 1.5656293595083648 2.221625213823562 13.714933177094178 0.8768024851577222 -0.2542095975420267 -0.46051645786550366
P 5.215250952856773 6.147427303312345 6.509548743585053 -1.187698993868832 -1.6259730953963676 -0.13527859283105734
P 0.5019181939859291 1.042401529862842 11.968031434180475 0.2283674396679422 -0.6516280985057811 -1.4232110150013555
P 0.2850354690682098 1.9474152131494524 1.5743985357436485 -0.5953407367679618 0.9609639475979903 0.20117056753817608
P 2.0283092375540686 5.552431954579651 0.6312845212191017 0.925087288306039 0.612952536312454 2.6274396310940946
P 8.995575793328864 4.019791894767295 5.254213965124199 -1.058093540163152 -2.462614692064488 -0.6943539195090817
P 6.525507871220215 8.111634154860939 11.905990997258598 0.22965324835890127 0.04354728846333145 -0.17133600067524685
P 1.5967707304417504 7.289956401843838 3.9037476253993577 -0.736807460687602 0.5620552352419547 0.693520882084825
P 6.595427461544765 3.470485641869654 7.37065620516422 0.8141395589108623 -0.08069253005506104 -0.5187812550446679
Ni 2.6514383588769004 5.143681426137024 3.2925008745843503 -2.0314430059096886 -2.2296334077736177 -0.5634315467641909
Ni 2.615168042806439 3.3950411216731813 1.4186200266961295 1.7774352399658226 1.442547510546438 0.9215432797085226
Ni 6.401790926204205 0.7528838907244745 1.2078269813078906 0.22221016181729472 -0.2518652656795662 0.2853639116576441
Ni 7.555586733262913 0.4264321896743767 12.820914669945173 -0.4770584213845849 -0.5325142883600442 0.7362153356295579
Ni 3.6231094725295527 6.961411638623832 3.3340095030043697 2.499496652692502 4.2977292890196495 -2.9182640516456773
Ni 9.702191696248768 -0.117565982134709 13.780244259361737 1.067281634420323 0.0960507576786862 -0.23127947110841457
Ni 7.486789099687099 0.5135082900466045 8.755979572584437 0.35376245483670044 0.9972566113814373 -1.0016141170191848
Ni 5.031155763984449 3.4495455919625853 1.1007574231090393 1.3222080555237166 1.9507239934920662 2.4446007719855705
Ni 9.034834851326629 2.676649386995542 8.401065054485958 0.08031612055224877 -1.0331818645231368 -0.6168058486202732
Ni 1.383683802053786 7.98587128871488 6.603189705168578 1.6499625163324294 -0.6061393700453626 -0.6086066006389326
Ni 7.9781024453454865 1.9896630130745205 6.402205767354997 0.03876837901744936 0.47716075129040403 -0.7281775529267459
Ni 7.6082715594136126 5.1135205888327855 3.8749218223440343 0.8821287824666421 1.085959927556117 -1.3753679273761474
Ni 6.080402172835375 5.79052249051086 9.773209672802121 0.6953278533865768 -0.08769004441881673 0.36193830577927344
Ni 4.5242764469633565 3.361665265450297 5.860162063058624 -2.0335986188001107 -0.5118624164376475 0.7446668088310208
Ni 1.7016218313046567 3.932514973565251 5.4381564170273675 2.173183552316006 1.75194892276926 -0.8683229869318013
Ni 5.560370505692552 9.23435458844207 3.3806499050238563 -0.5586351538168122 -0.8586037027615084 -0.7108956259178466
Ni 6.217243183349197 2.8667126315145004 9.497033890765731 -1.5979290447749577 -0.8988070144532714 -2.226750172688552
Ni 8.936451501132902 2.640049083646041 12.840619624607838 -1.6731142718585446 0.8831073443298275 1.8284089028002122
Ni 0.1435001538048463 5.070113119327092 8.227471946474276 0.7950722578667662 0.8328067963030625 -1.0122186320079083
Ni 8.111030749550695 2.283775960778717 10.74553887537126 -0.11762179898124259 -2.9267160390677724 0.5476408595888375
Ni 0.3851564379912799 6.699609159641619 10.143965465936104 -0.0014056220982749986 -0.0001259840549030088 -2.5127401479659692
Ni 5.476318031617126 6.139479323991473 12.30263287820206 -1.4395496042603788 1.233126530074012 -0.6958772981321435
Ni 4.948046110706279 9.720482419715545 12.779986819136264 1.426699487770588 -0.789155378161699 0.20765514682125527
Ni 8.523279143151143 6.75928028789999 11.863157705618436 -1.0957692003370547 1.047424747595396 1.436850460161661
P 6.457728484105439 5.57443739198762 1.2113323890320906 -0.1475332418286943 -2.0849628322047 -1.1169322075679151
P 6.5938718072292914 4.103702945723132 11.057661585944649 -2.117153815114947 0.9390188107854668 4.0924467561956295
P 1.8983225342363013 3.9534455952643475 7.77531583416755 0.48595392410200183 -0.5949291031518399 -0.6085626347748746
P 6.177833274023872 2.3350371275255584 2.792296728807834 0.225435867843444 0.5978709593889833 -1.4179502808230484
P 3.5816630702821524 3.2664403649273805 3.7364883875036448 0.09233165695588615 0.5057807290199419 -0.12510833716627487
P 4.844250969136302 1.1390406615816435 6.60205832021187 -0.968297505144926 -0.21733329334096763 0.36695427093662614
P 0.3346410424950686 3.9747627734903195 11.287181880828797 -0.04070416258758151 -0.09383292409176097 0.7912084040359857
P 0.7070665712609926 0.37000059367538013 7.574773136487085 -0.6835437162674551 0.38025253070742904 1.0431045229534874
Ni 1.5023000865566392 7.570275881284171 11.90777104292382 -0.16265184263768762 0.37676122972471887 0.7004896000931742
Ni 5.085688518897771 5.2385291983410385 4.094534956290609 -1.1189091287886277 -1.8668628359010364 -0.704070375465897
Ni 1.272694937800739 9.487417118633715 10.162994418087134 1.3375115186500062 -0.5509472982542511 -0.7037487304604202
Ni 6.331918476919517 2.4714821533045335 13.269096792591464 1.1943465810923364 0.02198267491867827 -1.4817563195354158
Ni 3.861360287996295 8.825340070176212 5.38629938753666 0.1430384392821343 2.2023537461220584 0.2213555271264833
Ni 1.104684271729613 2.100340746464473 6.35229377716903 -2.9484878835272252 -0.6770619651978533 1.1349576976110582
Ni 7.9435857759579225 5.405446192287347 6.530979060306695 -1.8839236480380652 0.33193276055611864 0.4422127744603094
Ni 2.3908804033470665 1.7368644727061084 4.571004531316987 0.7558899312403498 -1.0264296334009677 -0.6881914994521116
Ni 2.4366920658857647 5.076260310925205 12.48162174963644 2.3198984120084627 0.20973491216841947 -2.2297671051380052
Ni 3.555132093047352 5.88190068218097 10.136885824569504 2.4629854451403452 1.461380069871909 0.8140310583574561
Ni 2.2057481115977606 9.221400230687765 2.914294911510446 1.2058594668279425 -0.5939328006768416 0.4441511291336028
Ni 5.556240950600567 7.247604891631073 4.784118801508072 1.6472839410590019 1.7136279157018746 -0.21842601218451416
Ni 6.529496003192611 3.763976327847661 5.121231920133548 1.694505850160443 -1.3951497379887652 1.1884795807885984
Ni 1.8560935907271783 2.0663709131393175 8.832178349418713 0.08133247763190508 1.1290050795720492 2.4117909245444014
Ni 3.578664900146877 7.615653846256132 13.126965614584234 -0.07775633024487254 -0.5543928336006904 -0.16194016128264369
Ni 6.593268401919047 0.06289368974339327 6.236215566252392 1.0499873661162498 -1.614521144805684 -0.068271787793205
Ni -0.04292474525749848 6.21659263699909 2.8359568742871923 0.6625275190271042 0.5500607818842398 -0.4119678595328389
Ni 3.241785601079121 6.705633784536088 5.473178438362261 -1.519834614464376 -2.3010033748761725 0.7872414489684378
Ni 5.8105668606605345 1.5892093076477523 4.744625923952587 -0.20084866542238314 0.6457281880815783 -0.6430272442106474
Ni 0.4539399292551352 4.054280279530941 1.6861991687031335 1.4297040789248667 1.1934009293496155 1.4389878182196378
Ni 3.6859579068746777 7.362242472369502 7.6349100182193 -0.45596946192476956 -0.4105609518829833 0.7855542910740019
Ni 7.815145298747655 3.7016275885250822 1.325038462822831 -3.1643600189416343 -0.5182950594368687 -0.17712201122940463
Ni 6.289585823122696 7.5842390572915415 7.5399990770218706 1.1796966923896455 -0.900453548917759 -0.6607922815035523
Ni 8.013156522587487 7.428230499969493 4.915817667393657 -0.3281568384534542 0.5385108722631113 -0.00568702308244827
P 2.2784584514821895 8.746718243892985 0.7669988608802029 0.4120465352895743 -0.04447031449823309 -0.3186987783643479
P 8.086668260149583 6.594164081676441 8.619257357491067 -1.0676171633828708 -0.019195856202160487 0.8925746603903143
P 7.629994150582404 -0.14641629853076094 3.901387744943824 0.8972548394748031 0.5072334023060684 0.7728651256421076
P 4.161629855506577 2.060054013797698 13.721556493194905 -1.9235777720945775 -0.9851264037768066 -1.0760596377232694
P 4.133100098181592 2.0980968329670024 9.875489701350908 -0.9618319520252403 0.15173802393866126 -0.00597138709208649
P 2.2796369774787606 7.4328314654601035 9.374042917763608 -0.28178313628492113 0.34530995319397306 -0.5481226843212624
P 3.630859459483002 8.338156279609809 11.051851924191956 -0.07971139708871433 0.379336703761379 0.3277151229303453
P 8.001258124126108 8.326163599068705 1.0371660459756762 -0.5901242255640289 1.796760422656996 -1.257442481111557
