# total energy = -381170.1030479669 ev
CRYSTAL
PRIMVEC
9.22269508830386 0.00000000000000 0.00000000000000

0.00000000000000 9.22269508830386 0.00000000000000

0.00000000000000 0.00000000000000 13.49834650603654

PRIMCOORD
 96 1
Ni 3.7758174974042418 5.444903970237329 12.17067612928035 -1.4954759831143536 -1.5622321055939805 0.9611596085485639
Ni 5.046686440156063 3.867832326660362 5.174685458979049 0.6234305530256424 -0.652671966389263 0.5596569102131072
Ni 8.805451174275293 1.4461278182007606 6.1259548139680255 1.3372806335861227 -0.20693678059799198 0.09979942608784102
Ni 4.149364318027741 9.055183312853746 10.256407995643189 0.6365274954189167 0.5771992899722446 0.09203520876138988
Ni 6.66175558764555 1.0131591728907632 1.0438043442501135 -0.7014419367041145 1.091912545595126 -0.059912874305548425
Ni 0.07440593745510729 5.624405285443491 4.1591643538669265 1.1458170089230653 0.9644999857757065 -0.022897730533779918
Ni 0.3326155773919083 8.347166230848822 5.398056368083435 -0.9784855014215211 -0.06381349491153526 -1.0553830832105244
Ni 8.923095873282117 8.287393943747597 11.466966968168032 -0.6328184219984456 0.21658150277660765 -0.6026940918092395
Ni 8.032801444838586 3.195294952798997 11.320806618106085 0.5499126863421497 -2.0569781740663156 -2.183294672608078
Ni 8.48702840241032 3.5212895573611003 13.502260840844624 1.0598588595936906 -0.3386901338846102 -0.11953212863007802
Ni 7.390357725168132 8.617345084518067 3.7493686523264924 -0.3184100434793355 -0.42719650355713523 -1.0180581215078208
Ni 4.0219988983598025 5.738619141864038 2.2935717605573123 0.8366143429746107 1.0050699367782692 1.7091187149776115
Ni 6.868740534322419 3.7066103931907577 1.5625145415926163 0.7334166898384983 -0.9277980023689828 -0.1351829477934575
Ni 2.3172759315660407 4.509455226464745 3.369578989373287 0.12388449206150276 0.0011325709425464366 0.15786521988232166
Ni 0.8210412107544246 3.3725828211753037 4.7743919002252815 -0.6520258481648319 -1.003068590077524 0.6787761196754826
Ni 5.129220338824303 7.318623602490562 5.103603380846775 0.01953267071628894 0.6939757102340564 -0.9854429065759609
Ni 1.3531814967370757 2.028734691904119 0.033564154366222336 -0.9416127967648881 1.5325736592975994 0.882112584516726
Ni 4.867258906510896 7.542366186208462 13.374876975786437 -0.5450209054674872 -0.6982843649117393 1.1482970950324418
Ni 4.6366730830106935 8.741537897063214 7.041992551312288 -0.6637297668653214 -0.9576027444352411 -0.859050817601256
Ni 8.903599095789138 0.8038731637803573 1.3755087193637314 0.11794987174462268 0.4111258232475178 -0.143787658743333
Ni 2.981319203217835 2.019428992523601 3.629664525498391 -0.2319297030979038 -0.0753880871230121 2.255057247163361
Ni 5.375023609279763 5.216061236115636 0.5795329494183962 0.2059420207848905 0.11854431079551196 -0.7179648740598021
Ni 9.072494311602242 1.6010690962906504 9.08650635230474 -1.2266535207551585 0.2109775263262689 1.0595307868303108
Ni 0.20849101279068283 7.938444051020868 2.718769362955492 1.0130380425854102 0.35804874091688016 0.09932377200300313
P 0.9941235301540055 6.023766429720181 2.1535528031786995 -1.0539661482583398 0.09041464243883138 -0.15715919495423256
Ni 0.614607781245995 1.5122729876329446 3.325614401715281 -0.6031977709185354 -0.28618872155178454 1.0326038805324795
P 7.486605771486351 6.662484180560377 12.181285917751458 0.8540551641588775 2.260133119024372 0.5383419507854148
Ni 7.566833996373491 6.499279367639027 5.354929201142724 -2.4460038229806846 0.8501604570901617 -0.7871200928992251
P 2.6210346181832196 2.9147221217245556 1.739059060741896 -0.3984451424560557 -0.26978251227961925 -0.9913456452136411
P 4.487274644690567 0.3962936758783156 4.684182874674518 -1.5537626346703886 -3.2392896783709886 -0.7049669191382375
P 7.776991550173153 2.40930920621241 3.037047338507011 0.8417835458803761 -0.7017635817095914 0.0008518064773340169
Ni 2.172498063503238 6.314760906285193 5.405790520214755 -1.31340151297568 -0.04722756552839609 0.27147275549784855
Ni 7.322100558552461 7.641122805600519 10.02146906004427 -1.1218216744497322 0.028359782089615673 -0.6763127457366546
Ni 2.8293015194823794 7.942031679424258 3.7436183019164297 -0.6140812506002585 0.603998926663592 1.2020704320991555
Ni 7.597554793832861 8.001905416171851 1.1960719630234402 -0.7236521542525667 0.49900561507963737 -0.10223554633315941
Ni 1.5897528493730138 9.155812139356055 10.10823709804412 1.006365258550925 4.484587553700212 -0.15881035740441038
Ni 8.335923765492181 1.2111058783457216 12.370640760428529 0.9007960198588422 -0.4170519589239656 0.6679597457862689
Ni 4.620819270091853 1.7826547405949262 6.174076070318598 -0.005277960569487685 0.7427402812322692 -0.989313959495593
Ni 2.6237460905497927 7.206623192899871 1.4584696288162304 -0.6559722344070895 1.7536952160364054 -1.0259097563417559
Ni 3.8110574154745667 5.013724527781465 9.314210083578569 -1.1220559019477254 2.611915053095934 1.5532005915193314
Ni 0.7272971261624791 7.358299636915723 9.579992478482014 -2.8528914397771383 -2.5523742174178237 -2.04271112262434
Ni 2.3274670096785006 4.893377579103193 0.8438111227470513 -0.3885733918682986 -1.2434032294096715 -1.3966021541645754
Ni 9.109597214087696 3.904999788011687 6.968481215284248 -0.7609737735211604 0.5061185719753347 -1.670792308593587
Ni 2.322615872043067 7.350248224072124 11.281513325528586 0.7576873894604047 -0.6530614885181979 1.5474174091786512
Ni 7.64110436021027 4.081974084753764 4.92260429995241 -0.16565823356417922 -1.2773690448321549 -0.5406088924427206
Ni 6.845776023462667 2.529729936451677 6.539409158664309 -0.3192029716942761 -0.08740722307107526 0.6475475006785042
Ni 3.973229286541985 1.2927543982820187 8.162977019710928 -1.5395500906154322 0.21761354358554783 2.93897197361699
Ni 6.976286382168027 5.579167965858318 3.1463833114762636 0.5226255684914225 0.5825572118500483 -0.39766584108786995
Ni 5.051334678498761 3.500400152904338 10.379216481650163 1.2873742356739828 -0.0777784417320596 0.5319751280271225
Ni 6.427517576876085 7.295207179569715 7.175680128488002 0.620094546673874 -0.33245752271133716 1.5849120636899994
Ni 6.598681575689791 8.804907035262953 12.51408779358488 0.15194782595662218 -0.296048902175316 -0.9076035296989788
Ni 4.515597541417594 8.772065017924971 2.436681243072112 1.3642743885661472 0.15763099238432854 0.3752165109454183
Ni 1.5618080831460872 5.563443270671219 7.853958630064305 1.1116326497318725 0.787811719649611 -1.1630840235336293
Ni 2.1684216322582537 8.187023352708772 6.789830232568556 0.5292335607262434 0.1018665930295149 1.2385165907413314
Ni 8.18338961082976 5.829693256217469 0.7323917429491966 -1.1772873116172047 -1.303696112762458 1.0317261059132166
Ni 1.6777189154695236 2.509799692287853 7.3271186269696456 0.1305238517548913 0.3942904968577339 1.5682279181660992
P 5.221945315605002 7.461501595357739 9.01248131215827 0.42638480628911735 0.24399846133697978 -0.9994700740929884
Ni 0.584340740386745 3.884885089945375 9.146168889333985 1.8440162703201661 -0.3660484712929051 1.4939461767333884
P 0.982300035004527 2.2461136159861845 10.939478609606129 -0.9214028974759164 -1.945064995434076 -0.17860888018757626
Ni 3.0523892918464473 7.545741692623992 8.98115181682069 -0.07664432812761639 -0.9177043655784065 -1.1956642714624957
P 1.7441130976700663 5.568654093416503 10.047426335471888 0.6944354234792944 -0.9159902111007774 1.021269686466583
P 0.06483554672451929 6.3471325661718305 6.339255462266082 1.8490692593630413 -0.040720103427181485 1.488532719027301
P 2.8506797267807342 8.371200574343003 13.140802206720672 0.4244456802848755 -1.6251894231528077 1.0962194005005959
Ni 8.277147529464392 5.78003826566771 8.280831073897076 0.6289769367651683 0.9879551314748534 -0.5604033014608285
Ni 6.82988531976333 1.1008301127432925 10.358887817056962 0.186944139526149 0.49708140147373103 2.081314693929151
Ni 5.236258938438068 3.9965073690359656 3.010252642362097 -0.7281587838736686 0.05016170845605555 0.17035769592237757
Ni 4.856588248251968 6.853781322830645 11.031145743256058 1.6860235237210448 1.0838009722315851 -0.475087156590827
Ni 7.675569571890145 3.529018175875346 8.801542596081573 -3.1266218809609123 -0.5448203594209069 0.26540366648563324
Ni 4.578911343446587 2.0441273700667395 2.0347810908276744 0.776636933979714 0.5077717913080417 -1.194073529936608
Ni 1.3160324807759998 3.9739671021519367 11.974734437745438 0.6731114651905376 1.668508911876049 0.29547040396402663
Ni 0.051940374401585734 4.086603877706212 2.4525682576934 -0.6261412670885862 -1.3616814310279903 -0.7870244478616253
Ni 5.887897685147547 1.7242012988964908 3.956243848931381 1.5225401863209973 0.9077120302523851 0.2527168150465841
Ni 4.15867001740826 6.207925205964164 7.103977362973857 -0.46130552942570224 -0.08302040685728927 0.027535486416107417
Ni 4.323396575025135 0.6397894280136518 0.3424783275579398 0.4047242905965482 -0.04518122452232864 -1.8321362310531286
Ni 2.264079426088512 0.545138752490978 1.6981868427591007 -0.23753445087919092 -0.4196829687889094 0.07853691716463894
Ni 6.91034411202858 0.11786512142029644 5.832473898797476 -0.6877394995163576 -0.2788559353357971 0.7441258487258863
Ni 6.530267623257005 0.5661600414880189 8.316466645588237 -0.5580792813133421 -0.14150734734958853 -1.757929308722411
Ni 0.6086757437419821 6.375252563606121 12.924450690875465 1.2786219434026496 -1.0165895073820943 -0.9806675966745045
Ni 2.714017830427402 2.7578440776585427 9.686481405466365 0.2905446845276351 -0.21433975793028248 0.6840970176677639
Ni 8.740228274355548 5.262082484786383 10.780548515874937 -0.05889960254968567 2.195105806310394 -0.19875887277288992
Ni 3.8139441190485033 3.078618636780236 12.742884414230952 -2.1589401550231138 1.8538157729090914 2.240698150228212
Ni 8.506534402598422 8.409124296694529 7.955925669629164 0.5444298088507076 0.3240641564413193 -0.9445428259274894
Ni 6.208810584696106 4.820582846486317 6.807229769190245 0.972142847032945 0.6991652248547959 1.437674755835169
Ni 2.592803948407437 0.8525468595688812 12.131166103367429 -0.3434402469750859 1.046520747723888 -2.139346549161903
Ni 4.687849818255979 1.6102641233296755 11.5548408073133 2.6142460152219558 -1.943870975125975 -0.7316781098808367
Ni 0.6808691566367462 8.560616286807894 13.357869403707534 1.2730313366887493 1.3955821975404932 1.9532722138352165
Ni 6.678218098442601 4.802017561200904 11.941231153167037 -1.9792218438214428 0.27880708437573276 0.11523941479199509
Ni 2.785051028275517 3.978910466738614 5.836388010608271 -1.2943835771122805 0.0519815352736137 -2.1387749929291493
P 3.9395941174233045 5.539648717250271 4.646778390058496 0.36166036952753844 0.5021395327229288 -0.9547565332356976
Ni 6.316651558785694 5.524643392282875 9.464351871125723 -0.7499877068233018 -0.5682947883937631 -0.0416385014763928
P 5.84539950601432 7.037331401196417 2.093930846008002 0.01189186634157952 0.507134671944675 -0.6035140166073735
Ni 3.8583237279871074 3.737617094198984 7.614444315414172 1.3879030837286808 -1.1055555902998573 0.4789273562725236
P 5.583327401359421 2.7252602957840435 8.444943400018667 1.0415914287430705 -0.35451373118042817 -0.19075965661749728
P 1.155317795538237 0.49309600617351146 7.997108692437652 0.9376121602459272 -1.4327937735937841 -1.6203431508041
P 5.907099336396543 3.1759826292085074 13.153382885139864 0.318123108366536 -0.8336773718334738 0.29542823787218153
Ni 2.067414675255845 1.0905099168990908 5.71762921003042 0.5811734441286442 -0.7451856574489681 -1.5138904810657992
