# total energy = -340861.57646559697 ev
CRYSTAL
PRIMVEC
9.29395461574519 0.00000000000000 0.00000000000000

0.00000000000000 9.29395461574519 0.00000000000000

0.00000000000000 0.00000000000000 13.60264202747408

PRIMCOORD
 96 1
Ni 5.074322657284478 3.075852881462198 10.68329771469522 0.07004919140860194 0.8482323868295133 0.4130194407258048
Ni 8.028954488162569 8.791746522636233 11.94415370860363 -1.0698041437318608 -1.6621850265405502 -0.6729646552000281
Ni 1.1496157212298659 3.890356479644364 9.174288484482206 -0.08516342134222107 -0.8853712006633397 1.3735624987362924
Ni 0.7297334377606645 7.654064239185252 11.132020998254324 0.5647916603365113 0.29573059960394876 0.5053045607144716
Ni 1.8308161277745365 6.16715231556342 9.346157870362115 -0.8237824813172651 0.45057117372733374 1.0531081711334185
Ni 4.9101914180515305 8.379736218761048 11.063722513670452 -0.8840398834464259 -0.3522809851951675 -0.22923621542614067
Ni 8.02148214861878 4.433764714452472 12.57864920481323 -2.2315733051088085 -0.4489032991066075 -1.1477666764502683
Ni 1.233307782911219 2.644371742581744 12.588224766295772 -0.4044386410353293 0.17447377497328018 0.8680962156329759
Ni 5.612405456074439 2.8498331981719347 8.167951156422607 1.413261102877495 0.8155624074003179 0.22952726430399825
Ni 3.1704467519555695 4.28028434725582 4.063598582627032 -1.0782337625564526 1.3734223736140023 -0.18070098682991462
Ni 4.395111157036287 4.328612911469372 1.894439753166212 -0.864687447061743 -0.6972168428791735 0.9541487244483696
Ni 4.362926192060994 8.145798086103486 4.743839853051156 1.0047642326123922 0.6072187191524704 -1.2483137793374115
Ni 0.9000767562859845 0.6144326362927173 6.387352124447812 0.04086819896927155 1.3239273522076684 -0.8818313058308813
Ni 9.406969145074749 1.7746341718762824 4.527380860915986 -1.0782738717657687 0.830566337008318 0.08672845183649579
Ni 2.5434022191940464 8.724588406288708 9.54345086920475 0.0924794953876601 -0.8148676953261386 1.3912581162438427
Ni 0.8110564704000875 5.048122999107939 12.379111715921061 1.7512804359473257 1.192217707674792 -0.11992062231774829
Ni 3.067562673908643 4.738541369501513 13.417822676235481 -0.35105096944280834 0.08713211503281768 0.024940729105737695
Ni 2.268105988315273 7.27727802345802 4.19807467134217 0.3158129721761206 -1.2939578024287717 -1.1752877646886728
Ni 0.7886413105596559 8.604529100036657 8.01259526917628 -0.21668974621969778 -1.327772179875055 2.963890334125224
Ni 4.284912736674733 6.950335286553341 13.248129934536115 1.2464337887058792 0.35637058188350884 0.5282534562011613
Ni 7.027818986524184 0.23822636333604766 0.5960798640326209 -1.586702322821203 0.04303435338265491 -0.37152260703359885
Ni 4.307692219537698 2.205102269699183 3.901972064173998 0.5231400462339958 0.026571322730625204 -2.0332862297660146
Ni 8.940431209230157 6.568446689719717 1.3070209254779388 0.8385305861607172 -1.1140561715717008 0.028475995952505793
Ni 4.0397846826108035 2.5525195887120264 13.1607333025287 0.528850980575844 -0.4167863639674048 -0.7411945340117042
P 7.814775303104625 8.280941480762959 2.0796803516103592 1.0882312400887968 -0.7095897626222295 0.5031204085789592
P 5.024451296597954 8.263552491600738 1.4394997433374068 -0.11130434140364702 2.941539991454482 -1.8488980238924997
P 2.0591500057742564 2.6123075990169835 4.659475838448142 -0.22597142863193986 0.8136893587473212 1.2435466969660713
P 8.007708507817918 6.777142441530353 12.042976328465688 0.842353302340917 -2.6013838145473067 -0.5971101699635587
P 2.412413222266008 8.804265479558474 2.5112246893824772 2.0331828714189304 0.051143869863666765 -1.1149308608671702
P 8.58914760508023 8.960775675973132 5.144709493479653 1.0970141284877495 0.7530740590581095 -1.8535177820526982
P 8.52632976555727 4.161795719340709 0.9812548032327671 -0.40179117611015314 1.3897979867585484 0.6386345144595904
P 1.5480475573519754 1.6009766291204712 8.896767280858677 0.3784908108213159 -0.5245965761748643 -0.8611802052394331
Ni 7.453835280066643 4.185597537215884 8.997263741954363 1.9097022996640658 0.3189234927806443 -1.54788303596116
Ni 5.463181720110441 0.7919824872586505 7.4694695705897285 1.096073361841035 -1.8162303584561494 -0.8754084330236729
Ni 5.874346274111891 4.6063441584681355 6.389215562356431 1.6407165722541293 -0.3027204006582206 0.8004576905483957
Ni 2.0625422992238613 7.028097805163878 0.22763869019141722 -1.5355725940249234 -0.10367664965506015 0.09515112868255225
Ni 3.9111842320294734 6.076471199980414 8.740064699582634 1.3369379055347232 0.8799428305589168 -0.9361623151732781
Ni 6.102986852615273 2.4843019615336663 0.7390441215354983 0.949938285911448 -0.11732997877243664 -0.5297295265260554
Ni 6.865964766182067 7.029891538412573 0.20095760516367397 -0.4723625585708123 1.3265334223719476 -1.0657523422599904
Ni 7.952790529752941 1.5096263488022017 8.504929505565322 -0.6606341586591333 0.4357806456817204 0.23397141611828093
Ni 0.4862281081797518 9.048213201381033 1.1612192236184466 0.7101150389980803 0.5163911575459365 -3.5302344265505203
Ni 2.1458254269003305 3.968323465257342 6.905027257603137 -1.0777228843583053 -0.7465303444023208 -0.8767837161046449
Ni 2.579369823714517 7.801875294041469 6.284814710909572 0.5276618453637493 0.26894741797283356 2.443068394501444
Ni 7.311730713369488 6.404231804894861 6.9640494460444025 0.03567379925252565 -0.14390875770222958 -0.7813734202234349
Ni 2.613710986170108 0.5811612080180838 4.720769469407445 0.2228339114442227 -1.2670326959031535 0.08677267481086992
Ni 1.7650985743987624 1.7178202270613896 2.686780057679136 0.1304793716702011 -0.8680476217832277 -0.6604639516298562
Ni -0.06263381922076326 2.247910224846802 0.9875533163034447 1.2420927381283642 -0.1593027236597966 0.4714752708698526
Ni 8.278209058093962 1.0351978454542818 2.603559199498865 -0.6851843371946715 1.0643102104968252 0.942702687394957
Ni 4.135846997939894 2.8115885747606337 6.11618333883197 -0.47576772759761937 0.7527956085857422 0.9462466959924736
Ni 2.9736937318784746 0.05640129322814637 13.134153521606711 0.32042244592367397 -0.05966244885763919 -0.38744184936701664
Ni 6.400142464846022 3.0117896520152723 4.797148118169635 -0.088560362838912 3.387130681248089 -0.3808670243629763
Ni 7.815323646429356 8.808559286609755 7.0392589153108105 -1.2793050855126031 0.12063693165848256 1.6376145362900378
Ni 2.816198376270234 2.129737591390011 11.129056226718916 0.20299296545889556 -0.45469573741866853 -1.982818817144082
Ni 0.06439502362816098 5.451703686109723 7.852492029891439 0.925211215478413 -0.2655458484904523 -1.2206589937346204
Ni 8.868895640239444 5.878974663530803 10.231566907409288 -1.013209792276584 -1.508961419195298 0.6291193758803036
Ni 6.893084525869596 1.0024738311089132 5.031345552162111 1.1166658412804058 -2.523106578801958 1.6257671500331485
P 2.422162580700626 2.834386645532911 1.0086124881595 0.38843120986347945 0.3885109140614793 -1.1668339774943646
P 8.298869519295256 3.069505110431841 10.512937667051519 0.668193973284262 -0.8280998777456964 1.2646518543758027
P 7.5671285873287975 2.683898931735636 6.634403097730162 -1.5734773394904966 0.07753984335869225 -0.0006836563305859194
P 6.466529182957061 3.01001450667589 2.732566725294148 -0.6700708785920009 -0.22997180804058456 -0.8701191596002756
P 2.346742138663516 4.271334268921656 10.881147421421776 0.23339728878236576 0.5217976732734885 1.187336982543723
P 4.735864710560454 0.870501533778222 5.496596275286784 -0.07360656974255711 -1.6261978098126637 -0.2913725797455691
P 0.8444264145940795 0.08017151165748874 12.568773448595284 -0.047742557491601646 0.8433480621540185 -0.0849497626695182
P 4.622729400527461 8.255392399412372 8.87401010348689 0.012231251958869257 -0.6581255333046665 -1.7669402539717698
Ni 6.539904954969752 6.607118835045215 9.357026220937371 -0.3513304483564401 0.4945545212868192 0.2537185168382211
Ni 3.736922582220993 6.878037613280799 2.1198497530310116 -1.8099180430848762 -1.6319650513137443 1.068674658113108
Ni 0.34960883352083444 6.027668644079384 3.7190707541168795 -0.7917233959991913 -0.17372995482872014 0.5078617799186866
Ni 3.8618890965316504 5.369415011581494 6.2974386895194305 -1.9794162192204363 0.43481391089307697 -0.11331880073051451
Ni 6.56322348720279 9.066466528326307 9.349599421771401 1.1514415541986944 -0.6554693266287421 0.2220939479544046
Ni 4.821443445037067 6.119251273264065 11.119983468183285 -0.516030431772408 -2.2096513082247364 -0.7370311466626338
Ni 6.208603353331197 6.903763279769859 2.427337454653339 0.42599245594670504 -1.6267464832272824 1.1454251728012852
Ni 4.971103996869918 5.746089699852848 4.284043751914354 1.0446934647071622 0.42401450628472775 -0.38630285066656694
Ni 6.119344212810629 0.1623124123066797 3.097756873796525 -1.6373617968492833 -0.41242423034396714 -1.0803330682876426
Ni 6.774233433722884 7.614072352298538 4.6604554212689315 0.4172625322728749 0.7406170642416793 1.5089117969042853
Ni 3.0984093094134075 0.5747678966099102 7.533674068147431 -0.5902622938037899 -0.08174822501308503 -0.6247004208770015
Ni 4.229641588332811 1.291878285156181 1.7146807291784398 -0.828146928933548 -0.7744296419157503 -0.45789393264099204
Ni 8.266796081775839 1.421891416845292 12.762597014164665 2.012794537570566 3.2395467886871177 1.0812859191192152
Ni 8.65487445241066 4.540477901817858 5.656277569030222 -0.40383083224800137 0.14305026635667623 -0.8393618238127608
Ni 0.14758335296713415 2.9443248351640854 7.3921921964122586 0.9502794713009506 -0.9100437637093554 -0.6392304961723766
Ni 0.22042007560975074 7.240641254202285 6.078190581591858 -0.7034407123016981 -0.1192585632537172 -0.7246101472904617
Ni 6.37785556157985 4.929225437187944 0.9424683422649948 0.7383069280512639 -0.9349490115914671 -0.6809265903595821
Ni 6.982892009714894 1.3893068118197704 11.057288308861793 -2.2863768832122493 0.7702618836913057 -2.2840628903670925
Ni 0.400152147129019 3.8726236141598527 2.8791900127452705 -0.41388050317451947 -1.3810606068855504 0.3721129323194301
Ni 4.407750935369063 1.015206548988253 9.600785275480407 0.6068011719990775 0.859578665080268 0.5848490932080187
Ni 3.375285512583778 2.8330204341984127 8.380601485939563 -0.7307836230910253 0.4217282813537124 2.0071954462162336
Ni 5.122400284722305 7.143500840133046 6.650154492081917 0.6135595737688336 1.2888047974729224 1.3704990293196204
Ni 0.15464118213324402 0.6929219421573882 10.324337303999064 0.49603907625214566 0.6125779265818547 0.2670219188153466
Ni 0.5294487149141175 8.483456752727054 3.2052182245117544 -2.8237094188965433 -0.5838653891385106 3.870957531704759
P 2.8554746286484014 7.495955482569685 11.53229303739841 0.6637079124884505 -0.16455934407304562 0.6039379915186694
P 1.7986125748899293 5.18229982248314 2.0166050695434143 1.4585341157826817 1.9686183572739837 -0.44061329118367343
P 8.479739170864473 7.2488478161639325 8.616294317236262 -0.02213025624013608 1.0961947179102476 -0.2574034218889761
P 5.547180482295457 0.37561610683598495 12.493781457867836 0.5936661772790163 2.2810284744161424 1.4694679890863662
P 5.470607589880947 4.4510421761588175 12.459380814102444 -0.4013072944951992 -0.3148387811883094 1.0953004882307524
P 5.51018124880812 4.759220418612119 9.164711993604199 -1.917498655780033 -0.5901018569665256 0.6844508014627567
P 1.721463457286719 5.788051905126731 6.113027111830639 -0.5438263709387537 0.5112263255155454 -0.9606968099795326
P 7.203233086710064 5.642499281252031 4.006045768416951 1.1453125584828212 -1.4705257409269188 0.9769086438527047
