# total energy = -340863.75378352456 ev
CRYSTAL
PRIMVEC
9.32762553848691 0.00000000000000 0.00000000000000
0.00000000000000 9.32762553848691 0.00000000000000
0.00000000000000 0.00000000000000 13.65192282641655
PRIMCOORD
 96 1
Ni 7.484449529546702 8.420486093462202 5.777329865168058 -0.8355843590481998 0.5273060046862273 -0.29323380132402405
Ni 6.36164591677987 1.500647073530442 6.178997014663186 0.3534860612468622 0.5971572211514102 -0.55384827395113
Ni 1.3007747106084848 8.685045540426708 11.64771119128782 -0.8396808977150765 1.6788187784424895 0.19388020452434995
Ni 4.657563327320369 6.286670461619954 1.889603467520915 -1.114900778960183 0.23515566623436923 -0.561174375298898
Ni 7.591875794423133 5.793668134296959 6.243652384778449 -0.527391108200866 0.23528910648843993 0.6951977555666156
Ni 3.6080188865896137 3.31916097474683 4.568247580450716 -0.9743331698160446 0.6576797040164996 1.7082759073613418
Ni 6.260422522976012 3.8078725942602247 12.219358461710508 0.901433396332525 -0.25572989084129505 -0.7323591951082613
Ni 6.645793377657768 6.091583170668268 11.413853624226133 0.3365499476131559 0.16206665955817895 -1.6555243266909232
Ni 4.413823140858092 4.380514189579657 13.429970477038228 -1.1784481646945253 -0.6081170625970237 1.5536729031700596
Ni 0.42895232011391266 8.104606050044614 5.459431323554823 0.9751770058735787 -1.4321792799382367 0.5638822611483644
Ni 2.796739316051059 8.276234362428598 5.508496500120162 1.0212591449436217 0.0582182602119449 -0.18655436028689804
Ni 1.6051631191968843 6.23353097816063 1.1525895198285587 -0.058354785789809176 -0.7860710828094205 0.179020256693382
Ni 2.2345539891111077 3.7748714546290003 11.254836261752104 -0.0967045892126012 -0.05044041603873893 -1.2007802525328224
Ni 7.747619160285926 3.705473919621563 1.1235097140302812 -2.765393970985102 -1.18609591104777 1.4946403745869357
Ni 0.4799380548053309 4.098894515259154 0.6795930840491061 -0.5847673321274898 -0.6832822350759523 1.8535082689710014
Ni 6.754189715604196 1.7418314905583048 9.945070652757373 -0.3643697980389015 0.17477999335978933 1.118235499760371
Ni 7.78331598373666 5.348917614580614 13.201149827839982 1.154923599210024 1.015816890882128 1.3060479008240862
Ni 5.1810949734712315 7.809834423525121 11.929828960819265 2.372304693524321 0.06995714591542791 1.1213755880512493
Ni 8.352683582444854 8.693431075906775 12.855114503384014 0.09288881501093679 0.6699436089855171 0.9010611005947707
Ni 2.035987493783377 1.091565394387812 4.826391486477306 0.7038132651497685 -1.0628436532536276 -0.45990324976153696
Ni 2.131772881819851 6.670548896194022 7.037088207404473 -0.5263325850293644 0.8616268058585483 0.38229784327223193
Ni 8.131077851704708 6.887929212504281 4.00731681916379 -0.5419980594807634 0.7039418203078328 0.07476048084134221
Ni 5.807417054539025 5.32808902645271 3.8941158212331772 -0.5504032528253231 0.7533062296735736 0.03813820163261819
Ni 5.783099934409402 7.454302643371428 9.554079903607608 -0.1228028289615498 2.0572905631004117 0.8621628808676765
P 9.332289485879135 1.9014085105727179 8.131658962784138 -0.01872354455143227 -0.5332449958784816 0.7313937458711984
P 5.513391638073375 3.9442984473541465 10.05221149228821 1.5087991825858207 -1.6098453365965695 -1.547659092875812
P 8.46521205856444 1.6670705707888682 1.1890306878080017 -0.2244125687852522 -0.718434357497053 -2.152626296989944
P 7.8336012137400335 3.1988998969442917 5.761507413738876 -0.9651021381360799 1.417987818929203 1.0032506241813433
P 5.728663910981525 7.574078684638968 3.4528445058928767 1.2293308104770055 -1.0231064825650058 0.10967529044065627
P 9.094500324596261 9.274476861957618 3.9418014419614726 -0.4878488271318695 0.9291046369955483 -0.37390756232600764
P 1.0490220936930645 1.6872368974939864 11.419424082278075 1.4306957534141747 1.2295334134061149 2.641660916899799
P 8.94280514827557 7.353676217610644 0.9732304712867569 0.01668388841358417 -0.21241528721406 -0.040513900953646355
Ni 7.0534012919440565 5.820205229336765 8.77776307237932 2.1295383048222294 -0.8069924063431199 0.28519884683468943
Ni 4.769392231514477 5.807473020293062 8.050593500822293 1.2306826965192097 -1.8289984567550952 -1.2427676527082017
Ni 4.396007375822581 2.434883405691044 11.556216511060946 1.8274300838267106 2.6874718045863264 -1.8936431893186738
Ni 7.784397988314733 9.033525635571582 2.1860139578711615 1.6675570894857412 -0.0626464711866276 -0.162482664049675
Ni 8.852644318519939 3.3901628613700305 9.906805001196282 -0.6809268474698983 -1.5593051617551725 -0.38291028004525024
Ni 9.1905748690286 3.9446062590013566 7.409171859314979 -1.981071495435672 -0.4015487210820439 -0.8602291541800734
Ni 2.76602344470973 5.26475444813275 3.4256498132431212 0.08443297093409975 0.4635310763221114 1.2335039680180884
Ni 7.843413875948073 0.24857749313631647 8.105856884647368 -0.3183807329032968 -0.15095795123952713 -0.1925756267803135
Ni 1.8881539544913244 6.477103267360792 11.050057567726126 1.61988755132392 -1.721342767847629 -0.8362096513370243
Ni 4.158526026186916 0.4371783531949689 10.252990500425586 0.357110802483643 -0.7549900451338998 -0.8160195495423946
Ni 0.8543918563993574 9.231373903722488 7.447410460761617 0.694586861455494 -0.2347404330738215 0.27614342150064053
Ni 6.274656479753075 1.6638432123059956 1.7683200819446112 0.5049618326630723 0.10155111867162511 -1.2751568676721845
Ni 5.617861045611452 4.120394692435518 5.95846396087544 0.26617114077927706 -0.09316829392456857 0.12266990292811132
Ni 2.1647740214510764 2.0759936802950567 9.597465488900632 -0.833467569815513 -1.6569096370742238 -0.7197358499172959
Ni 2.1184530323587465 2.762012565670322 13.362270569903286 0.5999265563664313 -1.072173929515618 0.8407432775413197
Ni 3.300095307871131 3.7719892182960297 1.9175900755903124 1.2120180302301709 -0.04023030827495652 -1.6547008023483631
Ni 5.506125417674075 0.7318137963796352 8.11112606039007 -0.7291905675722926 -1.3845521649785768 0.9892728218450123
Ni 3.4289004907901766 3.8309584678010054 8.977927389984844 1.3901905942112769 0.5242448492624003 0.33981961950336315
Ni 9.065733927020597 7.510053862019204 10.061494345358021 -1.7371776779973565 -0.7198235245350958 -0.12817489190674056
Ni 3.8524586449773683 7.9178669840703 8.310771762008171 1.6759555979620813 0.307318047331232 -1.4465010958775477
Ni 1.1279338068870053 4.729264785869048 9.133436632443242 1.1932044970680935 1.851238241989902 0.771466188412052
Ni 2.7048062374175514 1.6780025480776741 2.4543426983701453 -3.821621918694425 0.5638614352127579 0.5449705118455259
Ni 8.625983014665003 3.42066419732088 12.293392759440016 1.3361308362523958 -0.7933696733533626 -0.5489294964932739
Ni 3.85733699320437 0.39191138580369306 1.1133351399461262 1.466117070336262 0.1183087977459382 -0.10378823553225995
P 9.454388105939264 6.498491513029078 7.967766983133377 -0.7770133434825263 -0.014697197000858557 -0.1739281868824553
P 1.5121293807339575 6.764347499962139 4.007999601363056 -1.1520599045089837 1.2499819110684538 0.6740578882642069
P 1.2262842919835666 3.6506554635410913 2.718534636883135 0.9354701742022599 0.41067485175302826 0.40920443785508875
P 3.295263597772495 8.18098997668116 11.554864938100922 -1.8024644150203089 0.207384666768688 -0.5674635507417195
P 3.1711408829413172 0.5207855931527191 8.202922022926185 -0.3841678066014352 1.490223990686795 0.40894012845010863
P 5.541495774226252 3.6593301554170217 2.4579329014917 0.1272976315081098 1.0768793054110875 0.10313568954992561
P 3.62514440732532 5.243039735565907 5.678900095253276 0.5159738675028598 0.22511782238239295 -0.32158201344941384
P 4.6700810009735925 2.021818830386025 13.659568117455038 0.732964432792428 1.0216034156569178 -0.31858693537683197
Ni 9.179101889450758 2.073484548989008 3.1467677970576564 -0.5613096153251816 -1.257950788206543 0.3147693614029547
Ni 7.676486686903304 3.9725424978921193 3.820641181044053 -0.0390339739740102 -0.22428324229623955 -0.2451659992825197
Ni 1.8945247228260125 8.814186517869985 2.867300005979925 -1.9087275944556223 -0.6359608242821693 1.6753063944138566
Ni 7.026994783663674 1.6723313516684644 12.971278887990954 -0.3712685820412638 -0.5759078248543308 0.7152603306444455
Ni 1.648639182458936 0.22477339241871172 0.5917921435887561 -2.245910547667087 0.29262882075017344 -0.8939144622476605
Ni 4.363164805827798 5.097622051323174 11.274550198612078 -1.3410311017674903 1.8790300673911897 -0.738333153303509
Ni 7.075442471409456 6.648265198461123 1.7701081877861335 -0.43505585170055394 -0.2967654686263663 0.05256260458806431
Ni 5.1326659409767945 6.861242875453706 5.874190728444634 0.36563915166962835 0.28231381197741057 -0.8944924462383175
Ni 8.993920536963842 5.356538284755491 2.5157222063490354 1.3151943432100444 0.3534240976606752 -0.06429711941617314
Ni 5.896104119438314 8.738558128912954 0.873247651697413 0.2003709544550162 -1.1279249591339928 -0.9124413174072543
Ni 1.7951202160283974 8.022317736357031 9.214228794972868 -0.16306167648159658 0.5417599753280283 0.5961377787479605
Ni 0.4002614763062009 5.286599747459017 5.406557677427181 0.16801773493529126 1.155289724300191 -0.9613349577841639
Ni 9.087961658999458 0.726303967894569 10.214068184017114 -1.4095337746245789 -0.608951642683177 -1.1041319704794532
Ni 0.3158996314315015 6.750281440447191 12.62140804385823 -0.3654008104065772 -0.9866379553253266 0.5332899901838042
Ni 6.731187790694472 3.4976171091234813 8.106552725522578 -0.5423965804707626 -0.39849373630580404 0.11268142425683175
Ni 2.0088347754491496 2.005346243447432 7.022385071056056 -1.528362449429729 0.08790318887088731 0.3011664259075394
Ni 8.806341984678955 1.3532985707733878 5.840852861526613 1.064409969299483 -1.0510577163622932 -0.3624085605474726
Ni 3.1239804075384137 0.977292652267367 12.348409893947322 -1.8294666546407656 -3.30696599867204 0.6718580523994108
Ni 4.646109002993873 1.8612157715475772 3.319656271670069 1.0307004928621797 0.5150428710481582 -0.4889582581459644
Ni 4.104948144320959 8.930156887862923 3.577650002923322 -0.6794011548539912 -0.6120829892233071 -0.539740116684522
Ni 4.22457494357773 2.421031881566576 7.163150135613076 0.6279518379347637 0.37773336383000106 -0.7060167005589906
Ni 2.0216322778725644 4.4694437727464456 6.95241948364513 1.9411795443367408 -2.0524879995054457 -0.4259405196628471
Ni 1.1163395681754131 3.1033943376780084 4.885490389979136 -0.4848843451869068 1.4441043135105969 0.38056491974152523
Ni 6.28837741711812 0.4032920218873724 3.8546748888372835 1.3442907463553686 -0.8670811441049002 1.162373884840482
P 2.8363723975358175 7.879586408308133 1.257626047007557 1.7230535798911486 -0.7770064015039908 -0.3317910927719318
P 1.6229415737297037 4.793597420136022 12.933873243516919 1.9493651654713264 3.3269419275733347 -1.6780546465829551
P 8.703700791772794 5.401767941644074 10.734835121918488 -0.3357706462449701 0.33781878702325047 0.6583530759344404
P 5.822173358353778 6.060596798182419 13.617410980463154 -0.7662843871007964 0.7781166038490341 -0.7817102347375634
P 6.405233911549999 7.784248746303964 7.452092928849485 -0.708600916346399 -0.29440956679968006 1.3797352032059076
P 3.0129816620292065 5.976900013018208 9.097245444831838 -1.3543717847404544 0.43171290337025003 1.2112019620867784
P 4.412825084911077 1.007085088667065 5.25899370651708 -0.7105351572546343 0.3131752774429574 0.8157863504856661
P 6.9526442794238505 0.07386266941712256 11.476788980167287 -0.6196253203469393 0.0808532240026414 -1.580110271425982
