# total energy = -340863.9007960192 ev
CRYSTAL
PRIMVEC
9.32279941060591 0.00000000000000 0.00000000000000
0.00000000000000 9.32279941060591 0.00000000000000
0.00000000000000 0.00000000000000 13.64485930043112
PRIMCOORD
 96 1
Ni 0.6504256226416674 7.7405153871113965 6.173575593143986 -0.12134012837309423 -0.1206011933245407 -0.045552748929134454
Ni 7.792508640351782 0.7151985695420701 12.996278142948578 0.6172056551618532 -0.2212645100745738 0.17548164741250424
Ni 3.18780079612771 8.588097710645481 11.572518837163193 -1.041282382143084 -1.0524219436996716 -0.06095211420334019
Ni 1.8848929412577105 4.261824598585178 12.875071493369312 0.6897932967215926 -0.8114057049194672 -0.6998756206582591
Ni 2.5693635633943104 5.332035376015692 4.019775820890102 -0.5237614818680786 1.0313751503317012 0.023382897700314566
Ni 0.13258046506308718 6.851455928259673 3.531098906347777 2.2956891617521107 -0.7367511535283698 1.252245767401966
Ni 1.2876930459604945 0.20595742369301315 4.716209459443783 0.33756039115554126 1.2668609462119793 0.11456090066773172
Ni 6.922989769413245 5.323532982801557 12.486097258902168 -0.09233705627252485 -0.8338691761293058 -1.037329568142923
Ni 5.758683975853055 1.397823277362443 11.371175266980789 -1.4109080292642864 -0.0020357994831061714 -0.23710970463694647
Ni 3.320305746514224 0.8787260678006847 8.058421920403813 -1.1387521316564841 -2.6349099713292103 -0.15626085150967925
Ni 9.277369574564185 2.4912851169377523 6.194042867335117 -0.4069750343039378 1.3650614032438166 0.18804894255455354
Ni 7.40254525684953 1.1036609823124406 5.2779677998694465 -0.26828124514374435 -0.9532308406197906 1.39472036376083
Ni 7.274720351850621 5.984761865592939 3.5239082310341114 -0.1617000202473796 -0.9300191783900177 2.073300308265107
Ni 4.429178173790153 8.434868176799514 4.51396530682225 1.3264696590135476 0.6818390748715224 0.7885753372885128
Ni 7.410795934475089 2.882385881988386 11.048543006582841 -1.5674786987049003 1.1426499240489933 4.054663109688953
Ni 5.465528543157358 3.4853659130232817 1.7001495480019388 1.3080988698158438 0.34058143737005214 0.07092079538027786
Ni 2.245713253282565 2.9118925426492823 4.136221316725444 0.18695982325543287 0.8124518867957943 2.255036678338071
Ni 3.556321740603086 7.1175472737836225 2.7772610616792766 -0.5438821638773536 -0.6628699899681874 -0.24464406534077868
Ni 5.556397870633426 8.580508951789882 12.56339538703414 -0.2555054335353148 0.7942677596875998 -0.8528164066557701
Ni 1.582144347797381 2.998697129509821 8.187884841288383 0.40088229114263857 -0.10100861590459378 -0.20993134444994166
Ni 7.884767064964809 6.5014407409444495 6.705384439928851 4.490585937375492 -3.056379856815213 -1.097799343393206
Ni 8.320766432777805 8.807202146301842 9.322604730391275 0.09642459607833717 2.8802891150638006 -0.08630910491089006
Ni 4.071108087640484 1.45965208415646 5.574006774474279 1.530101800718339 -1.220862625104994 -1.8740004753870823
Ni 4.8619611757491175 6.760278948397567 10.823306965644752 0.7387514717878502 1.1130040761581026 1.9876409211230734
P 6.2757264403880635 6.861356741410344 5.460181917600005 -1.9593922106900254 0.20385274235602957 -2.41833129676608
P 4.910980455924471 4.230872903989861 5.837789794822987 -0.6144903131132191 0.44518445549412367 -0.14904453626689815
P 7.50045329800616 3.4874915113268155 2.3642992639007643 0.43664787877802214 4.821508511499541 0.9295808053010185
P 9.175014558009375 4.546458992467586 13.634599042619595 -0.9412906375387788 -1.351395218610634 1.6687781063770357
P 0.3593603616111119 0.7620549602155816 1.186137925609381 0.320084602968281 -0.9436061730458329 -0.5780575242074818
P 4.403204854168902 5.704993973089675 9.180438562803216 -0.08310036816560527 -2.0046780791110184 -1.001942446892881
P 7.6355313410758985 4.582985721209889 9.984175759927128 0.48282540577534916 1.8121741861089047 -0.8919632520585608
P 7.282393015902412 7.41786261655438 11.602688348874006 0.00297476635760778 -0.15576437148923497 -0.18413212399865062
Ni 5.691755597690472 3.5772421028536554 9.488280201672406 -0.1016616761075604 1.0605975375319283 -0.6007765630715524
Ni 8.601028433658644 4.355257695944894 7.963044087052355 -1.835552455823529 0.3163279641393262 -3.3409243578953554
Ni 3.7841429938638504 7.434149547415229 0.40732336859440177 -0.3936207244842189 -0.8553402015188883 -1.0507959780604743
Ni 9.099490558636887 1.953723170533981 3.9904798554996437 0.6051137569943256 0.3100961242970014 -1.3593178158918202
Ni 5.709291783694626 5.858848134507294 7.336799941953257 -1.7227049383024784 -3.0023717780298744 0.7411935055704396
Ni 1.8943555828282663 8.334377720160083 1.6095888051918663 -1.8879440820513678 0.5792811122019378 -0.41057612139163485
Ni 5.394330322788554 1.4452576816097225 0.27633523769904955 3.034122845189226 -1.3662073439228017 -0.615745782786875
Ni 1.273401194209103 0.6091284173558627 12.6408436122393 -1.1820155703308095 -2.426704094210808 1.8420182660535307
Ni 0.2123155730044606 2.918213400762422 1.6680707269377752 0.6563255039814503 0.701222878714773 -1.365607248444958
Ni 6.797439627511101 3.6849204379668783 6.751299227845095 0.059119946090607854 -1.0394808101579711 -0.771816115552303
Ni 2.7124965052984935 5.373652353326984 7.764512273222344 0.32905106813294943 -0.43417447753686517 0.2800640967112854
Ni 9.492754213189363 8.073814794785235 11.406748273326373 0.14436564273399008 0.5008539811422857 -2.665139202527397
Ni 1.5931918652960102 1.0086616546238047 9.98195133994808 -0.6006410659349526 0.1932788234949252 0.743755609870661
Ni 3.0362307206064303 8.348063589938974 6.581802341017389 -0.753083057919174 1.8522353157958487 -0.6447601677413541
Ni 1.2687118260219212 4.648413128640591 5.829343338406314 -0.4479712742106414 0.16458171267054883 0.9861245060240178
Ni 8.769165124028081 2.578956724158943 9.419046295174457 1.9269168637701395 -1.294570753422422 -1.9725097219085899
Ni 8.359894222602064 5.7561015603702534 1.6141597738244216 0.6464349843406157 -0.9791465320442877 -1.2714102561455587
Ni 8.279224037863127 6.63157770023843 9.39275320352772 -0.18029218142727016 -1.129450394639584 0.05229520985929058
Ni 3.9114271764872997 2.8641225176172345 7.313644904644104 -0.27985429469332446 4.367265545347576 -0.39918999104188024
Ni 0.3321750780448644 2.6073260032714565 12.212790998785653 -0.8629843483277072 1.018136283043924 -0.471232301621111
Ni 5.982328614903368 8.716174331232967 9.838476251299424 2.5402388676068703 -1.5118940194610606 0.12436657390424387
Ni 5.903000913303505 7.725114122210354 2.736640691642755 0.43636582876122915 0.7063709985746157 -1.1644649630415558
Ni 5.665465302883608 1.635461438577686 7.961543116320473 -1.3211317917404022 -1.2822564548314432 0.40108206585827055
Ni 1.4023914491551253 8.262787942209048 8.844556739646576 -0.5372055231881264 0.028538473759325046 -1.2004506371075454
P 8.503866216468168 4.590686353660411 5.162314741998141 -0.5963259834993666 -0.19127336302912218 1.0124472030789466
P 5.135287013744743 5.937495271738044 1.4037283386144528 -0.2199223942243825 -0.28181116130937917 0.8027757971586109
P 0.7758163446710473 6.3542803496230436 7.861048930561211 -0.6981401260243912 0.4749388039384208 -0.43141157007974734
P 7.600384386670977 1.4598571857471518 7.86761218146335 3.695514193729358 -0.05753717498452026 -1.0737870396390088
P 8.624922768974246 8.594595701950583 4.520760695433855 -0.703614261765085 1.0697439799178867 0.27841781935711407
P 6.76984414076347 9.197985936166862 1.092240552830735 -1.5490577729955515 -1.081197473170467 0.7865325958268713
P 2.162982729837133 1.803635420145429 6.272023424396118 -2.1611446188736005 0.5678235051842995 0.6679690017576496
P 1.9537138477344043 3.3533830394130737 10.570509000037505 -1.2113883670659717 0.07331397820280278 -0.30260058725090466
Ni 9.344708155908153 5.27831740485358 11.775009111693555 -0.7469635752849973 1.315419314736657 -2.2647608476043706
Ni 3.630689712828037 7.585887433328893 8.538106994754214 1.6241332139741516 0.6029182920049037 1.460174222489266
Ni 0.6177874336028896 4.906645354121212 9.407761978566574 3.287980458708473 -0.3605424538730113 3.331126655078644
Ni 8.523024569598704 8.176580014521432 2.0468243762287597 -0.8620178706493798 2.1000644637328283 -0.21394997869103152
Ni 0.3750562269787848 0.7837397920314567 7.678071275545304 0.38491548340073706 -0.6919890188213308 -0.025367018009878887
Ni 1.487918812473628 5.792236731530327 0.9386213259624522 0.3481762189981746 0.9599226508176694 1.286213125486346
Ni 6.721402874161885 7.122283255968689 0.22837036615584427 0.060427866268753995 -0.13995542948143638 1.6713304404852443
Ni 6.583388149225421 7.774310535577667 7.643645905827635 -0.600107819139302 4.0240425565896185 2.9093788333409054
Ni 3.6819278193026928 4.601985586747617 10.944582603940887 0.490843133873503 -0.7002165489374457 -0.2654574025417041
Ni 3.923248486350812 0.12418901316391728 2.0469334529838092 1.104915385612697 0.6900812602756567 0.05714842418653384
Ni 7.642225111172115 1.5904789306191318 2.1531453117235855 0.02553876770105279 -4.620608166903616 -0.8868554985183501
Ni 1.988133623772328 1.4683036421638254 2.5464583771138187 -0.7332660231932469 -1.5129815960982846 -1.2610942189315313
Ni 4.006538377770858 4.910766031534202 13.265123443467543 2.050013055602392 0.35545886870251686 0.846072145953401
Ni 2.136133067055654 6.657112848279565 10.242486296924195 0.4490845618794782 -1.1794370109703558 1.4550309877254297
Ni 4.960559104074438 5.366949260431191 3.802836139295498 0.3412692074656961 -0.2197928106250537 0.094980664542959
Ni 0.5192799364334654 4.430977474108495 3.448820538681824 -1.2025247460277548 0.13110132152491613 0.016049083043062684
Ni 3.4124243291335974 4.388400248440782 2.035840253767253 -1.2206708208091621 0.9274254495209125 0.07976616158604971
Ni 2.8728020440233304 1.9743265575989355 12.056965997537477 1.3759258567621464 1.0212730289006926 -0.3995538021392022
Ni 3.583050206990065 2.412563397310388 0.6548231872020922 -3.214084639860271 1.0889388076787825 0.2728156426789882
Ni 3.835120061950353 6.368320485785858 5.759358946542423 0.7470576776607004 -1.5549659109498704 -0.10102789917830342
Ni 7.37726182439697 3.067284965997092 0.06596253612641546 0.7490775363042068 0.6266323477923919 0.026984499008643848
Ni 9.117949701799153 7.549892104162472 -0.1672817896482334 0.4469562026825657 -0.7897485316610077 1.4699025055206236
Ni 5.848854093360855 1.0104143409442625 3.593333254923389 -1.4476832891111069 0.04423685833118833 -0.5957765387537998
Ni 3.7023820415744164 2.3400693078003947 9.71250658341632 0.3997047258947697 0.5475776104510699 0.9512639467014069
P 1.8206681749724296 6.5965519422280074 12.53253039447489 0.30970403106490535 0.751221579230403 -0.3964103714142141
P 4.193404572490291 0.16409432447289046 9.958810286838293 -2.3868517381005603 1.929339357168703 -0.2911141838778599
P 3.97956751859488 2.3915684526632037 2.9329219816549013 0.6292510163621615 -1.0461065430046048 0.2269175945952931
P 8.516340122302063 1.1018243907957908 11.013912535274478 1.0921539721819706 -2.30860844091694 -0.7314284557638758
P 5.304421243668907 9.01945432426918 6.589484327868758 -1.7994636805207718 1.4178253252094097 -1.125621250701481
P 2.3661451782169913 7.721925724755054 4.613995217162582 0.2904932624644094 -1.8854639959419917 -1.0200568971054045
P 3.5560793478140864 0.21257567911265618 13.452262796214578 -0.15230546640635706 0.8943060412591244 0.7591485473869636
P 5.585820626098131 3.4499206290318987 12.49064119141595 -0.7995737452815455 -0.38658567201430843 -0.09323925637182007
