# total energy = -381178.3111036739 ev
CRYSTAL
PRIMVEC
9.14271995932509 0.00000000000000 0.00000000000000

0.00000000000000 9.14271995932509 0.00000000000000

0.00000000000000 0.00000000000000 13.38129482077953

PRIMCOORD
 96 1
Ni 3.153497854760725 -0.1405044073599232 8.172572305803051 -0.026960330638927766 1.3748184826305807 0.6563584141019148
Ni 1.001191843827921 8.804201691383643 5.047772534987567 -0.5501988501240008 3.6024464299383956 0.9979191846661007
Ni 2.6045780860556698 9.047215190145787 1.65408902477422 0.19178218434474067 -0.9240385353265506 -1.6768937935056347
Ni 1.5261759714585115 6.88637902141219 4.4559715807334435 0.9631560701533024 -3.045300716182917 -2.1061996300962886
Ni 3.0135319536113774 3.57106416459762 12.80631402079463 0.9897911562423276 0.45345286615050295 0.2648297962600342
Ni 6.982633578032501 6.010469870343399 4.279123946927719 1.0480256144041886 0.007194203755594062 0.10448269049612327
Ni 6.104566745033391 2.7187066603614576 2.158041239216231 -0.8455640959687308 0.3317450700253448 -0.4622738068762426
Ni 1.680194233315061 2.273995614714751 0.9898521281576921 0.6084255949763779 0.22809361718126522 0.6506917027344408
Ni 7.255872909259192 7.497871566096483 6.949147451600362 -1.2275426082283312 0.04336036926350596 0.2606036739938286
Ni 3.574684681734934 3.877025290860794 1.9080125313645384 -0.30966623584843445 -0.6893628940523934 0.5049718599654013
Ni 8.114026898003074 0.4157862222443818 8.041609241080756 -0.9062927813073552 -0.3435839716418018 -0.8345371487306079
Ni 1.9205014869442634 1.0119436825993389 12.224281148635221 0.4107355297876346 0.07707575923808016 -0.9520951843534505
Ni 6.119871658386582 0.47293645096568687 1.06704594203085 1.60278431598473 0.8968020682081007 -0.9377348018667204
Ni 1.987078774302651 7.3946776849629865 12.62153142026296 0.39514487443822915 0.14209021643625205 1.1025132039291077
Ni 5.190587307702539 4.941082477709351 11.232473392660177 1.2434186560286393 -0.2676022167988488 0.20095485198294424
Ni 0.3124999996384442 4.954174852811962 9.454206115708109 -0.6121284977492619 0.5829958420493636 -0.3214424025477561
Ni 0.320842731678341 4.720148647852796 4.861624926353367 -0.30927697082981576 0.7631427561480212 0.6108401179551415
Ni 4.558688211880657 1.1739252536139704 2.695019701272181 -0.7287097712811321 -1.016686695081591 -0.8316035200235807
Ni 2.083644183404448 3.3238907282155816 5.996345282147851 0.2185432544886688 -2.2861786511585143 0.8834446730645882
Ni 7.444679220882105 3.6924612013381672 12.289019834992814 0.2878964482715106 0.995234438745086 -0.7822779343155754
Ni 0.8392934715656872 5.398072196374777 11.860403633711078 -0.00039877810031544223 -0.06313678055948481 -0.05610069964830984
Ni 7.6956286006422 0.7600699738428229 10.16860637438853 -0.4699403222825648 -0.7067512647321699 2.9766211514283314
Ni 7.939931222930509 3.4524282293102764 3.233737108680447 -1.0594220291665881 1.908208745837675 0.649506681287404
Ni 3.9824957092851765 0.052756237468292014 13.013135147991694 0.44651628693166967 -1.0039836456926257 -1.1652614908009222
P 5.923970596009739 8.59960590224522 3.479885646145584 -0.4961830580291777 0.31153439940542477 0.1866309791611044
Ni 2.893350898636645 7.875310477661479 6.134574066488892 0.6262585093927407 -0.7768793890078234 0.24233212937815038
P 7.159901776960236 4.601101290163485 1.4563127905164104 0.9674333573724178 0.4491771215932845 -0.26728468555843005
Ni 2.6441752065650315 6.790563315353977 8.510703921084072 -0.6391934722868541 -0.9011240926222223 -0.014019968428175855
P 8.75247218137626 6.902726204850366 5.445585083897995 0.1292876653549451 -1.1422686294501745 0.03802121643877968
P 4.231378834315391 7.100931232678226 11.955250211444655 1.0799029227287593 -0.2541872289445235 -0.1009088571019359
P 1.5011797748589744 7.093379345922112 1.349129026355834 -0.32525406298436244 2.5066674594093286 1.6136382279800985
Ni 8.698520990398254 7.103381481649944 0.06829611872660717 -0.4958554994864299 -0.573113035718013 0.5038428885672805
Ni 3.335090560269142 2.5287392232929915 4.028759701250421 -0.45373748727045726 -1.8851865739108888 0.5390952840116715
Ni 1.6341332097347872 5.833174243255532 6.621613163122022 -1.3088781711840296 -0.9460322659888224 -0.5603356814476866
Ni 5.944267434506803 1.8890688154339454 9.331673553138131 -0.2018010020333234 1.8517547766150044 0.08828396924907377
Ni 8.438703172195748 5.504923165525763 7.280909333826921 -0.6052675089633704 0.5763755085193687 -0.47063117770200236
Ni 2.980636446894064 5.206742494019796 10.68568662054132 -0.026227566237961283 1.2899404537392622 -0.18737711329850956
Ni 4.608479465238769 6.9513654754829695 9.738812590765159 1.5616345812192978 -0.6197577321597455 1.1529399931210917
Ni 5.479789828125569 3.7679069271389656 0.14277180193076638 -0.9688441216770154 -0.41389310158000975 -0.4375629343931239
Ni 8.015550660412138 7.475161049507876 9.369167848037435 0.5900177818931516 -0.014327215255949518 -0.2285934396358192
Ni 0.16549968968745618 2.0024202585360174 4.667208641711626 -0.626398634515031 0.672472546054958 2.2947571368561444
Ni 5.4777052879556 4.011084994861897 4.072637443284254 0.13567814226232117 1.0151347772134387 -1.3647639266080562
Ni 6.133722879252821 1.6517695166991277 12.138012270846664 -0.32379779015381005 -0.6788936190899534 0.034040891634792986
Ni 7.499910392666233 3.6483018635269873 5.523664827343389 -0.9957810552771754 -0.17122724301152448 0.7464298142687145
Ni 4.833783515276224 7.878254433515559 1.5573956175918109 -1.11205919574633 -0.6541704053116605 0.915919762874158
Ni 9.196662091980475 8.456604618041355 2.8753863680227347 0.6593475786372257 -1.0997770359448673 -0.5274425302640917
Ni 6.5247844436829645 5.7328786043758955 8.796114041232965 1.490552320560491 -0.1304328347029818 0.6333241579902706
Ni 1.780855580996446 3.3502857609818086 10.901272873444302 -2.0007550899075284 -1.41005570856632 -1.4160996007675548
Ni 7.7231481879738055 8.716385865363689 4.8817773098737405 -0.9097277751308334 0.6597934079253928 0.1588124142869394
Ni 5.154839272331583 8.756961256917728 5.654868345602833 -0.12157564142266804 0.034057089584709085 -0.867778427282241
Ni 2.9117460513646147 8.193550276943371 10.624454167320494 -2.120800667838915 1.09300809265215 -0.1970100084025833
Ni 2.2622746476186983 4.175781953729515 8.364352744256188 0.2724718861863243 -0.002785018944304881 0.1290117859857391
Ni 8.737990112827005 1.6700275286264414 12.30052777671185 -0.5458161476752729 -1.410315647095926 -2.607972009287786
Ni 3.954582984991692 2.682574630748666 10.483013545428093 2.5479516628700956 1.4953214598143603 0.9269335974861583
Ni 1.343038146262706 5.185769094239497 0.8020551728276055 0.7145010838809178 -2.6322349956002085 -0.34808443061531663
Ni 6.886068168930704 3.395889648559897 7.87798289473026 0.7051967757608565 1.6289794863228593 -0.3131971318198284
P 3.032731665703195 0.9336637135849867 5.922387076898167 0.054965300492285984 0.531998010845258 0.09725480528911638
Ni 7.10150722404098 7.3544680022106945 2.1018939668837224 -0.10527304760790257 0.3795035683565464 -0.059609227022200555
P 3.6223913949230777 5.399754456862822 6.642849873239579 1.0308863836207407 -0.35102988639688576 0.48897214210303525
Ni 7.712698058963831 1.187291910317893 3.1142289579009326 0.2566251489620548 -1.2051274737579245 -1.7563650495590848
P 7.870373408837869 1.5903944370456184 6.400219454447267 1.9821786124569218 1.595460271519491 -2.333520373667272
P 6.0924617836955015 8.690219400598554 8.62083255537073 0.6043956478813785 -0.11962725944704557 -0.3845257041614862
P 1.1043308686411548 6.844962499614127 10.081534765780132 -0.3092322336348094 0.45186932371346694 0.300377868567973
Ni 4.939793354183186 7.229615017293621 7.507896558624425 -0.6397578294307563 0.05272355564596081 -0.8964580546051207
Ni 0.7105475164539956 0.14480514286849028 9.510314074344429 2.409708845204392 0.33197698353049276 -0.3616629406306997
Ni 3.156441810614804 8.750460782966641 3.8253908651418667 0.5876420825721235 -0.5630854762786819 1.2619303416795815
Ni 5.923120323045673 1.497824396602928 7.0133503745633945 -1.6441857617496523 -1.205568675060401 0.13997239876230086
Ni 0.9112146787896304 3.6095824441418225 2.988685697620557 3.192463719156386 -0.2703509831885796 -1.303341814746833
Ni 6.008303045693036 1.70210019053982 4.5876569203391915 -0.2342377824057901 -0.11050909919586129 0.2884896017708193
Ni 3.826831757820757 5.791035446574014 0.21310674722712367 -1.1443800193662228 -0.0035455512594132483 -0.515314636652306
Ni 1.116216404697994 1.1391554892876938 7.245984143259901 0.4601328492738398 0.5575236659201882 -0.47317065629440447
Ni 4.833353807434169 0.21682326292489687 10.140198114668674 -1.1671427669840349 0.12180035583896442 1.0839557526418946
Ni 5.733710591899873 5.271134671287734 6.421831016086618 1.7176087547264935 0.13604581001438507 0.16090015005390354
Ni 8.96334901918472 5.931924762447778 2.5398101429939346 -0.12476406645297866 -0.6316321149998284 0.27240735149697604
Ni 4.680597240943652 6.394363542259263 4.551379521477705 -0.5144851987724752 1.0887308054330347 0.1419405782322652
Ni 4.571652588902656 3.330546628407412 5.948494113983016 -0.30617519197604043 -1.2449065534280754 1.6328199431148718
Ni 9.189713624747245 8.256452190844183 11.429766891299677 -0.3994787259268927 0.17893541028905957 0.6833853363127198
Ni 8.983837854802703 2.623594943746612 9.44582955560405 -0.10568622388592122 -0.47265746410341175 -0.34525004649031504
Ni 3.723939586448704 2.2840800349229764 8.076548145727843 -0.12270898369616286 -0.33395210497899264 -0.3960658435906017
Ni 3.21876773315286 6.252084532938853 2.6759516443489937 -1.494417202832536 0.47942949271992275 -0.5063576845693344
Ni 3.0238266563806087 4.616113636475278 4.575827154874618 -0.05981722926794859 3.301213669569295 -1.693584109677122
Ni 1.4498982581337347 1.2021762585490732 3.085954181893716 0.047296728203434675 0.3133035754907056 -0.25683032299432546
Ni 0.5380262177729606 7.875630472863009 7.274740740613422 0.3940657824414375 -0.2948307134974986 0.46059436229129064
Ni 0.2676915287041602 3.5204683518756594 7.195577584842846 -1.3428807533817195 -1.0823272158995358 0.4490416244566848
Ni 7.8153525196147475 5.801147294942371 11.199381317461922 -1.0260956471003166 0.30316880104954885 -0.559792664460023
Ni 6.165484688684713 6.165192121643314 13.146506405173506 1.0317435894147136 0.41964620201370306 0.1428054973357218
Ni 8.20869976405582 2.598534748106769 0.9367896095679353 0.1842539942884956 0.1694380123215856 1.2540879628170274
Ni 0.40254756362107164 0.2614278512022059 0.6780972602028112 -0.635056567300345 -0.554762044014651 0.18093418588664323
P 7.048570874987827 3.6834647648151444 10.039891504524986 0.11483909402978287 0.9946104320078418 0.755782459128208
Ni 4.591483148677489 4.648241154708919 8.892700478590863 -0.980526186000634 -1.070778334719672 -1.0568768941472315
P 7.576782382793851 -0.07041174414472455 12.819949473467839 -0.549143669386609 -0.7489464100429811 0.4628695314787125
Ni 5.323312174577258 5.5801220378853795 1.9508726886575054 1.1073067686630091 -0.5562741097838032 1.6081453231863274
P 2.549328628831454 1.4156039152497315 9.915325601017283 -1.8009366655218724 -2.0883119511825905 -0.9127269669684732
P 4.091769499247748 1.9353401215752253 0.5245800194046578 0.4432448152692496 1.1478350677943587 0.7332475112504856
P 0.7069251707726728 3.319986786756912 12.768217220644443 0.1402549629997262 1.847700918260605 0.45531383061864167
Ni 6.3568875328000445 7.9616177548742195 11.293625389944618 0.38436938108928 -0.4222808114230727 0.7239550302049661
