# total energy = -340867.07134483225 ev
CRYSTAL
PRIMVEC
9.23365464447088 0.00000000000000 0.00000000000000

0.00000000000000 9.23365464447088 0.00000000000000

0.00000000000000 0.00000000000000 13.51438692430150

PRIMCOORD
 96 1
Ni 7.7306093573476815 5.078694584498444 13.11045496276559 0.7270267271517544 -1.6275900621745 -1.4075817931045307
Ni 7.952863418379785 1.4509118143812842 9.328413839137488 1.2378645589796293 1.1141363899903327 -0.6565970124752821
Ni 3.4172185155356853 4.914723349940568 4.078912345740408 0.050512406927254935 1.1488987331721825 -0.3460193205561718
Ni 3.058897323495311 5.438179216991251 13.138929706156151 1.3188028864969095 1.6045025842274174 -1.0764291052475463
Ni 7.83976961947986 8.79319983659373 7.8213697163881 -1.9986920367309124 -0.4001330716814399 -0.9239441758405315
Ni 2.0926323267871476 2.986163827909525 7.510039514875289 -1.3952386981581455 -0.44782549266139654 -0.7776370931094543
Ni 2.45366821321653 5.267144236829321 6.518799329788246 -3.4921407050025928 -0.3538982090836163 -1.7048416848688126
Ni 7.140449571024214 2.114811564618436 1.7830205083552715 1.6996652828741956 -0.06762926911319966 1.0603957059337672
Ni 7.726334175367712 8.427464020082697 10.429714567659186 -0.9522607633970375 0.05686508861816013 0.738157032736961
Ni 5.504005939097518 5.817072991000031 13.276101182228796 -0.15462048769277886 -1.8624976169538054 1.0004625199132449
Ni 5.907498168386295 3.37987761720524 0.23071855200626754 -0.40087612049505156 0.1945882863349681 -0.9042873208415524
Ni 4.3120888965437985 7.662151043741864 7.940850434025703 -0.25911629081502474 0.08512279791227276 0.14965517326770356
Ni 1.4224167569510777 2.4299100204855124 9.895720330859607 -1.429778126695912 1.0882584937823063 -0.8623760253197471
Ni 1.1467275379965487 9.317588302737237 3.5655276255267716 1.4066855065425066 -0.7577629798933466 1.332462643372189
Ni 1.3384366703251127 2.3642679714669326 4.5598352306003065 0.1044307542122653 0.8438401712990886 1.8569160091009698
Ni 5.727663515596048 5.458520957600046 9.088532731885596 0.4167719657897016 0.8307257454043177 -0.30393781800508946
Ni 0.2958185855124844 4.941768723632426 2.737690805252965 -0.6310222493299713 1.0018043786531199 0.5273779955747434
Ni 5.746823348443643 7.503627665270773 5.912652394263659 0.18984331545081498 -0.879661294762756 -0.31959480781605604
Ni 0.47633098853454514 0.696843582349754 7.675252675947865 2.7179491472395774 1.6481043800777682 2.737676707575492
Ni 3.217799281796162 7.440303263502674 5.382928722616856 1.4395691446444046 0.17104109514264737 1.1502135953288644
Ni 2.3729383729338682 7.554855979795332 11.859333575030083 0.17269200048250904 -0.08527552144005314 -2.6243147123118673
Ni 3.424079120743282 1.3933215119858864 10.290597560607754 1.3013885476752038 0.04150377567074143 -0.30629731937620147
Ni 0.28018139181253143 2.7185540565413313 0.3644920432654575 -0.739260807324101 -1.0048411085969147 -0.30358146310693523
Ni 9.098409048615133 7.075001428747706 8.837543538409292 0.521096790551722 0.8815340863054366 -0.06984581714854422
P 6.9063764323801 8.740983521050044 1.89869049682844 1.408010138891201 -0.3190996133471924 0.690651788067146
P 1.5163414893490237 7.1826935398327665 7.134920458778845 1.032172706532332 1.4465234644750506 0.3782139030108454
P 5.784136545810935 3.3278367410948557 9.30153374785911 -0.39496489721693917 -1.669688276896131 -0.16266855480823597
P 8.405340184177716 6.951344329232047 12.29999772677407 -1.471603290261814 -0.20363625546984931 -1.5537166119238015
P 6.310067032236634 7.6465554014866415 8.857112422146116 -0.7639467401065553 -0.2786890707406297 0.8055081084881096
P 6.880355994324908 1.4866091222313098 13.253775129292794 -0.07611005289070118 -0.5784889553179458 -1.209233268396182
P 3.5390011832113153 1.102756875818116 4.23142184511095 -2.4068646908873776 -1.380441742354629 0.2860794496674299
P 1.0565239683155092 4.61691952873544 4.696235696531853 0.4141347852771707 -1.1176325760690493 1.1665421572855588
Ni 6.4772792794834295 5.686823062253921 2.0965547831696334 -0.17260046920996727 -2.296036003568568 1.3256137387711557
Ni 2.451996921772957 7.945808906430116 0.5014649957688362 0.7710578972300398 -0.7196918840532379 2.2038629836777335
Ni 1.210015005147111 2.168311358121552 2.3887759369339623 -0.27360754245266433 0.3365134379482656 -1.3072084967910906
Ni 8.317666635797996 7.5355114738600495 3.241236143354603 0.9763746257261056 -0.00545562379793254 0.3906333597211208
Ni 8.991104751014216 5.6601101001199 10.60572556416886 0.0490695038331413 -0.1289534219439779 2.626211158003632
Ni 2.2442212308155662 0.540331293803582 5.896016119159315 -0.022556545144277282 -0.14932324384958154 0.6079944209762304
Ni 8.502413592720735 1.285527830702597 11.861779570076505 -0.6880773424717505 -1.173496734226521 0.4004405756195297
Ni 3.5474407433186417 4.832072909545953 8.379257880638148 1.667711355675418 -0.351444091116169 -0.12199344568637699
Ni 5.789852177874868 4.011745820382966 5.312383603120168 0.9841380717216083 0.9059914480168525 0.3709729051777159
Ni 1.2942813350589921 4.187203720995015 12.546364552865553 -0.7615062489858627 -0.5984486862693242 -1.266150036187884
Ni 5.366673797438587 0.638798060793206 1.1037384132791759 -0.09218124742095093 1.0152823585348967 -0.5913964074082331
Ni 2.1755782441220615 8.291858571793645 9.191377174418857 1.494454998049007 -0.6213888400052654 -0.6385481253933714
Ni 4.261349965701613 2.5782671454793973 7.640858236731477 1.720687136541501 0.7279420398771722 0.8758000120351369
Ni 5.505695697849861 1.8108488959389257 4.523116680575368 0.752113237806737 -1.1726174169453611 0.2068125963153019
Ni 4.991270344787104 8.84934045525078 3.6380053488861104 0.655896901084464 -1.1899505089071698 -0.26551268125967176
Ni 5.57546519037826 3.5714851793355757 2.837088324604535 0.11030392516359067 0.33163117015529986 0.6864745167610048
Ni 7.20789218264775 4.830530889263762 7.156597385811623 -1.9159217982112162 0.35220513765190953 -0.43883640178890876
Ni 2.990337439691266 2.519559570903489 13.520333187426608 -0.4670385752547376 0.29088098482113134 1.1760518965482067
Ni 7.638125075033699 0.5572695094062945 3.6907655266730375 -0.7013573474101082 0.7916902287684107 0.9707580508702767
Ni 9.112185660956632 0.3093902107266508 5.6573658580368615 -1.690123147711715 -0.7803087264043465 -1.803178667478514
Ni 5.409102439334827 0.8163953991261169 8.807569249546708 0.7802722167394562 -0.6783377465864834 -0.6765042929221704
Ni 4.579975677543523 0.3819113322615964 6.3507071152786185 0.02502480417911174 0.2405668099476115 0.08371023383546228
Ni 6.246908836247453 6.640050138971336 11.263740706466844 0.42105928031114587 1.6459860481831845 -1.9590654234782263
Ni 6.28496995961988 1.4391943069675022 10.921557172194056 -1.5502877887479107 0.6536189036835647 1.4537906875604252
P 6.753374779230871 0.26752482174785736 5.873825800942765 0.8028254194496238 -0.49606453017344243 -0.9582131243257304
P 9.294227157144746 3.2346507010476606 8.184690932277617 -0.45964433967319546 -0.7874144842111923 -0.021721965058123877
P 4.404619347129702 5.395353527956481 6.261688223455097 2.707196279598447 0.714091507147325 0.2623008591905934
P 3.2122775564743002 0.7336738595927432 8.123835609691902 -0.23142242444418207 -0.33395956117816034 -0.6848158981116593
P 1.1546038451864276 7.177827403972198 2.2212783697666896 -0.06508747652795242 0.5201390546241429 0.1472211099049142
P 1.9890214909399835 5.573387618141774 11.023955629220552 0.19974977593124954 0.5571806807584727 -0.2794763425286155
P 8.134036951055768 4.08211550044635 1.3967388874735465 -0.6595792350320576 -0.3175785487169756 0.6570073605398233
P 5.250856070495268 6.526522358315344 3.8549925334573616 -0.4798529534105864 -0.21484497970147515 -0.5398679005116379
Ni 7.855134420375473 6.899478892554966 0.9216313581449322 -0.4690095829381793 3.504120760182604 0.06316583402520735
Ni 4.58422315856034 8.623383698810539 10.573588753449453 1.0131971938710937 -1.2808796290885747 -1.1210593423624113
Ni 1.3553988934292245 4.962082763278068 8.998257139700359 -0.20318194154125005 -0.399181506401448 -0.45812558903582395
Ni 5.304928350570216 7.432048376483036 1.3431015125201031 -1.565218441915814 1.6533941677217976 0.5628386503751984
Ni 3.312010257480023 0.5277282789343374 1.9356518919636874 -1.1750008295758732 -0.4397931092752232 0.6945138421257137
Ni 7.574966879044519 5.472316037250315 4.253842081321671 -0.2951585291505627 -1.0926761632340278 0.6767817149532731
Ni 3.3655100509831395 2.6851928632505544 2.9052548547318056 0.4010841227407995 1.5742067614573534 -0.7858916198087627
Ni 1.3830813892736054 6.815526506892154 4.310927302822242 -1.584303483571723 -0.8349179291087943 0.19896019015041863
Ni 3.322194978265998 7.119110595741905 2.7599485291465204 -0.005478763726384113 0.06290306728212393 0.027628303240229836
Ni 1.4888529002467148 0.7819972664479742 11.48043056736692 1.7178334691427901 -0.04061931618325908 1.9363924073607424
Ni 9.100966770879607 0.28739841607936534 1.805400116486701 -1.1831787374009752 -0.7463192568327791 -2.100003785698222
Ni 0.3490395226531922 8.4600403527508 12.987190293561268 -0.20768779983140362 0.9023867613847297 0.3665009854492914
Ni 6.254480432842646 4.504832198163413 11.426684235291738 -1.0331330135630723 -3.7194668478902138 -1.477331708105159
Ni 8.69178661049005 3.4383081821496164 6.118854670513949 0.43863482730106396 -0.8818575310831263 -1.6326623344910849
Ni 2.22358401326647 4.694269851513419 1.5412751262831734 1.001472706345314 -1.3704380941746979 1.4604475307553106
Ni 0.03449693278005561 5.672113850819599 7.045049300655643 -0.0057716123764545765 -0.2186972635680298 -1.7770518884844748
Ni 6.560705346846331 2.078698742321113 6.885404033176851 0.473209737062456 1.0263072488904905 0.7026292721439964
Ni 6.212495006356856 8.482699740610077 12.66620999985134 2.7968462759571118 1.8599442544043323 0.5965177877951985
Ni 3.9817272099793364 0.2672044139407193 12.558716412335542 -1.6632196384526514 2.427900428511754 1.0544803688905968
Ni 7.765244794943503 4.274434053964284 9.3181423220003 0.6024616640834591 -1.4070930263935701 0.3792644557625468
Ni 0.6133565728679149 6.019954845133698 0.4989552885071608 1.2750504240013074 0.044321190514878504 -1.1073083113249058
Ni 3.3913458159506438 3.9231766075279624 10.57856199970088 -0.1562945329610921 0.5290738952199276 -0.4133655112113139
Ni 3.7492699608524895 3.0348990557502993 5.360657148241723 -1.9893442769674257 -0.5993208044616324 0.9956350166176144
Ni 3.908245788388415 6.4420805889701604 10.024552893657713 -1.3452155721624834 0.10635599625943618 1.611237846068722
P 7.29493784252933 2.745784103320877 4.13713238336482 2.087924743046501 1.2550595827016773 -0.01958383566919853
P 8.9767464184465 3.1712893646620235 11.192777302426544 0.09592503073409932 1.5749423540717973 -0.17232536117170966
P 1.6895648456000523 0.7601061186334785 0.43475091947622924 -0.1825789205789178 0.9564043532517658 -0.08947027624769108
P 0.4644685127469281 8.994161090615446 10.04051326526112 -1.7812571848150742 0.9209195300815947 -0.9177231346314841
P 7.909123597560962 7.186276197733908 5.503801875335623 1.234096607296765 0.11612233161758066 0.43020109471141393
P 4.388340414450035 4.44634623129273 1.3100007082829663 -1.469609913980869 0.532326083608638 -0.34136279562076693
P 4.445533669706904 7.476462254071919 12.660128715073784 -1.9896461244785606 -1.2490218611480295 -0.7349943187382633
P 4.377296963806312 2.695091340750613 11.95178553955372 1.6873394143189908 -0.9574693041811705 0.13048631364873656
