# total energy = -340860.9967729149 ev
CRYSTAL
PRIMVEC
9.37678130338749 0.00000000000000 0.00000000000000

0.00000000000000 9.37678130338749 0.00000000000000

0.00000000000000 0.00000000000000 13.72386725709046

PRIMCOORD
 96 1
Ni 4.446038442598052 4.956154108297844 7.709615982174057 -0.13305381726559667 -0.7691763639366108 0.14871440662098903
Ni 5.570473946508239 8.651900004544023 11.63895157008746 -0.6586274126417495 1.1360049079286498 -0.47056741434360255
Ni 8.57379141487307 4.128831302144424 12.199735612155317 -0.8399562628636501 2.0158878317839086 0.5704655707928368
Ni 2.7069549131259127 3.2356741132683426 0.8062963113781321 0.4092185789224759 -0.18912109257280976 0.7221981954148594
Ni 1.2072793682250587 6.6131064088470675 4.661257144003172 2.2143111755942515 -1.6253156643180269 -0.0351876036447265
Ni 8.130044608439906 0.7661168027658825 6.339535058656676 -0.31111196715602546 -0.7163875022703532 0.7191344688878711
Ni 2.4463835327698313 7.442660888991087 12.379189393665724 1.6135842348137113 -0.09632175195188572 1.9004229312446692
Ni 6.503979426063085 6.201015616667103 7.167673644798256 -1.89708229690721 -0.05221216322718105 -1.295474239073298
Ni 8.22014610161496 8.811202144990585 0.7922995896732301 1.9088268390376482 -3.138040664320815 -0.7545542431480617
Ni 7.892802660388907 6.325454883596663 8.883514008354865 1.2499492580583054 -3.5048761502913894 2.470908042421532
Ni 7.8977536010067055 2.19602346743796 10.671473073577411 -0.617977243220555 0.16070860286838776 -0.6667125036427293
Ni 7.100961595329711 9.138479948746324 3.773034017538237 -0.4025213694079584 -0.3860413694750642 -0.013598564620041095
Ni 6.178398819753976 3.7359722887657947 4.273598493629526 -0.08890154822841465 0.7028897248942346 0.02953477623432333
Ni 1.0111170998077272 8.849543804434106 8.719857290592197 0.6017947199234216 0.6359315137061305 1.5038881184374486
Ni 0.7355888153238984 4.467079940223697 0.12790117464943024 -1.0582231237624806 1.1107155372342419 1.621551312179588
Ni 6.741249504458503 6.287216368749346 4.582893505876149 0.06130384111580411 0.4186648119370403 0.07847778179192937
Ni 3.7745108606202513 7.359704503298537 7.734441948802246 -0.41226790727176094 -1.5676733312142097 -0.31111556670045126
Ni 1.7819072904598048 4.070507721381719 5.240362479391325 -0.4266267470965943 -0.40149087126091504 -0.9319102247651434
Ni 1.8594814035867924 5.1954683250543985 2.7138402837616122 0.2939657943940421 -0.4949378727681669 0.2837096638836727
Ni 7.680259154738064 8.218139470379715 10.272987053636774 -0.10302796032746772 1.4334571182093958 0.9456717973256099
Ni 4.582761293257378 5.132803294469646 3.0000102775392667 0.37579603759797214 -0.7777054844535444 -1.0862291220571034
Ni 7.315455471526961 7.4846313628646985 12.533775013031313 0.3819183484456261 0.6101603182792976 -0.9557854887208443
Ni 5.758309632977453 9.137364111751026 1.455347748164903 -1.0441820722883823 -1.1672839205475898 -0.11732817900022374
Ni 2.095438732575976 9.01052438876435 4.298713265127088 0.647385264069027 -2.4286753590045658 -0.8697088115357345
P 0.7882966416623621 6.677815577792957 8.708603277468177 -0.7854794719720085 -0.39079199678617216 0.2884443503551807
P 5.719095932856934 1.3478560760698306 3.424036774856346 -0.45165617926139634 -0.7644213657501286 -0.424748813347591
P 0.4099041267404373 7.010653812962249 -0.011438735719039307 0.8302971425073314 0.41414532680013194 -0.6250539475616783
P 8.808360980204233 5.486073536468831 4.179562502948357 -0.037616781911509405 -0.5438765074503988 -1.0543281595834488
P 0.22421291019412115 0.6286756906457163 3.351011338421961 -1.1294825334290999 -1.4852699891156294 -1.9146753273986252
P 3.4933011842418686 3.1929816272213007 3.7713602620452886 1.00212910898239 1.320905791772525 0.7488751904854135
P 7.824277141383464 4.379500801264907 10.293380615662626 -1.9309807494268678 -0.1477967799027261 -1.8439342521293212
P 1.450259906537597 2.901138680652419 12.67338778774065 0.26365145968121695 -0.3320960256068603 -0.2091744116792591
Ni 3.8276865883542226 0.8625832552048796 1.7213435966031745 -0.09634026389464699 2.8508201590704063 2.2484590251205536
Ni 5.496434879996611 1.7660886601146784 11.107755024279838 2.0429150111050305 -0.3578839332042417 1.1695536904183728
Ni 7.250755679362545 5.11112417570383 2.4172667509395493 -0.22796351936130418 0.3986598295700231 0.4551040286006807
Ni 5.520739497574897 7.462436521117863 9.069033629800224 1.008001251492451 0.12702329480080057 1.663352307375774
Ni 0.7192141418374172 1.0162555760549883 5.306470664133001 0.9641037787785524 1.3623512034015053 1.6353643068032802
Ni 6.230524347962961 1.619942144074883 5.471897718237793 -1.3781827711171233 0.17799027276697088 0.7990404984858949
Ni 8.128928771444606 8.233573652684445 8.041253051636644 -0.9924445347047746 2.5816444271368506 -1.0989069746350881
Ni 8.752981708824082 2.161010565417391 12.837593984897643 -1.0343167494585284 -3.0782470892019504 1.3285987895414086
Ni 3.8367820663831336 0.9570974617411764 4.7250314478361926 0.8092210385633224 0.6434784728154531 -1.2591450656249605
Ni 4.831433537924091 8.824085842734629 6.256257987037746 1.124318215619341 0.0017051556165648054 -0.2206394748960652
Ni 7.326163755969246 1.1817276387108506 1.4211750057643235 1.3826027545616897 4.375723189196625 0.2843012747210845
Ni 6.85344269478419 2.4476587750501735 8.105535577025508 0.644724172297096 0.13811580516953634 -0.6211052473265755
Ni 6.071662916245636 2.958918408089684 2.123810060279146 -1.006175254027306 1.2977987734414165 -0.7221130919002209
Ni 0.517662099429346 8.261225781248628 6.613257375028784 1.5859258496664943 0.918574683998502 -0.8391281105354
Ni 8.94735301198005 7.94849136555767 4.547554291860315 -1.6628511993696395 2.0951192039124114 -1.658769315990782
Ni 3.7630805640045377 7.794140165728908 1.6809268554196555 -0.5598098908512036 -1.3620578405308026 0.14603454579598077
Ni 1.0179996574089856 2.012773027109093 10.25736908641517 0.7586366407475515 0.4364355056568999 0.7597506997473367
Ni 1.8489512779924966 2.1007084837638605 3.243499037407647 0.15077900245950163 -0.8037870120319447 -0.6664412522592136
Ni 2.6372291660919123 7.228138882449418 10.03114485659507 0.25412166581391077 -0.564321662678628 -2.5806501815443816
Ni 5.067503388290952 6.906993493777087 13.301213941984905 -0.40782966899474926 -0.5718727355530087 0.8715846884022086
Ni 8.809861265239931 1.3497126788015048 8.610492137558797 0.662629334712291 -0.37323984683502176 -0.9040746906101139
Ni 0.7415646381567074 0.247066939678517 13.087601483246125 1.490572375165149 -1.4655941079532564 0.5406528583067786
Ni 2.6871230203102976 5.574280919786319 0.6228030124091114 1.0233877612508502 1.8198178186970917 -0.9796023886347838
Ni 2.349774553252443 9.32789093450302 10.694776250894368 -0.04455284690971037 1.8349397619401946 1.3226328017659608
P 3.165798337730773 6.51139646020831 3.7678739746935888 -0.03751753732948377 1.8924447981351988 -0.40690227208447344
P 0.04536205573243418 2.650759861757601 6.5064305167401555 0.4199675899088638 -0.8187901703089964 1.6475163687847818
P 5.84642324848021 3.734547017981883 6.312540242473757 1.004568314551502 0.8578246585036388 2.6587353558835822
P 2.5095549095541316 3.964981422683408 7.24933134625678 0.18460135032558528 0.6189141532125275 0.8928541393039462
P 5.866602082210329 0.34546313374467885 9.011791191941366 0.3563417855281024 0.08337984707923705 0.5420193996370021
P 2.6494189820069476 5.511015775187287 11.145646598212648 -0.44127689290960137 -0.6286614624072786 0.9606150488990037
P 3.720725642090528 1.9456821556690354 10.262639775281201 -3.292076226044401 0.05694890658121806 -1.317402406604957
P 6.630819149049761 1.1083637004652866 13.019147227779879 -0.5984121766044339 -0.3365918565946848 -0.19120085791997396
Ni 7.918194984618071 5.903527847651412 0.16430746639690302 -0.48958509309668585 -1.8894173241627847 0.2962846723352059
Ni 2.099714544927711 4.068529220490894 9.47266656509145 1.7052396916381793 -0.34713569354880214 -0.5749354336387325
Ni 8.163613486113617 4.132253827382107 5.851294486455487 -1.809571458378735 0.21948016448064137 -0.9001367890082884
Ni 3.9570861726830553 2.8411272792245543 6.036814107900845 -1.1200036474043873 0.835107419411781 -1.307113365974123
Ni 0.17565899804824245 3.6689283012331027 2.622425103502176 -1.692676253150872 0.9843036507651951 0.026793208933444182
Ni 4.895195651941197 7.9303660469701605 3.787663671992574 -0.19900004224941858 0.04687635283656443 0.3779241396845685
Ni 5.7414220495443935 3.9380231759482354 9.665226274066814 0.23791883080180315 0.4882139237807721 0.2969205061469919
Ni 0.4004551440499906 7.507295043685191 11.496195698228341 -1.3571028105183724 0.18075189467250805 -0.25563964512033394
Ni 6.204222475930904 4.171786338072713 12.09690326277423 -0.7689549919544242 0.7654536636693849 0.49017310438967193
Ni 0.6427914974753268 2.0476921613149313 1.008399708536822 -0.054179314255880885 -0.7147101145679304 0.9756382617807133
Ni 9.140139639067066 6.571314093821444 2.023845130672534 0.7840064869709078 0.5113379113927452 1.2223950025891204
Ni 8.099673213248522 2.0573033623248627 3.8540184660869934 -0.20413402104187425 0.4426704308230182 0.056704908891212026
Ni 8.721456969511507 6.408936369051706 6.342141803906199 -0.10547796452985705 -1.6479092333478265 0.2579148143077558
Ni 1.6869486244816827 9.194599985862851 1.7848300332449711 -1.4165063492876704 -0.17737372222889453 0.45602988284905976
Ni 4.891632474981417 2.5340095556359863 0.10921793756427096 1.1983109650567234 -0.0961407462893312 -0.9483444590617666
Ni 3.5528812537219703 0.20406314448656843 8.583441998365188 -0.15633412794977594 -0.6984291180197197 0.08369275033396555
Ni 1.9023801788262422 6.088869310248782 6.91934083962087 -0.03143867812525553 -0.2165097689984078 0.20264998029718
Ni 4.294247104111448 5.843882140700999 5.452725950837885 0.3974763507848832 0.16954059933772092 0.38273570214059893
Ni 3.0760062783443307 1.4744707563011508 12.731645731033044 0.1276853538648317 0.6480180125570194 -1.8764684773116005
Ni 1.90397423167667 2.000742616479101 7.896068593375989 -0.3092296625316481 -0.1267183619658721 -0.23199989421420686
Ni 3.60312204885486 3.7363286064617727 11.904370746465135 -0.05382835867436536 -0.14005210296030074 -0.32130741963178855
Ni 0.00805090457280691 4.49509776326533 7.9373770664776 0.587467247557156 -0.4279174408835598 0.5870604990370406
Ni 0.3915781450294033 5.124983058721077 10.59728210320592 1.1883217150544954 2.1108975497925906 -1.3186090253185485
Ni 4.629785852344994 2.185624616784288 8.075178247006333 -0.7341867352353033 0.5408914566801459 1.283223960951035
P 6.670961150536118 7.3104482702203235 1.5585373529201156 0.6794764881766169 -1.9208367190143305 0.05054608837866778
P 3.1737967323273306 9.192058878083639 0.13260550591448642 -0.7806146876805394 -3.1798745696374655 -1.0721911559067987
P 4.663045296230093 4.73599665609084 0.4113331482369384 -0.14275304683123155 -0.5817115760203014 0.043044894905616186
P 2.5743672230962247 8.61732781125269 6.54355413227032 0.7396109915746681 1.1302338097728277 -0.21048978805657295
P 7.1585350335745686 8.092603120017802 6.044073612117322 -0.8056130094970899 0.10188793318575355 -0.8544634553408896
P 7.674773737576297 3.640404131991921 0.7795387277664831 1.283337346600448 -0.11378134218922986 -0.3434225063632731
P 9.373780903032392 0.323820584426608 11.137934195451022 -0.9215335095165096 -0.4416419895585039 -1.4645936917132003
P 5.5686736044654035 6.407942430215557 11.220167631291993 0.6108478312646254 0.3558735876424322 -0.32201627277335504
