# total energy = -381168.8752259723 ev
CRYSTAL
PRIMVEC
9.28652440273164 0.00000000000000 0.00000000000000
0.00000000000000 9.28652440273164 0.00000000000000
0.00000000000000 0.00000000000000 13.59176715966758
PRIMCOORD
 96 1
Ni 2.7886411493554477 4.34704996831963 6.8572096075480795 -0.5447468258704941 -3.058714418485661 0.42562324553274444
Ni 3.4292163214109994 4.761461123207044 2.5843385394639604 -0.2851633656110637 -0.31439372323109077 0.7128900306400561
Ni 4.034604852214597 4.553990879815678 12.963188603302973 -0.3638167537489089 -0.7958032224955198 0.3778143535795816
Ni 8.532607275944757 5.87852786629393 11.634824640086814 -0.6459757853160101 -0.37675505907713175 0.6126352621823513
Ni 2.0947148941664917 5.7936861786513205 8.473841220387492 0.6559724915174058 0.3314810177306807 1.5887311803257735
Ni 7.51326262995323 8.996367021915013 4.4494691894966 -0.7748078511907752 0.13196804040058563 -0.9079184898362364
Ni 4.74333382742351 6.040391987967602 1.3117568714898802 -0.5903062596678478 0.8530208093570922 -1.606895509939626
Ni 4.611205157132459 6.0072576686255665 7.752744451877087 -0.7660254770124549 0.5493984657098925 -1.3232339256850696
Ni 0.8233293305453413 7.534825939794094 12.680643310063845 -0.22174813457921164 -1.0906575901421023 0.14636596099347052
Ni 3.371686302261923 6.661576896910438 12.560083791969069 0.12753751543305777 0.7064000520403383 0.8119970586465628
Ni 5.505813206318436 3.373200005752044 1.2597384046192504 -0.7651160778243081 0.21579911608462835 0.004866069843049684
Ni 7.565295026610578 3.8560899921495944 10.40720275172667 0.6128772029898284 1.1644937593969622 0.14428928097009988
Ni 1.8458174650731027 2.84381239128679 10.427100987728402 -1.2925976888564512 1.766245027676958 2.002267669897313
Ni 7.551727414346365 4.363050649997412 -0.04277187444662083 0.13680634232949343 -1.0225511242821679 -1.119390953521053
Ni 2.2869088047894595 0.9128365680863354 5.2772207629989705 0.09021281084067044 0.2898273467456363 0.16057027751831057
Ni 4.175323557648973 -0.004578256568280009 9.39961763168324 -1.3935512831533936 0.5846819715025349 0.23089534829611846
Ni 4.109472812566471 8.650685434698673 11.76336221136173 1.005745879799371 1.535530427933078 -0.016318791764681574
Ni 1.05442913547421 3.258715731971606 8.375464423316346 -2.002249672175184 2.229084477248684 0.2593435763344824
Ni 1.0539090901033707 3.0150744757334835 0.32591707716710905 -2.0264828336909355 0.9838197691502412 -0.7197258226149669
Ni 2.2266764070169156 8.340004758244703 8.354410943669393 0.18503818075268777 -1.1528260932510468 -0.25014674032656276
Ni 8.72843221763912 1.7457830233824083 4.867321001703584 -1.137112539170532 -0.989593952629857 0.026343265880219145
Ni 0.8577117587773898 8.421020397801852 6.3844744356686105 0.8318945689014382 0.667571766319231 0.03330272791718781
Ni 1.9393049070059116 5.051980755016522 4.450651364062812 -1.181678755816681 -0.054293985456874236 0.6821746038340702
Ni 1.242406963983589 0.9285150073646865 1.2728082591713747 -0.13659191232584217 -0.2154872412711644 0.6877328146481382
P 2.865877173449535 1.1379892827386795 10.832434564937328 0.9709596253581213 -2.6876633517718425 -0.09915510763562278
Ni 8.607633107212779 4.147046090609597 4.074825718386763 -1.0509646424278545 -0.9072613158682118 0.8428004171806646
P 8.707110357434717 9.436316119120418 11.070019149910072 -0.4967348167675897 -0.6685395295491389 -0.281227006671135
Ni 1.9022052417112287 5.176689492248634 0.276839652599064 1.004391679764322 0.2324552365840706 0.38384898980943566
P 4.123421172334334 1.7376015953161716 6.689799573455386 0.3373228212234384 -0.011819361232431257 -0.31373783481464673
P 5.603656028232023 3.286454580591185 12.524609268458258 1.5350727715703691 -0.6552926918415617 0.5437597793668764
P 4.8177931806982945 8.005819888333699 13.784226948259278 -0.5630859904993142 0.20640739045708326 -0.9912194040484219
Ni 5.425911949698798 3.836012526225413 6.79252617859262 -2.3213978793721246 -0.7971846762240786 0.11293416369758615
Ni 6.15742076945536 8.19173610840868 1.7732767077557345 1.4340875527045431 0.48196665731947963 0.7063406595573125
Ni 3.231385490429115 3.024175269723168 4.428442640770638 -0.06523608629067473 -0.16580041556899833 0.8158231172608723
Ni 2.913210588720373 2.1314338119575247 12.783410775908788 1.4761253465018835 0.4286700027788682 -0.033775039567916026
Ni 6.793445544516069 7.914134032149868 11.233581776911004 0.5556133362713529 0.045682846749095514 0.35397842750224845
Ni 2.721183835538032 7.923819877181748 4.718613099259693 -0.9871398346624095 -1.0807372457045967 -0.884476199652896
Ni 6.861265032788176 5.448366765889673 1.894801095743907 1.26758548308283 -0.238722300539705 0.33319851464241973
Ni 7.2047271406539695 5.140954946052405 6.514751372978495 0.4013911124582571 1.2171067576069878 -0.6796742060097197
Ni 8.068076748442724 0.4167207135254091 2.136245160290234 1.8850292223974179 -1.423736291377206 -0.5001980927258418
Ni 8.852258735045703 2.015556559505196 12.22856694054096 -0.6157894915406169 0.42624802360093683 -0.6964185153475941
Ni 1.8106679699190666 5.574134166912423 11.246698064085525 1.0674479847948584 -1.5681530990641057 0.2029736821851859
Ni 2.5918875552131593 8.347851871429684 0.7365727615551071 0.40040329462369106 0.05971515647244555 -0.7886763816427514
Ni 0.29867320030227523 6.725486758376772 4.631747877933051 0.9186770139043211 0.1592998954463192 -0.6078584096189983
Ni 0.5685656039383975 9.176915630840975 3.79257852258342 0.41285900388854063 -0.7336948832005493 -0.17491549049638908
Ni 3.9979416535704404 8.03683688009446 2.66609338636966 0.9378610430319397 -0.5785655741921519 0.6330197393759743
Ni 5.928730817628861 5.376405487699811 11.273392178701185 -0.49951597905715256 -0.038718499616120415 1.6512023022768014
Ni 0.3433673853161049 5.663247655815497 6.86790675509575 0.11128222991645996 -0.12130516137010076 -0.14281783863089598
Ni 5.965616892860522 4.128138726769802 3.6905994826667667 -0.5954759767942455 -0.6226440525686051 0.5304640906992347
Ni 5.720424787034361 7.535838170962334 5.26641589176734 -0.04701956328264805 -0.743041871633088 0.036396793461479254
Ni 3.906785129281928 8.287647333230579 6.6003118376157985 0.5218002443766497 0.47643004377196657 1.6869167249592754
Ni 6.385460664568309 -0.08097849345923264 9.29429544295405 0.41937572196113576 0.29296537815398577 0.3027039455979884
Ni 8.314076781898581 7.130342079575019 2.6852709880718004 1.677546339487969 2.021302575041577 -1.7476765206461513
Ni 8.002402447325329 8.998085028943677 13.199876110011017 0.8312728761570394 -0.5004613736895573 0.09140143183213291
Ni 0.7209964740460277 4.787927717972964 2.518187839640778 0.16407546245809163 0.3627687721003688 -1.948059816396342
Ni 3.951750480810553 6.663155606071914 10.106634171778175 0.15690722684442654 -0.10701034201398345 0.11367078475329455
P 8.96701231803604 1.38483438992215 7.259431270404004 -0.5600927121989451 -0.049525103313321155 -0.002224261344828427
Ni 8.1009231855259 7.5597695445454125 6.15069639707992 -2.088908190005693 -0.26069314838384133 1.3113191765253545
P 0.4123839065935901 3.9951464097021803 11.759134985418767 -0.8740694024972753 0.11494502348002783 0.7116666997559163
Ni 7.199303810358076 1.845446004093932 0.5086814508338262 -0.23746888774857816 0.5818139059261206 0.02419510918896478
P 5.342871847805168 6.197241386422468 3.4096310412842197 -1.1751016168197954 0.7602919169627874 0.588308769621845
P 8.088200646989302 5.376563358615959 8.507821542109587 0.9789092192225011 -0.9296006027953603 0.3892639901774199
P 8.470759022912821 2.9334830716586193 1.712467616813028 0.894093411027686 1.0481711388431174 1.0804371979656748
Ni 1.36473835094901 0.4453232089215601 12.588300896599328 -0.20851209550491187 0.2366865010565988 -1.2312262277275052
Ni 5.451496324639187 4.163362514119673 9.140477166089216 0.370966991640445 0.2249113627985417 0.09073320212051471
Ni 6.730910088672666 1.8232604971129565 3.0975499569387743 -1.1856521386421324 1.077012745665158 -0.28263262876941
Ni 2.9447754854254113 2.729885308975108 1.55283226101438 0.3386412829245458 0.17230659211863228 -0.022598711236122372
Ni 8.067807439232826 7.750459038202739 9.00787581170217 1.7355069751631529 1.4087886689284383 -0.9215219395522839
Ni 6.030000367075299 2.2705552351814653 5.2094523506115 0.26903457837000117 1.4740913467909904 -0.0017411510608228078
Ni 9.183861951151469 6.071501844973155 0.6228035501595727 -1.6534350482620623 0.40749568269409825 0.3338430902049541
Ni 4.547657470120816 0.945665360773002 0.7452538046383285 -0.4871199193856449 -0.349202860490476 1.100996510174265
Ni 4.039591715859966 5.212730493752681 5.250241552081795 2.893088323710998 1.3126332673510877 -1.8009112116005759
Ni 2.8221747892500915 0.6738441460025354 3.172195969355593 0.06714487327761338 -0.04775335612487905 -1.8469223882233676
Ni 7.346430217683148 6.062614641046494 4.240032988872973 -1.0036614864665168 -0.36559004359924774 1.8542297205180582
Ni 5.722644266384906 1.8765558610994857 8.4850138379885 -0.6481735642982772 0.4823806049284466 -2.3212199590333635
Ni 6.3436898774605535 6.401099171791399 9.213464605234037 -0.6682165989920814 -1.1563009391735246 1.9629896982332968
Ni 6.022951894995533 0.8122616506709475 12.573757270612344 -0.6450062223138892 -0.535393152569736 -1.932122833451111
Ni 7.506464894034404 3.0655281632293563 7.478544029535032 1.3528460921245473 -0.17532558145061417 -0.011377388599006213
Ni 2.027573322181371 6.77626547422942 2.413680079108419 -1.082370924653278 -0.05041187679364867 0.35810479096579617
Ni 2.0505760433165223 8.049735862596167 10.78658977954052 0.44101541171809855 0.9471836059844461 -0.3524481069006511
Ni 0.9113126494192872 0.562263768426765 9.425645902493738 -0.459883452267195 0.3232159495084111 0.5644319630042473
Ni 0.4789599292379232 6.717203178541264 9.837857079732014 -0.3244145978022026 -0.1722518276212969 -0.8180972580070297
Ni 6.473691933645851 0.591501462097298 6.5418670958055145 0.811855647972692 -1.8784433416497843 1.3238399347001846
Ni 0.9389419170500107 2.506860137080965 3.0314809785310097 -0.15004032452126417 -0.472308051183793 0.6654860874347958
Ni 5.5497941862522575 2.2343377897123133 10.63063745935035 -0.040838888393232894 -0.3945357800993205 1.6049692394511907
Ni 0.6308391797914848 3.2715961414243533 5.919255776702663 0.7879749847003527 0.9165602246716344 0.400857094331658
Ni 3.3742308099692426 2.735317925795481 8.743977859617418 1.0139515555386152 -1.1712192510462538 -1.2867268318979712
Ni 6.786499224205576 6.743836930747809 13.415631790542788 -0.2018071726809105 0.07206107963230815 -0.4139244690385775
P 2.57991722515938 6.36750981274988 6.390604470477377 -0.5349609501283238 2.050127469693069 -0.19261265066583605
Ni 4.815675853117021 0.39203341684971826 4.7815023716857565 -0.9647434692450805 0.10237258613165595 -0.984369471006124
P 4.4104676439885635 2.0828188563085472 2.953545679143634 2.502659880911832 0.020827735378628646 -0.3064485002420851
Ni 8.103569845002493 1.8796854198489996 9.525586550287192 0.02140314826612443 -1.7346173734693482 -0.16714870206677668
P 3.4995338847680304 4.494733567113458 9.895200439739057 -0.8581447608472189 1.478569694277318 0.31976861438975895
P 6.2212749117748185 7.728069227683219 7.662725526837285 -0.6623953643246141 1.3872230269425205 -2.5166888482010723
P 0.29950898750540955 8.279224455527881 1.242790497444583 0.09634052100496311 -0.7683271285624381 -0.24860407842979118
Ni 1.77908450016507 1.5888221866337902 7.269924114413131 1.3767439817880678 -1.7870825332475995 0.5603662775753059
