# total energy = -381174.9058063339 ev
CRYSTAL
PRIMVEC
9.14433997037531 0.00000000000000 0.00000000000000

0.00000000000000 9.14433997037531 0.00000000000000

0.00000000000000 0.00000000000000 13.38366587070300

PRIMCOORD
 96 1
Ni 1.391046123106381 6.901288154726331 0.41478634139594883 -0.02224621299271007 0.8427880758854904 -0.578537549167694
Ni 8.984085299195652 1.7399301216001968 1.4750140238263625 -0.10565819886146319 -0.3313452634837648 -0.0038828799941739577
Ni 8.169772690754039 0.5642350309507408 11.34545378414451 -1.0745331737764139 1.1499791107205548 -0.9351626702641701
Ni 3.6514995022816956 4.16861192109084 8.242142825235725 -0.9019833552987241 -0.8640840091497893 0.14118261702031815
Ni 6.189291564924075 2.472876394010618 1.2780165958927239 1.3212451773898146 -1.1351039933809353 -0.5949118767606594
Ni 2.2260980943394886 1.7614833306388025 0.8468262232306084 -0.0823524342559872 -0.055502918163310856 -0.46550851176345637
Ni -0.2163550809730213 8.58989109671953 2.039269172324785 1.5887828594993154 -0.944987626774392 -1.2610150289541637
Ni 4.2192715638884115 8.502544362423068 3.276790059168945 -1.1003460210744598 -2.663296492891704 -1.0730948986679907
Ni 7.963430661922416 6.449877817776493 5.8135698433893594 0.27738706409975455 -1.0701831243378344 -1.346374625467591
Ni 6.067635267491063 7.789441307498339 4.9217095752400715 -0.3658160435671248 -0.8361610574872761 -2.1436269217048114
Ni 2.9653082395506933 4.160400303900909 5.983529287239269 0.5772648531028575 -0.941872735294494 -0.5011152052234724
Ni 0.968723931235797 2.7181184445860818 5.084120366539549 0.26417056540948053 0.5000019175546356 -2.3987510606413074
Ni 0.6481745842171717 5.313208940760878 10.79796844050646 0.5647525795684596 0.1546657391084175 -0.8956604984044898
Ni 7.904724000052306 8.776380763725609 6.093502776073332 1.307894981335154 -0.08604608105749052 -0.9180098126339673
Ni 6.229974732939671 7.515037957124778 7.1341762021574775 0.3598148316783674 -1.0020236937527776 2.449968206945071
Ni 5.3571474937649075 8.532172023553779 0.9729641616266335 0.24607745535319556 -0.42732094495014145 -0.5697680305051801
Ni 7.414386208339062 3.84592645628205 5.2975757773445 0.5543694365619227 0.40999788029066164 -0.21016557194793484
Ni 8.257988137336742 1.8115943130450645 6.996217375630691 0.5522205085397199 0.17707907380661117 -0.759477134370976
Ni 3.024883613707043 8.656855097478848 1.2427176151838457 -0.47638479235632797 -0.09846090978207558 0.2954830023695169
Ni 2.8500712686960012 2.88517638939995 11.882272255341519 0.043270380652860964 -0.33909431130156437 1.1414787865590277
Ni 2.859060154773621 5.234238421771739 3.9153374823866067 0.416392985183728 -0.012005766211624485 0.59284573826025
Ni 7.742814318576891 6.437240340096666 3.2772984844648914 0.33824918969244977 -0.6473006747750206 1.065113680234727
Ni 2.4193179954789623 -0.05433932515528663 7.752126914285384 -0.45887480849702267 0.5578393973883942 -0.020792768375635158
Ni 8.149719153451679 8.692865507828458 8.519064526805396 -0.47178431746983907 -0.4323078566417715 -1.4109005730651185
P 3.297156332894351 1.093836789134059 10.89901522477392 1.3534359031897463 -0.7996133402702293 -1.1474406605694176
Ni 2.3818993567916587 2.5511702318504748 9.500100397222177 -0.16709573734165414 -1.0634450342830524 0.8150373881347833
P 0.6852576256317909 7.925554806242354 6.828292547398553 -0.5093525055316003 -1.149043229169847 0.5114186440320095
Ni 4.491754602892388 1.2346779115831914 8.569882366682462 -2.2311945816131504 1.177793561829662 -0.15932586358824818
P 3.2583934762483393 2.5908018007827267 3.8813571154848425 -0.6294993849275416 -0.616005721316481 1.6182952671361357
P 4.066716542084822 6.468696869198406 5.690038956286039 -0.3652995089420225 -0.9308774126252549 -1.3422024963677723
P 8.057068702039226 3.6168150212110843 0.7225738477127167 0.261742158473646 0.14933609936538797 -1.023800937528869
Ni 7.628948998700473 4.81047142420404 10.644577626040112 -0.8323213720262118 1.4926624249249583 -1.3276711355208166
Ni 5.427302869133674 5.163607540730504 4.041452559932994 0.024836342317389484 0.8400879033455079 0.4155092970271941
Ni 6.799054435145674 -0.0147150716949191 2.8257738432668624 -0.9937190305418241 0.5737182734021797 0.31068490692093587
Ni 8.22766550637704 6.1446123203917775 12.571343985126896 0.25368046451143406 0.1445250511299898 0.5233439347146858
Ni 1.7008472130592545 5.982117401165632 6.483850869206373 -1.5993135838273103 -0.21946936584736396 0.2067172083880182
Ni 8.58166119084989 6.073844274252715 7.9519316545545555 -0.6373024259117281 0.33851684153153955 1.0338644924124583
Ni 6.378890307480907 8.10728941652375 11.893849904032134 1.021935602185356 -1.9676053426284374 0.3932366016719227
Ni 0.5395005060765259 5.255435001555993 1.9624338566918258 -0.6916745729047056 1.456031661075802 -1.0581177085328681
Ni 5.742078479967754 0.8954549081463493 11.055135624687034 -1.8794324450359308 1.0365302121700795 0.5791942089150864
Ni 6.17181673146087 0.8532857849042914 7.019465030844457 -1.2232123562840933 0.3341125418162569 -0.22560736042430177
Ni 6.199624668960403 2.8449961600763887 3.4471372230287134 -0.33390094002608306 -0.3606283287185983 1.1521617201941705
Ni 1.6202581459157535 0.6864948548141937 3.242233598856305 2.4555593278796035 0.09245301302509884 -0.7033445530434661
Ni 0.3469280241987977 7.81249418827319 4.24503116926039 -0.89063039217975 -1.0589322340143634 0.2796748316926667
Ni 1.4515542199279565 7.09678499648974 8.818792211973827 -0.7192329421389484 -0.0917647287088226 0.2916327753854913
Ni 8.48314921759028 3.5766805135867985 2.8212236197549365 -1.5052621159668398 -0.5645299220346922 1.5466769314682007
Ni 1.558259521697787 2.5213048178835313 7.323314069985608 0.1413613086900275 -1.0063261777828734 0.7408158105160467
Ni 2.245301208035319 0.02056013373033563 12.48302520750383 0.3219427392229423 0.5471114694479287 0.6258913558613091
Ni 3.357929615571726 5.242322018203698 12.18380686206533 0.5277711172481041 -0.23115888637015028 0.03425892118287003
Ni 4.288942289244855 1.5435371345309838 2.179878028541596 -0.5562062326603453 -1.2690296717285243 0.8707647636040745
Ni 0.40258687759518347 5.039070776243117 4.293479710680984 0.19883626297804466 0.642606354623145 1.3398774477790216
Ni 1.0961228740978484 -0.003915606325978348 10.406148108656739 2.8611228265479953 0.74934030304729 -0.2400343344829092
Ni 5.682265352975169 6.000460946915078 13.373186457308028 0.573389172197535 0.6923926820176526 -3.3117528785377224
Ni 5.723314294584971 5.162446209568899 8.993086987349068 1.146547973551819 0.559256589450895 -0.06191499233724176
Ni 1.1000275072160004 0.5239084921894972 5.747789120207299 -0.2846874544159097 0.3576095964969325 0.2937745043188425
Ni 7.819389020523977 3.8053438760048617 8.424562346572273 -0.36979405437826635 -0.29685468590606295 -0.41122866737396924
P 5.689288205983931 4.591729670528823 11.683725776236416 -0.9773580726852975 1.8084874812859368 -0.4788800479743559
Ni 2.048332127555231 7.009429117853422 2.8358920553165943 -0.33509830276829383 1.180888912925534 -0.7320452634122682
P 2.7561223210241153 5.487463481040755 9.865595089062886 0.11313985195048902 -0.35915045862149114 -0.47098496149699526
Ni 7.310872281178682 7.1584269914533545 1.165092228587401 1.2612281734062343 0.619632776546107 -1.5573230983281374
P 9.118241909210663 3.7676417627820484 6.618222371207981 0.09158809392164227 2.380632753774042 0.38060708583337033
P 9.38319001217399 8.460626708527029 12.6610682477857 -1.0401503254211697 -0.5967792689867012 0.4021663000613848
P 5.508184555152541 3.143220515772633 8.02052334780809 1.4796120194989035 -0.384655287760815 -0.6354702577989959
Ni 6.905284231243035 1.6784801577735398 9.25990419337879 -0.3578137420879386 0.2447078286991785 -0.40894269955326995
Ni 0.4431347093809219 1.9494818137209808 12.517688656592775 0.17800852759941602 -0.2622478944654709 -0.40361048870707905
Ni 2.1169695425080417 6.992073160808333 11.30648060768183 -1.2627500093673996 0.9651232211820023 0.5506588204795548
Ni 3.6194485910893697 6.417488566009525 7.861725485185385 0.8927842052979593 1.515389434208829 0.5562728242322226
Ni 5.439327676043206 8.513983931581869 9.250147182753338 2.339536240844048 -1.098084992954425 -0.10238724141967527
Ni 5.197761650089515 3.0160867587663813 5.728971897653357 0.09754842527013523 0.02716447622993386 0.8421486425292787
Ni 4.638000030195918 6.593032458208979 10.530402313042602 1.4890610807269453 -2.276446254362099 -1.2766884738253625
Ni 4.857802527294335 0.9148912025084861 4.54097035442683 0.4173584344207909 1.4220007967433381 0.6834362441553133
Ni 3.164316507818481 1.6344227283513921 6.004581386453812 0.6201356843244545 -0.24409179238173445 -0.517323953772851
Ni 4.858250599947237 3.1497952961284916 10.207159957936632 -0.025896922371419915 -0.2909797151825247 0.8305830491788663
Ni 4.3109892926356395 8.506375840822379 6.312459421735146 -0.24807751650235987 1.1432561901744245 1.2401160740179675
Ni 8.690844608720468 7.664758233573268 10.599541752253462 -0.3585920150148598 -3.388234198724913 0.8121382122101174
Ni 4.190585769762783 6.189730493237124 1.5447697915434588 -2.889104913583218 0.011903179195489177 0.8543066180480512
Ni 2.4056746404150675 7.829932444376975 5.194348068021586 0.9620960043199043 -0.151067737344514 -1.0713231514795485
Ni 4.116973833928767 7.705880329901912 12.253615666953586 -0.591172207212569 1.7882773248866493 3.0742137996728407
Ni 0.07097470821978875 1.3691637178329896 9.072104142471467 1.3514371275921628 2.4217850596426356 0.0004877382696959342
Ni 5.5870544864032725 5.276220086046766 6.56784620294592 0.5320219221046579 -0.6076239250106891 -0.08103885765088624
Ni 1.653909316582732 3.296763126280579 2.4769154489246414 0.4232094938849292 -0.14755355354366845 0.7914125496269918
Ni 1.1535859057476565 4.407132881872762 8.644844007079097 -0.3134038485139957 0.6756951667573137 -0.48828591466928806
Ni 3.316414312629312 8.222105747745106 9.742987780284938 -0.8085528088517042 2.0569012980817933 0.21473853603059792
Ni 4.803101086280783 3.6362650320830037 0.011691038504818585 -1.1705749325940356 0.21199619739877038 -0.416594816781889
Ni 4.081951012283514 3.82764692091159 2.4011637375645183 -0.02552488374398185 0.9814993485471806 -0.9282124641985819
Ni 6.226188976239635 4.681609386965163 1.7366774799137175 1.5147561715002043 1.1050866210832389 0.8877173322980132
Ni 6.967127401683464 0.9187958356266382 -0.10883959069202404 0.4471297521459525 -0.9810769162977815 0.2348291361328859
Ni 8.711410229054716 0.7996734347674899 3.9408876823759016 -1.8236387351050787 2.0240667680502753 0.2820291908574562
P 5.780951068692027 7.045018888569694 2.586447266143701 -0.010675220325659034 0.07788668517514973 1.916909873156099
Ni 6.998657085504046 2.9936282600821156 11.841814038086362 0.9565331655201461 -2.331465290910456 1.0681725216657088
P 9.067271358858017 3.103854132696181 10.324240427706124 0.05439374425953213 0.2698812426410126 0.6504132522620735
Ni 0.9882288081468475 4.148329775292101 12.636549529332065 -0.7295968018717758 0.5377503399480029 1.7465807164788112
P 2.316992832499752 4.943302104940055 0.7469928928619287 1.1367829237452551 -0.7401534943416995 1.088891756490931
P 7.086461036793267 7.064862106055386 9.400432579404875 -1.6290915864206912 -1.7593889239870735 -0.11214277814454233
P 6.877302551286254 1.347610508794384 4.970291624022551 0.597278577220623 0.6719554972092233 0.10064249081442668
Ni 4.4506416509036 1.2339737974143443 13.273103486461304 -0.43350984736967274 0.01297635765500991 -1.6979243889236886
