# total energy = -381170.623539018 ev
CRYSTAL
PRIMVEC
9.23077049365876 0.00000000000000 0.00000000000000
0.00000000000000 9.23077049365876 0.00000000000000
0.00000000000000 0.00000000000000 13.51016567804770
PRIMCOORD
 96 1
Ni 6.338742319804912 8.953533411347205 3.5662112088188387 -0.02010165584588151 0.14006213026262973 -0.03631734637379552
Ni 8.774234927707564 0.303503114334307 2.9359074388169213 0.48866978037126807 -0.24657984891091084 -0.7396248755317392
Ni 2.914994205469826 6.946902394769602 5.836809950242046 -0.9886452155633426 -2.098486063502115 -0.03335106465661998
Ni 5.455172980122744 7.849348659855552 1.2011918403722828 -0.2632876485838949 1.1595171321179771 -0.6042038435855466
Ni 8.851911860359314 6.857696229927474 8.929057100637833 0.6708100707508705 -0.1646344202853552 -1.0095737381858936
Ni 0.7514696310912412 7.139520880051129 2.3565242904763357 2.183555382468633 1.048314349289201 -3.943786342741028
Ni 3.4247358067645264 6.92110239158937 1.492035876223095 -0.23185488399591037 -0.7703863250843119 0.5114749511912418
Ni 1.0579108996338729 8.923376484552996 9.326459303469662 0.08394831798819737 -1.3951811054473326 -0.33290592310266537
Ni 7.592502474349322 8.771068773471136 10.064208317485019 0.42061576501582404 -0.427321973391406 0.7233783317658896
Ni 6.575290041270597 5.485994522383491 1.0311767424923404 0.44404108591829977 0.2561474379946879 2.356205473969613
Ni 1.4093909429589662 4.489274399523053 3.296764098682436 1.0158264039638247 1.9113462630253921 1.0119527799410315
Ni 0.8506154894662751 1.6206925074665355 0.8032348682413001 -0.6751331236062567 0.20445309494418978 -0.642010887130991
Ni 1.6113140447720402 3.602926597959936 9.89751998924592 0.6751140974428632 0.07066625616731055 0.8585252841150892
Ni 6.621591585439482 6.9924470157682626 12.688964025640214 -1.155233674251275 1.2141168217407285 1.6806558316512283
Ni 3.626446600859123 5.626523770475022 3.973798643675379 -1.6652384686548931 -2.371617694759625 0.5927971444105017
Ni 9.090794966728254 6.25542538645795 13.286409945438072 -0.09632792259947281 0.5484011347936297 0.3851021454902464
Ni 8.507114894781084 3.605058905915082 4.769398741744813 -0.9278486531012601 1.8060331062081734 0.5095972745525547
Ni 5.807133023507005 2.0299848656101562 1.726706982072843 -0.4746241009114794 0.44831760180646657 1.1636206127633897
Ni 6.437659255074805 1.5220986491595438 9.756838433443308 0.2672561463133397 -0.6626010525775169 -0.04680436194804842
Ni 6.404668481777437 3.5961789048204906 10.496750216956027 -0.9889583759283873 1.054606610055816 0.8410397257358161
Ni 8.677773377355718 0.21347541092937397 12.440106148810967 -0.6477159079355683 1.1005468242313563 -3.2780958526049093
Ni 2.049009483339836 3.899825096095511 7.658372328622598 1.154275938323696 -2.717534171189346 -1.5320715228502
Ni 4.359886691266419 7.179979346576693 11.887243003739364 1.2566917189884614 0.5176931641868117 2.641309447097651
Ni 4.631160570858767 2.8535449671260715 4.230546059938666 0.628594356614769 0.03831149398568886 0.7563429596173684
P 5.024585234738768 0.61785423000579 0.27452495691616835 -0.09750805895050305 -0.04599934954824981 -0.5872875274461822
Ni 2.686006484936024 4.326102071717352 0.4587591334718986 -0.1948695650208128 0.49089147061293525 0.6910721634340162
P 0.6657166974440057 4.112797430039796 1.3084192382050237 -0.45757717273152165 -0.13187136692172127 -0.1925781978834748
Ni 1.7175694424849681 1.8100525308079483 11.992784862902798 -0.584781987415509 0.3830334358866758 -0.24366910302201902
P 0.0651147772571248 4.756311355516215 8.138348387786719 0.24807880205394048 0.23772779783691964 0.5114358704231902
P 1.109187829031433 6.49028387694618 4.237976830085387 1.7716307174689037 -2.171711595756169 1.71542665947351
P 0.3376440416196024 0.1714569442115174 6.930296238876494 -0.7642745557596192 1.5260034622792493 -0.19215705118565615
Ni 7.55190554626823 5.290256036717378 6.9794325526255765 0.2919706183408843 0.6614240015502802 -0.10709750241115104
Ni 1.9683602426293982 2.7706988030679076 4.9762667672443435 0.08619829036463864 -0.5936183547602164 0.24111908290665574
Ni 4.160271282045494 0.8512016433846811 2.820328039954673 0.32701603998079165 -0.746868701578346 0.7566507206657742
Ni 7.429348608084358 4.748409816080694 12.634612326632874 -0.5347958853053694 -1.3171218992500606 -1.694034566950979
Ni 7.590924012616292 8.767644157664385 5.8920394955114395 -0.1646004817236262 -0.5894266852763719 -0.7086618514913214
Ni 3.7489481544207823 6.415754636990123 9.958180919800197 0.16495400840830302 -1.898186328604666 -2.0458473542604763
Ni 7.809351731848419 3.0078742169186556 0.9968567382618942 0.6649975778341515 0.9576652222420604 0.03383134672714819
Ni 8.421564115004921 7.332831673110301 3.8386564731709623 -3.93014304092598 0.4199272235892316 1.3496862063393273
Ni 4.3147759164750825 1.5568617303676826 8.891931865292369 -0.31383939338951755 0.6150341014318311 1.1816083075900619
Ni 4.966135996764808 8.469757967099369 9.492850400902892 0.6069886054195354 0.12345460361293578 -0.7231479609226383
Ni 3.4631911961201043 0.15526155759981278 5.79017332910878 -0.41049256053889305 0.19993875201360406 0.043768146224885916
Ni 7.732828645492744 7.669044022245735 1.2507426157109152 1.259721764064037 0.3772229998524858 0.971958756046597
Ni 1.0585662843300434 8.475047198520576 5.007448309549467 0.6592498767170969 1.6482586462674451 -0.16392890957789832
Ni 8.907047251770948 1.4129540203212452 5.161990790137566 2.9259714475922642 -1.3303880202313476 -0.5279276974306263
Ni 6.328828472429039 3.524889665263811 8.083496381025402 -0.30049176843801795 -0.6980506516343784 0.14006290159357812
Ni 5.840437642996904 0.09713816581986383 11.662974976095024 0.1812064657114234 -0.09207917462544787 0.9355889591683114
Ni 7.02096086543686 1.9399202391237487 6.161757067219642 -1.2529661905077583 1.3845848179887252 0.9662701903022519
Ni 3.9087143279604706 4.18287743867819 8.972857106036829 0.7696910987895003 -1.1025306874306045 0.7950766287421404
Ni 4.732385198720809 5.268822187921494 13.257538864956208 -0.7410878332305108 -0.0794440023599406 -0.3169802530113444
Ni 8.669068760898131 4.333172841819697 10.252108032954121 -0.001875876866474189 0.5677764539964479 0.15631741577922756
Ni 0.2608440321528698 1.605609428684247 9.556888870335039 -2.029320560250047 2.7679766441106137 1.014081653358576
Ni 8.918133406983634 2.8326372722411977 7.139433187732627 0.8694905248773412 0.21932101319495775 1.0124330620115596
Ni 3.0829942261783034 9.107041122576986 12.826064965616848 0.13118205416418052 -0.07416218513571099 1.4627288705903196
Ni 3.268403479801956 2.058507946049123 0.36973573788306896 0.8315217589430519 -0.35552905981882 0.1367924583724225
Ni 2.1444371874103987 1.4432494086709824 7.898920665966032 -0.9003373350548688 -0.00770482484342544 -0.9954699517946598
P 4.531089789292801 5.008292925038194 2.0343205584522863 -0.20124667219175016 -0.6227903483384823 -0.4020513717500754
Ni 1.9945756304762154 5.973148428586233 8.302145638746373 0.34286560541853855 0.18924939062055796 1.0695076955373646
P 6.833068534584055 5.839782258300734 4.660358420611679 0.9152350781023076 0.6906106504165654 0.22040447606712363
Ni 7.800037884546503 0.5304517576936861 8.050140069221436 0.3707124524274777 0.945026193321811 0.03251468479825368
P 2.457849533735395 1.262538617164946 10.099780937254485 0.80601281603867 0.4520968663432407 -0.45565733000098946
P 3.9527451026186813 7.8540563527435365 7.542779083604797 0.3379252306941277 0.12675898539582042 1.5511465372037803
P 3.499680431387171 4.219422058567468 5.838175181179562 -0.05668896805161204 0.8475286758942694 -0.15975318093365393
Ni 3.36480964553159 7.994511754672119 3.8036118534665806 -0.9298134901371148 0.7294795595676211 -0.8704523745699783
Ni 5.724693013345059 2.940074208561306 13.166318546019651 0.3512720843146789 0.3455439235816501 -1.096455427770802
Ni 1.675929437352224 7.949631749139997 7.4675409204844305 0.9552375866371742 0.7243867184257461 -0.6163718464066481
Ni 5.204031410704307 7.273099358055106 5.90950872843401 1.8943540993427699 0.5899231652968163 -2.0280272953599203
Ni 7.144736265309386 2.002994093052376 3.75524538596624 -0.9918858339878273 -0.23626869679288987 -0.9699692364203939
Ni 6.539354652225645 4.2281543673361615 3.129778539637467 -1.4492249225666138 -0.18091541683356585 0.1672327771401507
Ni 5.950736118131278 4.232788214061197 5.776014250440388 -1.0224917317991424 -0.7772537416281066 -0.6386378568937001
Ni 2.3296156717748366 9.214856520482206 1.7583888321319436 -1.2831362863332354 -0.504121339039648 -0.07386136606584054
Ni 7.313133209143714 0.7166668575705174 0.38661881688723415 -2.0219211824621826 0.5290335289002954 1.89562653829729
Ni 4.944268301761601 5.646729926811882 7.523743388950675 -0.7086770209999731 -0.13053285061595585 0.1547888949498431
Ni 3.003563447156521 8.39689026580966 10.732637938340357 -1.888052068384142 1.6201354056686679 -1.449677179612684
Ni 5.337923734900816 6.822379302497219 3.3986441112406487 2.1353428273191484 0.12331730670412311 -0.9483966524559408
Ni 0.19177294671576398 2.6670464825989244 2.8857575864813665 -0.2625615690511478 -1.544379907903908 -0.11565824749696856
Ni 6.706930057497168 5.747363785370335 9.223875906209361 -0.9822256851902439 -0.9157847799581905 0.7189694040649166
Ni 3.1208957693117654 2.983532675456664 2.6539369425214416 -0.8384400833294399 0.7595516963626532 -1.4467191254256246
Ni 7.838705581620559 6.681563900524262 11.017202281109412 1.492415341911159 -0.92282985973043 -0.6166045312427445
Ni 0.8808093393419582 4.846708289735891 5.930435807936658 0.8438761667433466 -0.14686475500675997 -0.8256467882195134
Ni 9.138554972615376 6.845982382329723 6.08782875041458 -1.107796306704918 0.5508362265976836 1.5007110062610478
Ni 0.4302600530358902 3.8541143212302154 12.730602184618885 0.9107017090083284 0.4161325324334898 -0.6821735753928058
Ni 2.190332577683066 6.660037744024692 13.054184070658964 0.2816995754321794 0.5268987419454796 -0.7673981889902655
Ni 3.4229911911648614 4.0255481885158115 11.471630337124363 -0.141064346274899 1.3309035264151854 0.35418951507179
Ni 4.341960535210602 1.9943263996762632 11.503203264093115 -0.3730606409446801 -1.324732364607467 -0.8462330970112975
Ni 5.567557609360421 0.3214431165456766 7.203714426425467 -0.9967789004140706 0.11843786712463475 0.5339304519812804
Ni 4.152969742683934 2.3373972111955643 6.697394671706406 0.33243181167972424 0.6333336710719673 -0.18393260639333484
Ni 6.614797738448194 7.622576324210214 7.873561893609422 0.8455424987021759 -0.8335128212311517 0.2655036823986073
P 1.894532541221354 0.8093419459171644 3.8658124765183395 0.6219737659744577 0.9830144996401263 -1.1297229315746804
Ni 0.6167105375571208 7.977037906364364 11.21365338224798 0.46209742919937835 -1.2346915605682864 0.8585263125563537
P 1.0285570498617322 5.882760725136925 11.326720165415898 -0.3638082691084767 -1.671797867039966 -0.12441388220241154
Ni 8.479847199112248 5.314431424312735 2.6705412522604752 0.20344522250496574 -0.48644114815106543 -1.0912515149723594
P 5.57808991835099 5.513271448822698 11.19288876430382 -0.12672556105472368 -0.19560772873841795 -0.33625709896308537
P 0.6935474701053278 8.588031827832213 0.16910771315270925 2.480310566682354 -1.8333107109772038 2.401559219514064
P 5.427812976750221 1.0365324354602008 5.161558790084316 -0.6370257752115739 -0.7208707348526875 -1.488742521045262
Ni 8.09232099749778 2.4613110726236194 11.740023293284672 -0.4661631146283197 -0.9592317953982319 0.18907558404685504
