# total energy = -340865.47555132105 ev
CRYSTAL
PRIMVEC
9.29362429558902 0.00000000000000 0.00000000000000

0.00000000000000 9.29362429558902 0.00000000000000

0.00000000000000 0.00000000000000 13.60215857053637

PRIMCOORD
 96 1
Ni 7.3972975553752285 5.171911299979484 11.789194955276763 0.23330421484792724 -0.18528294977364218 0.8073726725006741
Ni 2.852863897377906 1.1375768071624106 6.102663141822167 1.1170872450885407 0.6559118134827995 -1.3405472201525366
Ni 4.752332036941009 5.107766704026451 8.223171774663525 1.2830203295806613 -0.31163904330408915 -0.08093781329664769
Ni 0.39231641571476766 1.6281593609979241 5.653968812107127 0.7572796124990249 0.6946537101376875 -2.2564993789265264
Ni 3.6749035672181853 8.299885068322567 5.775775700959404 0.16472672288884535 -1.1241197264552898 -0.7071618699070273
Ni 6.768314346232187 2.553256032362859 11.60726575113336 1.4006375005762137 -0.18487260170910094 -1.9447225244929929
Ni 2.2459065781810668 4.526738597044762 7.911600226894156 0.8005839317136147 -1.072807706444875 -0.1559438344898927
Ni 7.924812972774542 7.806086920427398 7.63811581084526 1.005583386079578 -0.3204206461514611 -1.8236099387496723
Ni 0.977661411253424 0.4371934694583206 0.13755586484503413 -0.3364812991587495 1.3455680704058957 -1.4966694892018224
Ni 2.1505725785742564 6.855776645929954 0.5777297996644294 2.254687522528769 1.0111495673134459 -0.3134174753607505
Ni 6.0816734910021255 9.20895023751147 8.05868019807542 -0.31107751437366427 0.6699767762162978 0.24476053631398487
Ni 3.864354101628872 0.4549833253802699 3.2516096424870966 -1.9379726073636687 -1.779797312440096 0.1615912625836572
Ni 6.425797817132071 7.172205971199273 12.054015854613485 -0.3634184898692257 1.9852541660584517 -0.11846383526656372
Ni -0.025409698608401254 7.213386021136666 0.943282435688449 1.5951972476660914 -1.2383299286518221 0.47827583873145374
Ni 4.825305576121422 4.4939506899856045 2.9911688283536 -2.2272569371216417 0.5310829552301564 -0.4376087000293948
Ni 6.99803415538418 3.9912492498674554 2.464180359460594 1.539641107667342 -0.5522637030728296 0.2035982031430623
Ni 6.046878161061797 1.475883324386734 3.547633885914272 1.205454260969724 0.45446125281035926 1.459910427304918
Ni 7.634275685222572 4.190848422177406 9.74382527611264 0.28762699666020786 0.37740143441187907 -1.2675446025425654
Ni 5.663674144120131 0.7122429318645747 12.68680108551897 -0.3127484743181839 -0.20534166819673025 -0.4216881721443963
Ni 3.222499222622756 7.053740140336726 2.788837330455387 0.62281374537725 0.5305895605335055 0.014344698757446263
Ni 3.4805831735957637 0.5980484507991896 8.686855791253768 1.1418410549944529 -0.4978858996528973 -0.8747391748707903
Ni 5.32366689362148 2.0579058491845603 5.800681685122623 -0.4439834932074869 -0.6238519568337773 0.25295464208900303
Ni 1.0226425535908155 8.817586418302815 2.2713841202479523 1.4512635502631974 0.5342443836772734 1.8216736409589078
Ni 0.4422826582070717 3.3075823544613545 9.16235943941936 0.11788199462116473 0.007034281138962079 0.2782355281429789
P 9.279860592064011 2.5317134108880506 13.06759433627834 -0.4872227635120964 0.08385113028870074 0.5348357374043692
P 5.265200702207322 6.803853166128507 1.9081242213757166 0.0320040637104223 -1.5212525778578252 0.446816848891224
P 1.3115720441129568 8.29306354797636 9.238450060240261 0.6862436316971214 1.4417034173785879 -0.14060463302966109
P 4.180755546024842 6.921965839261959 11.695911129223596 0.5167495693266196 1.6312168602938102 0.5740779707344436
P 3.0377233813103555 4.176461891529001 0.7016797983148476 0.35453764243982816 0.2806598213137554 -0.5725013702759431
P 1.5795537051250814 3.8494843025090733 5.278168096402231 1.0232990581917862 0.09111501093996566 -1.6601042327521218
P 8.147627618960277 8.613628536125873 2.022722975104671 0.3539830554879388 -0.2732835834543422 1.9161891929399903
P 5.6943338111802655 9.073049567180957 5.400642267490009 0.5902597227006287 0.5380383035020669 0.9721402759297838
Ni 5.031131476812788 6.390082418371204 4.7101966024101705 -0.6450288480217085 0.5068577641342045 -0.2013610862824274
Ni 9.158402214128603 1.4267572255446985 11.171480265779195 -1.2400188863184707 0.5755635541410346 0.6871792561375133
Ni 7.813094313262604 3.14305732082523 5.538541067077244 -1.7166026820594824 -0.5223041805962618 -1.252434229263688
Ni 0.7770854790137925 8.397068499194903 11.348389983357222 -1.7675213232862204 -0.5228196867800996 -0.6419800338930556
Ni 0.18212622898174116 4.419313592028665 6.774677690893016 -0.5801609437037298 0.4066189365160997 0.7549810462728352
Ni 2.0877848517909063 2.693459650813663 12.641968641172777 0.7518725825508406 0.1443065073612805 0.5737591539424441
Ni 7.8241072582357045 0.4808651401107248 6.489290930011167 -1.0024191294189833 0.5187573437852678 -0.42990747473039514
Ni 0.9127268572221525 8.84898028169449 6.6806457280716325 -0.03107640968983035 -0.20137162780538867 0.40218069823908803
Ni 6.46727526305186 3.3255469305229615 7.470033177769723 -0.8055333052990901 0.21751944120984473 0.6218004736213872
Ni 0.4575846108637897 4.133060665348087 11.439429399105746 -0.5200362104976914 0.45159807232995125 -0.09687968133788477
Ni 2.958142075146082 6.889568264429697 9.819139879291976 0.5409863303867973 0.7233413078803671 0.17840576303783467
Ni 3.279534195871634 1.963733552633984 1.452887180047965 -0.21313596743016844 0.7526328577556328 -0.36312049901283266
Ni 8.150294889177392 1.0755139830861502 0.9277444249707043 -1.1259984315352416 2.8487486212533586 0.46777133965570405
Ni 4.509015655218851 7.9335118052596245 0.22562410885693274 -3.6063545067435503 -1.1819512927517772 -2.4215534032478034
Ni 8.813627334287167 4.725798739136619 4.1151295463345 0.5717058709578412 0.09493412757573973 0.046747283457867876
Ni 7.280820560144954 1.78961749856559 8.994332568090522 1.726243547583356 0.08554291616882687 0.3572085044037719
Ni 7.579415420094964 6.764689832696736 3.0847249576031492 -0.2856870993250177 -0.08512665456701468 -0.26696072656010794
Ni 1.853985141505419 1.2862283302381496 10.069610493115645 -0.453916950271115 -0.26103433377334395 0.6885622525279689
Ni 0.923330882719459 5.013073964506682 0.19255739306428005 -0.7724419220617601 -1.6595794705969034 0.08342869803930147
Ni 5.3816962846864955 3.5998575497854506 0.747548481787202 -4.99167954533241 0.8152901275755379 0.6854566170194518
Ni 0.9425965662040484 6.749643454712389 3.7283242499185074 -1.5541680976389232 0.37575155751328193 -2.5141740521990186
Ni 5.7312109129973665 8.398165146879988 3.3493413972019748 0.6665777778370778 -0.8481100023190361 0.36469581391975253
Ni 2.524027583468005 6.109619419722898 4.958708120199808 1.0932991415300075 -1.0345432636470377 2.3213251171526603
Ni 9.157742366792663 6.481903427935961 5.749510059539169 0.7424649160836955 0.45277769446034927 0.6596247435580124
P 3.383176695736632 6.208949677843154 7.09998707432419 -0.46986935983531336 -0.7096944065208939 -3.0034773523892278
P 7.246815188282864 0.11160063048142524 11.075244784600747 -0.6386460844238162 0.35711105959395917 0.039367703164345104
P -0.01863371702199792 6.4892453912513615 12.299207689749629 -0.8388005519926521 -0.06419813194446362 0.1364733844701069
P 2.8105407316331785 9.104192502712486 0.9813509801600241 0.9200528112059252 -0.39928872140327365 0.6414316175887534
P 3.5291888294686067 1.4926861973921068 11.441143143454303 0.1442640841591193 -1.3520235962232523 -0.3352168306240291
P 2.011651480297536 9.123551122441576 4.604684225305857 -0.7433084950309135 -0.5230086628624542 -0.9747558591757601
P 8.276567364577833 5.807037594883891 8.106356491503275 -0.24713340742153567 -1.7590492812594674 -0.6258502182107286
P 3.9480803642977897 2.460542834850913 3.612896504888624 -0.0437905148223891 2.1246069289588827 0.8782245623162294
Ni 2.5876610300762937 8.738200278251988 12.350012217167311 3.6456355637313598 0.345873796117243 0.18321938237639412
Ni 8.818618010616749 6.860869552128484 9.883641350423883 0.5457793809000665 -1.2327501205711995 1.1564629186726856
Ni 4.08181562013148 4.289360841346073 5.646690974800431 -0.1510775075365269 -0.532889669421592 0.6501579417181577
Ni 1.4178818141950686 6.826176452057104 7.675004065011701 -0.8490826506449506 -0.8242936166257288 0.3529286460814954
Ni 8.644585599168405 9.13205478881321 9.288669089317601 -0.3042203822425148 1.5584489844024643 0.6105372420027421
Ni 5.291074152675772 1.6220813306077062 10.029034528767497 -1.331778472820971 -0.4045854510258387 0.17770153788195847
Ni 2.1522826054730335 4.727573821406544 2.8552839571846533 0.0677609095950575 -0.38765936469446144 -0.3975082324640831
Ni 6.520797246258685 6.867579548981293 9.116737966357372 -1.2920837253345103 -1.2172962479099745 0.5928765914981854
Ni 1.4794056080532363 2.121948215268644 3.523979752964452 2.471870149224485 -1.0726146165974626 1.0743076880291693
Ni 4.379685577374401 7.712713875579511 7.948244988100009 0.8020273490283607 0.6669976389833158 1.432319662170843
Ni 6.252406665770766 8.601500356218788 1.0299027330110573 3.467295620934454 2.0297890152460334 0.8092752888400255
Ni 3.673927736650948 3.6980353984739223 9.77989755005238 -1.4808710887169851 -1.263287112817792 -0.7602988589413229
Ni 7.260160832992883 3.3612344484104786 -0.05360469646442983 3.7381690522854067 0.35969347560915477 0.5259908854192297
Ni 0.2231101834432417 3.277471011243762 2.1413059056352868 -0.5201344266384526 1.3252399003715047 -3.4329035166078294
Ni 1.4994333687427155 1.7455471314242859 7.714777060207384 0.2682622189803509 0.242567385317408 1.4399113584751717
Ni 4.492621701689273 3.311318391490204 11.915246242415298 0.6910310257834357 0.7243754055718363 1.3848193025970343
Ni 6.633919243062555 5.496621244633641 6.453924971529615 0.5188216213643 -0.12433212112188263 0.9961716058473747
Ni 5.090777958532081 8.371669023573396 10.318081118957705 -0.170916396639325 0.7880899130116621 -0.0530562563950312
Ni 2.72245575909727 5.424874463880611 12.074323353398906 -0.6245669806229308 -0.9008847229179067 -0.3163832428572938
Ni 9.215437187377482 8.72769848262363 4.453781786388358 -1.04578078423407 0.4574529884488315 -0.37851215097755453
Ni 4.960118892391298 5.461798033819962 13.128476870049466 0.18614786887709875 0.754188632278527 0.19031254177774964
Ni 7.195105461843764 7.389295744723887 5.263545507692799 -1.0464634121233913 2.0713634962537104 0.02393337088714588
Ni 7.316554546154721 6.249804450924802 0.5969555205638843 -2.5694324584516908 -1.5530920909659252 -0.3667874063414586
Ni 8.316957456436986 8.55921436497186 13.074326637829827 -1.7067800395421058 0.23977156773982575 -2.291326771018357
P 1.8045151785587383 5.152087999027901 9.981726262867856 -0.7928739646638667 -2.0393954279875457 0.027452696894314007
P 8.773804153519457 2.4258404411550827 7.361297771706195 -1.7938213946333301 -0.6772177740494273 1.9293702104066388
P 6.042761085430503 1.8994681395631037 1.558385616715603 0.7792257777528129 -1.7766813925189338 -1.7802451986107921
P 8.513666311543025 2.169986960050044 3.4818945040056413 -1.145346754154866 -1.1061973376489143 2.3687763686560883
P 6.290473351517451 4.642397753323447 4.512638310029413 1.1789965809988276 -0.5237054318191625 0.7277903447906563
P 8.813515810793769 5.328248650475269 2.0037611931395927 0.6663924012991491 -0.23433265611244158 -0.3533315379468689
P 5.618832406149487 4.42332843779101 10.276240292321926 0.42939865341477657 -0.1723202189653871 0.7126244356834953
P 3.867978615164323 2.4458589082201123 7.520075627982517 0.3887307433817692 1.1790644581222856 0.7484468446987432
