# total energy = -340858.93982767314 ev
CRYSTAL
PRIMVEC
9.42040667422490 0.00000000000000 0.00000000000000
0.00000000000000 9.42040667422490 0.00000000000000
0.00000000000000 0.00000000000000 13.78771739702647
PRIMCOORD
 96 1
Ni 9.147469394722535 9.32500638206989 7.377366470714429 0.0681170073828956 1.203008884753025 -1.2618310970975557
Ni 4.45252703272661 0.905086312255618 7.126333353265906 -0.15151433796362937 -1.1530155835540334 0.8651073082079811
Ni 4.806216207615524 1.170315982815277 11.686662811690777 0.029749977568922954 -0.48494708010404225 -0.2709906736551075
Ni 5.469007771809407 4.282714778989826 0.6347799844487186 -1.300154932378419 -0.6688380346261642 -0.15954517868790588
Ni 4.261434079933386 7.590935572192364 5.014124586622005 -0.145443192068885 -1.8095406051407996 3.939390784776493
Ni 6.540428323595683 2.704777792114266 10.31064847731419 1.0219605418860205 -2.429733882176067 0.4239101194963796
Ni 1.1612064493989078 4.444783458302354 3.5526539736174434 2.00558516430632 -0.8019486732716253 -1.6188933057314505
Ni 5.574911985528974 8.326914277142992 10.88532061386582 -1.0014781056619526 0.14161430524109805 -1.185214022663449
Ni 5.742934361965749 4.546505011384003 9.28048553933384 -0.625591051012071 -1.283351744778151 0.29667188047129556
Ni 1.9083389160506532 5.084655172649261 5.812736750544104 -1.8793314006816924 0.3380267892689985 0.5013052097470915
Ni 7.059398536530302 2.792453518594254 1.6387664379367581 0.7181476794945697 -0.03959473157348665 -0.36858229345835236
Ni 7.5185303252035185 7.941402967941259 0.7495073512166539 0.07755295598481482 -0.10434153693256869 0.6244181137498923
Ni 5.02286672417153 5.927527234037882 11.411983531027747 -1.5879048277697363 -1.0869716566500827 -2.7623387290985457
Ni 4.686586461126929 2.0335926454240183 1.6294600180173877 -0.3367777473532458 0.6421669530928811 0.5504359058354713
Ni 9.264376643633746 5.442564689803462 12.066982534681795 1.0724145847715143 0.4494874537448517 -0.9026047909328069
Ni 4.541465093723447 2.0159199621881254 9.235330703217313 -0.9312887891310607 0.5739355316193082 0.19199018659048872
Ni 8.382099020424368 0.12045214800591617 4.83622114544849 -1.4489163901872597 -0.08336416334995321 1.068134983559554
Ni 8.428758295513589 3.356029357926502 12.73818275402299 0.18350374638603234 -0.8936473246292028 0.07642809835175224
Ni 6.27818303792362 5.938087510107944 1.9668867445746803 1.2161508214516217 0.6557981707230706 0.5714659870328932
Ni 8.671785951227644 4.999127298929285 4.452674933114032 -2.209256643889479 0.7650754543943598 0.026922021201824603
Ni 9.17596612542007 8.014524165850109 2.757612143888523 0.057720494639919954 0.020674497630216008 -0.5992251594240325
Ni 3.327466684381072 4.948925950867412 12.419700465625285 -2.5220611682565792 -0.05109347624170556 1.0610981313174306
Ni 1.6812882703409018 8.208405559068613 8.31618631783114 -0.4163073674484572 -0.7527166757186907 -0.009701543558480066
Ni 8.966324391554632 2.375044711824966 3.739174260929484 0.2216226647449409 -0.2615842927395431 -1.7756138704863678
P 2.549472964914409 6.505817748857586 7.413876199471906 2.469587523837895 -0.22459717399223256 -0.7292733570940859
P 4.554955116321421 0.22768275500886012 2.983359005291319 -1.524031426154543 1.757521017540399 -1.0364921598432923
P 8.63876742524587 4.33204944962222 2.036197387915876 0.15658969560400773 -0.8420568541464207 0.996260051796123
P 0.768357585307817 2.7272266216191343 7.205185926697526 -1.5259119310067075 -0.103298440380035 2.5939746665674295
P 3.102234177191858 3.1843330228212863 3.5839513912691534 0.2956706929002908 0.18579331375115746 0.16049314442347198
P 6.706962275751396 2.0137815298349553 4.33637530044414 0.5335435009555068 0.19720849756663456 -0.3211760362602468
P 0.2078885961521126 6.777784894390758 10.089286815296422 -1.6216919515225103 1.0828465787381159 -0.1538185606167738
P 3.5097138751495076 9.357582148930081 9.616464349359493 0.3931137029408133 0.400141299211556 0.5445195403510363
Ni 4.248867257205943 7.859511371262358 7.875420554337398 0.7684577406030314 1.5674583869899263 -2.1341552347689503
Ni 8.393742643281277 5.818118628973031 0.46866618243816655 -0.8025382272265081 0.5211654390061282 0.24093267792746248
Ni 6.817576692892044 4.989235871745017 12.638221874980141 0.5714860416375512 1.1032415974546999 -0.1221669951497638
Ni 2.054119711933086 6.6288011601819905 2.234037236089456 0.2045392269000929 -0.5192723357484734 -0.427911784456605
Ni 6.667669758812745 0.6743447511451084 8.465837958885016 -0.5634557151339071 0.11002161803648149 1.127844997825677
Ni 0.8367516230632702 5.686110467893837 8.169001881329224 -1.2145366828869664 -0.7059999883884421 0.903301045668883
Ni 5.125323068986868 3.6799688880078736 11.883950624023408 -0.9553363169985677 -0.5542326538737423 -1.6101191590832464
Ni 5.976852484263434 5.940470873039011 4.991332854308083 2.1350854598927036 2.597454397585914 -1.6114877572959987
Ni 4.176462010217098 4.761836670982106 5.301225615747108 -1.549266803682564 -1.5037935018411135 0.417950559478835
Ni 2.9973662082249275 4.38519938502569 7.915101192037946 1.4731541796887015 -0.13892955932008333 -0.2141404974352828
Ni 3.5369671121438784 7.137879945932342 9.802019044970212 0.48356305527232196 1.2554398488592313 0.7473453841044484
Ni 0.11984076360185995 7.925595525260114 12.451687457057838 0.43773571252556226 -0.3190062823024377 -1.0208490539893966
Ni 3.250869356347465 8.024971397038065 12.015182543578808 -0.4748547288650468 0.2191191815967968 1.157407284863826
Ni 1.4128255161530134 8.136556116083455 0.575893963319058 2.0129493179808753 -0.5457179315345116 1.052357666120639
Ni 4.134494097735273 5.210530648874209 2.934977679831351 -1.0762882087943078 -0.7438229727734867 -0.33334918128767105
Ni 7.087848165193627 2.752567516024546 7.634314661619144 -1.16475755458131 1.189584126706687 0.6548144666535626
Ni 7.788293095535625 7.509788187653993 6.1987784286510506 -2.110610357569475 0.7586690366473837 -0.5520233049272493
Ni 0.12989610586518202 2.274057950477006 1.1255323107283304 0.3126798258637776 -0.07569173440635997 0.08909978028214977
Ni 2.50151367368097 2.081165699976929 10.925786913497006 0.39411077674676 0.40646724142958385 0.8992117060908578
Ni 6.153513373774469 4.026065214982006 3.347809110916033 -0.12103853797227543 -0.3480525489361167 -0.02265141885092873
Ni 1.6279970288348002 0.7924352031556948 13.181086007829217 -0.6098358450603433 0.40690484318763465 -0.33789694855935354
Ni 6.3574086594661905 3.8460035586009513 5.630090134525561 -0.1928237382353776 -1.1796666104826588 1.1725603384551808
Ni 7.733588793003199 5.775039108483831 8.29746231719166 0.06147893324108766 0.011847900477521529 -0.8759619915342979
Ni 5.73186538392621 -0.03887613495622774 1.0244249681727908 0.034253264755915204 -0.05680826723829571 -0.34197908904852714
P 1.159105698673106 3.005392394854448 12.873647262372574 0.8062935805038822 -0.5767169510191874 0.36198689962902175
P 5.8878767416392295 7.059596365073988 12.691442463434928 2.579933615093331 2.7994274064207274 3.3615258361957916
P 7.47009059322113 6.958298730300236 3.59005958306561 -0.060732027772734114 -0.5479871871846627 0.1024350639384752
P 9.233468288784618 9.371910587737007 0.7411062323948152 -1.1387788711293614 0.899492213445754 0.20979301909986448
P 8.895454670881058 5.8157258456351215 6.4189267422675504 0.8899680760054027 -1.866812185168759 0.598156351839886
P 4.7376262253977535 3.209918847804594 7.056719372824392 0.6544709672712148 -0.35005723807097133 -0.031794775913093626
P 5.944399182692193 2.3397181861668646 13.193646236271869 -0.1759714425647292 -0.2984112317599054 1.9913073142310675
P 2.4339787770295223 6.47051948442001 4.283016232008775 0.5020053211379097 -0.29575708196651 -0.49042841493358763
Ni 6.013950046407862 8.555820743000648 4.02517216041337 3.377132946605429 0.98568870403818 3.1609797896154914
Ni 8.709769031615235 1.9295536722591986 9.132308191950761 0.7645625193136832 -0.13777050601497565 0.3837857406716681
Ni 7.242116747640847 0.5648720873137302 2.686812134225582 1.4684791428105355 0.8587579689511855 -0.45750621028427013
Ni 7.459031035588433 6.405754187380158 10.528480312888204 0.09770886210739946 -0.04678122201959685 1.4295624111406797
Ni 1.7804663135751673 0.9513763073966259 8.850900856721061 -0.45472813331850076 2.478271938985771 -1.7963421041726548
Ni 7.388820743393811 8.760818216292902 12.314720393816932 -1.0707693358586075 -1.7196414688858062 0.7075907299143298
Ni 3.507961679476866 0.04366264367272947 0.647979858515954 -0.7161355341605473 0.11381348097874593 -0.185940380851983
Ni 2.6625932102750713 8.700913849183603 4.075070171374925 -2.1440146440615333 0.4317033902885533 -0.6938484406275728
Ni 4.426328881298562 1.6361174195327426 5.049614085318477 0.13464944388749067 0.8069373847354684 -2.3890482315312465
Ni 4.619456641969693 7.549193749474751 2.8239449966269117 -1.7619679975681588 -1.393500118200484 -1.2308063665812674
Ni 8.355627677197896 8.444273705582626 9.255447039988063 0.21367718464561913 -0.3586334097757566 1.5163242873182723
Ni 2.0105691711017784 5.81636643330039 10.414028964040744 -0.756256313440833 -2.3660702825788347 1.2461980185459893
Ni 4.711503437224443 7.093867805165768 0.7156560612700346 -0.9008081040437003 -0.4809461864747653 -2.6279319973494806
Ni 7.698893434603523 1.2511148123004872 13.709775254502894 -0.4919960165310236 -0.5912339136884398 1.1813537683770943
Ni 8.83045386367015 1.0467956083008692 11.717726603252803 0.756242172373446 1.3788296606725028 -0.21845917941529472
Ni 2.3492233766706043 1.1109768401165083 2.6517917717898505 0.5918126690100454 1.6748106857243608 -0.6512131224555494
Ni 1.2373798591246172 0.1734541830219635 10.839710772098817 0.45218171274756314 -2.2839191657003766 0.228918941296038
Ni 8.502557762715073 3.0119961000508026 5.815245404886173 1.176618053464322 -0.3108296600289163 1.2654131580218593
Ni 3.385242039544042 2.515606602316842 13.231286413850405 -0.1325812485045523 -0.011022576362748759 0.6116757264825594
Ni 0.9221099294600861 4.662875297105211 0.7199875643360599 1.835306144140678 -0.2908838130346087 -0.7455790362326449
Ni 1.3492566107821147 3.3618229081344313 9.220412546942068 -1.1130521557872186 0.3744698625873809 0.1571550811891745
Ni 0.5565811872519448 7.606790116907719 5.522477059004826 1.7116844188222586 0.16596728016416576 -0.6315413550582349
Ni 2.07231993795214 2.455193533238067 5.723460496941634 1.413474504439882 -0.36246203949322736 -1.8501398667194007
Ni 5.322313196463284 5.803582941215577 7.369438256316067 0.002132730072286649 -0.41348738150115877 -1.1043823959273626
P 6.557695929337363 9.150031745383602 6.668484624004591 -0.735165811319121 0.11286680079476046 -1.0070972516209429
P 8.176517481907899 3.9617803586911036 10.541426778011385 1.0632455166777368 0.7493390174957095 -0.1454305936633947
P 5.58993753444222 6.624015593506173 9.434342450002058 0.8404974800791009 0.7413963656098651 -2.0905431545059545
P 2.4739872448881775 9.189343103135938 6.175518502117073 0.4409786449428922 0.7114525268625811 1.2113117481917655
P 0.6142076999868087 0.35540651505623994 3.6470718852743653 0.9395723692960916 0.7035785234311431 -0.34787180038387827
P 7.108968717333751 0.5180338244945084 10.617976061970095 -0.4261688336235693 0.4801010648656505 -1.4039781349136724
P 3.383423901023505 3.9349416195977884 10.128277879216123 0.39884392055637113 0.26734099271766215 0.5506354234407872
P 1.8681985624962074 6.498168378501751 13.07817371532272 -0.37986635101260385 -0.826357698243609 -0.3715853419507342
