# total energy = -340874.29112321406 ev
CRYSTAL
PRIMVEC
9.18032188224139 0.00000000000000 0.00000000000000
0.00000000000000 9.18032188224139 0.00000000000000
0.00000000000000 0.00000000000000 13.43632903581775
PRIMCOORD
 96 1
Ni 0.9967258972336697 0.9459403570990432 10.784857512798704 0.7239797127953145 -0.1982942744316456 -0.9835639443856932
Ni 7.9017508321505066 0.39418465695961485 6.745104647391316 -1.4462023336902061 3.252986202021475 1.5026822710548056
Ni 7.257595193208653 6.056414349420705 13.493970472619429 -0.3055871806830544 0.4028191031540353 0.9550406401350197
Ni 8.795124666687931 9.105254297350973 2.9394518236580085 1.713426598324346 0.6738863956833491 -0.09792586321421198
Ni 3.1040595834887963 3.9134151130168036 2.8572356158156955 0.5971829321830231 -0.97595193636639 0.3705103637190006
Ni 6.3806908559600055 2.9525016510805266 11.513294931985305 1.3532854936548113 0.3795390495801722 -0.7152325627303038
Ni 2.274938821149898 8.9684583223788 7.078781803442159 -0.2356058663979104 0.32525586275657536 -0.05047049794572598
Ni 7.372863313586522 2.2726804619898986 3.1317667126790196 -0.21874225787335233 -0.00683527775427855 1.6808522639327503
Ni 0.17300500017083548 4.236865390595128 8.6989075500858 0.6638372389774632 -0.6495403627388168 0.20613896728704498
Ni 4.208305409510743 4.100748759435311 5.311635957450363 -1.1333294179790159 0.19624433388115234 1.086599618022645
Ni 3.7370152298485375 6.041707473915341 3.949447876037123 1.3023768797304023 0.028485509034202553 -2.2084377475326096
Ni 3.188445101369759 7.483366846956098 0.15081249027903398 0.7396960950893067 1.238047621524713 -0.7407911279256985
Ni 1.0821946930856892 4.134972999063274 1.0781314826620474 -1.4037541918283245 -0.5753735496174155 1.291935372682104
Ni 8.377943303647832 8.857348887771174 0.742648557315383 -1.2455855817729709 -0.2791804085547515 -2.3117855530933413
Ni 5.86003808604041 0.9899783607190366 10.386040465464552 -0.6892554219402517 -1.294590550916764 -0.28648542685659695
Ni 1.3587886082549154 2.0487632332437538 7.171197348791625 -1.699466279489512 -0.756532192810039 1.5196134995925055
Ni 1.7640080120044472 7.628718881835263 9.520445366627301 -0.41625440272333475 1.0862885145401293 -0.195745796978179
Ni 1.2941407822194781 8.463586525613836 1.4229205002058323 2.1315501930459355 -0.6627398921482264 -0.20456493793170574
Ni 5.599316947243701 8.082575630420886 0.563223758117768 0.2809182171814646 -0.5247171609131286 -0.7504584758121333
Ni 6.123641845878743 2.0659487956320435 8.033648187416276 0.4859413256965115 -0.3552524091186656 -0.22797946020090412
Ni 3.5404186387453156 1.647151695957148 10.576365978753968 -0.7616908541928431 -1.7034383767633827 0.5810801130838896
Ni 2.93098297680801 3.0759494381720525 0.616195132870264 0.6434532760044724 -3.022175957239995 1.272716633661808
Ni 6.0039212694333965 0.18298492798724048 2.492506021314857 -0.1034100262572348 1.4971214891375764 -0.5858448814623846
Ni 3.6709260932922874 8.767895832262894 2.5628318763765536 -1.425721697238351 -0.7332112586959114 1.0211429310807316
P 0.24059052917863008 6.439839669244061 1.848785529625784 -0.6350408835710613 -0.39733468300069635 -0.612322616037939
P 1.0378812798120374 0.9165449667318931 -0.07762053875493129 -0.9462652079352348 0.08866192141378279 -0.20575381603348436
P 2.4138921717423973 1.1248372877938126 8.892915290444632 -0.5345346612241827 -0.47385791216941625 -0.6430226162249572
P 4.402790526602582 6.881734458539117 1.9586804076607753 1.1468570201518056 -1.027297637828218 -0.16154035474106374
P 5.85148202613342 6.207889658932877 8.393715096480676 1.3310277106978754 1.4556850763696607 -0.03573524861808039
P 5.549375996713628 0.39181797000250956 6.427576595398827 -0.11561659562575571 0.19560850006936634 0.14956492754674242
P 3.5857877890246583 8.632541167811533 11.537359309489808 -0.06771977194447691 0.233915623179681 1.1079528868874404
P 8.72107619114095 3.357583350003229 10.839731050225799 -0.4285013384114879 0.1790919904715819 -1.1726410710944448
Ni 6.934154095952117 4.355006951692834 9.225343004700045 -0.2782350139223466 -1.2032654808485213 -0.06907345775889394
Ni 6.73433521190109 8.640601490341938 8.45337249959182 -1.1476975137752297 -0.8275866855547038 1.2994329666107298
Ni 6.484208164448446 2.505888176386123 5.560879857946943 0.23793065787634504 -1.0717039318577348 0.6742458359052969
Ni 8.605376595639017 2.183209045838042 1.180011021743398 0.7755200467664515 -0.5535610817280144 -1.0897404776444717
Ni 2.344920414144522 5.945552783501372 1.7607903092175372 -0.6543858637565763 0.6675586536931084 1.060716579608296
Ni 3.978613758359558 2.0720996112304166 6.893400811468091 -0.23651963646143137 -0.3374863433844962 -0.3881926114901121
Ni 0.49884675157509484 5.669252638629382 10.720497030835247 -0.2807845198170777 -0.2741204775333408 -0.5771442683645931
Ni 1.3087374938633782 2.847405327244445 12.115416631553622 -0.7543189872088042 -2.2792451572634747 -0.050516263581996866
Ni 1.2363139352729828 6.880586918315539 6.991499894036888 -1.0514688357577828 -1.231471510969092 0.18020347836820577
Ni 4.61255169915068 7.81227941599865 9.83591702653914 1.5080931576577317 -0.6649232729527903 3.167300075406565
Ni 5.115376284156784 6.254048316886041 12.238641336825685 -0.24261289384336282 0.5171753440101288 -0.02138463632336317
Ni 2.6677372495194316 6.38338069024407 11.476626890697213 1.6038130143595604 -0.5138802181986246 -0.7810204077593904
Ni 1.5869104243802468 7.145044448080214 3.585645494036935 1.3141072807934528 2.575394846682713 0.6983756390739649
Ni 3.9431226343247663 5.161213630847346 0.4911325271761205 1.8712172562149905 -1.1174310015812046 -0.5135925117548769
Ni 4.020604550220689 8.58271956146471 5.153208390247673 -0.8968223799230749 0.40810709102585196 0.05973315419457455
Ni 4.728407360123021 5.345940065877887 10.135600369038913 -0.3687144481608424 -1.1589206361845588 -0.49190628503069483
Ni 1.3229669926357337 4.944438692452745 4.204321149854483 0.1319379584935986 -0.4372459173733373 -0.11545487323691084
Ni 2.7745043919210417 3.4400593609521604 8.83250510094682 0.21963982998695725 0.13442267258866525 -0.023604783903133544
Ni 9.077676610697969 1.5387504562771646 4.9497155414168414 -0.23675334973879225 0.45477878405077804 -0.7143218779905762
Ni -0.2061771749218223 8.349273158701983 5.376371914574971 2.476541072337593 -1.5722059289772408 -0.6222830696847605
Ni 8.3374856255254 6.538546489115266 8.522569175073517 -0.35493153544413714 -0.1003126182788337 -0.22425624571304603
Ni 6.040192720820221 5.401756422352674 2.535610386208948 -2.404054732242408 -0.04731369748429916 0.02965921762732957
Ni 7.426301966718058 4.5645753374833715 4.467687139358492 1.802874505974534 0.6328279350801423 -0.40040483728558784
Ni 5.93435279091926 7.618143151134777 4.133834639161486 -0.13873338414887718 -0.8446775795987194 0.46520820691421816
P 4.927666244544942 2.9471403431559744 9.589897255054721 0.4096968041104751 1.2989670827179047 0.639005524645764
P 6.767283386800434 1.0372294769650456 0.3407046923800295 -1.5837141867271562 0.2912831053555564 0.2902616060695775
P 8.47091242240115 5.928339680147716 5.889358197768893 2.212467694627609 -0.4783069490797053 -0.3305173682658308
P 2.213724435463403 4.552090099850853 12.537667368285394 1.7928029806711447 1.8897777928259971 0.1755001593552655
P 1.6538166095756837 0.12160254241201404 4.161405899589237 0.1412134702582536 -1.2160304938236735 1.5300436937868942
P 0.2116587450618052 8.725831597827455 8.084787169939762 -0.06240967258547316 -1.0316548863556492 0.020892012957660792
P 2.944881983995975 6.548231728602256 5.719455228330431 -1.2886687861156902 0.978759066797882 1.6367660722468134
P 7.272953871561008 0.13426587828723163 4.198772563365443 -1.0741665344656144 0.9080326468165973 2.20828630955641
Ni 1.5289183316415562 1.5608107695352098 2.654749848285076 -0.12623139502712452 1.1734378559641274 -1.3631253625633686
Ni 8.509240265868625 4.117805797318561 12.826588619552375 -1.2874714233734794 -0.7657593678352619 0.010461047432323919
Ni 0.22574778491079495 3.7676132423699964 5.923943224043148 -0.669581340550092 0.8291038935301785 0.544990566450184
Ni 7.963488496178952 1.6183713871498353 9.678241327690936 1.2277660370930468 0.703252250439976 -0.9034789660076441
Ni 1.2165211614967255 8.087881856414706 12.178299081709106 0.04131634225028368 1.7348343745761607 -0.17156637151849807
Ni 8.050591389309346 0.9721960774144863 12.03207124413131 0.29079125332080247 0.27818770562417894 0.033227908815194385
Ni 8.52221206055594 8.401279681634495 10.118053101972153 0.2743624183408178 -0.13438821980630403 0.46690796321414424
Ni 5.646035604825971 2.6409674311838263 1.6125069975912671 -0.7946074024152057 0.6667870656344066 -0.8980750213832532
Ni 0.7434481633431714 5.994520619921853 13.131404679964167 -0.007429973915483978 1.083198819871212 1.1280943948323219
Ni 8.563046131871706 6.832224983133107 3.740848932227464 -0.4977910259462459 -2.617301514218828 2.8543497694902196
Ni 2.266933580550224 2.096124513351226 5.019920216230928 0.4157499522830904 0.18641114984081444 -0.9794617492918614
Ni 4.3435223691352745 0.0011787533176583573 8.22589514205605 -0.13428717545206548 1.9216273332364264 -0.8530781449575889
Ni 4.424318381196889 2.000438019348476 4.0655514056977555 0.41496807981174344 -1.4797218056038903 -0.2562014311610749
Ni 7.051478608410635 7.248644379464752 6.492044487127208 -0.3836785256698425 1.1306469860508463 0.37988254896251994
Ni 6.526327480814618 8.028632059590974 11.518588305528622 -0.13369864993844716 0.7116497304750518 0.37505915943194756
Ni 4.0744746784762915 3.1279559611045653 12.174174363129483 0.721425578914893 1.9645395592189199 -0.8123922372024523
Ni 7.233285701112396 5.627867748006299 11.062371296211149 -0.14866478432997624 0.3546888233057118 0.5215238507868115
Ni 4.5210697925271175 0.9361541340723779 13.179560975938534 0.2880681979626845 -0.0173037813857702 -0.23062666801576412
Ni 7.268455513884586 7.331625308112056 2.190994876746968 -0.9744172448894187 0.04350743636433152 -2.4205087640333733
Ni 8.02500583248447 4.523337332008906 1.9416573369681438 1.0138934486071698 -0.07900537216062523 -0.15231935036342797
Ni 4.8109292726808945 4.483357030619481 7.691546250060018 -1.871210571346771 -1.4958217964895464 0.7053016767698369
Ni 6.8845895386153755 4.632307751639783 6.854153099757397 1.6608642508465978 0.2346810405907958 -0.8226717647515897
Ni 3.635462510222862 6.765438142120923 8.15394345200559 -0.511385476801229 -0.08604402417496149 -2.3602727020604513
Ni 4.986484566244608 6.452223923336906 6.208524937200649 -0.05062887790046119 -0.635690344229602 -0.5435224665450897
P 8.43370457819189 7.252775524269629 12.143390908107893 -0.5139714923608503 0.5315416400341297 -1.3788494581668447
P 3.6659687195264343 1.579768134028703 2.068818564223165 0.8481105165396684 1.791987940969017 -1.2397489204865357
P 2.4345111744796295 3.7685679958360123 6.601993529060752 -0.10816502444371695 0.5721167332430146 -0.03287155391704016
P 8.142238541725105 2.7726316062761636 7.4686636435794505 -0.03822664758136642 -0.06537518297170031 -0.066104347828241
P 2.3474909042453342 5.563256643258017 9.209045179428713 -1.5279220194582008 -0.9124217770232287 1.5556894193794564
P 5.631411352216705 3.7299280214277255 3.8961992555666107 0.13875035342974168 -0.10415076107800127 -2.106080073799289
P 0.19148957809221478 3.2260752403812982 3.3740638636781535 -0.003374315788871608 0.35354571084020403 -0.018233749399207307
P 5.94748983139877 4.312988618866336 13.049966963409528 -0.2974352409998813 0.7341833928011937 0.7559575512534916
