# total energy = -340876.2470570778 ev
CRYSTAL
PRIMVEC
9.19520543394078 0.00000000000000 0.00000000000000
0.00000000000000 9.19520543394078 0.00000000000000
0.00000000000000 0.00000000000000 13.45811261817764
PRIMCOORD
 96 1
Ni 6.868928796268767 8.085555621491276 5.090423426319693 0.4471446645442879 1.3563379073278898 0.8353007663695099
Ni 3.14865902305925 1.6474589802887953 5.531499959751954 0.43365820002207894 0.06216464645420262 0.6802223652037059
Ni 7.845376855743818 6.196317909710763 6.034793092142884 0.02573571420320729 -0.7694638132700425 -0.6160314323480939
Ni 3.196170649499415 7.976353361842853 10.853469692964445 0.6010233889750358 -1.2678767890710037 3.015119050393214
Ni 1.4448518239151549 3.014767636839926 1.5654745287036371 0.6648132297374874 0.6754935922694689 -1.1291058668159717
Ni 6.916725474077163 4.119755472975916 4.640841327867663 0.4882447770187076 0.9527343605993462 0.1963348367124296
Ni 5.755665275248677 0.6852230303213738 13.194643475786245 0.6106737675806063 -1.3494085271979084 -1.1803443532759734
Ni 6.85824396756285 6.273778320225946 10.523961345536918 1.1433883448769147 -0.7501653700517468 -0.5599281615966228
Ni 5.545352536727396 4.707669322347861 2.4218819398937206 0.5363287770101278 0.029223415641491602 1.019204319297122
Ni 1.7185930894703552 0.8436711321534526 11.288813015813108 -1.6266361829016631 -0.3936045265343027 -1.0026803535001698
Ni 0.7391023365195831 5.683915087303523 4.685092334463492 0.18462217626119173 0.5404553975839917 1.627032389898817
Ni 3.160327738745832 8.651630857974622 4.297902463393783 0.7642928105920643 -0.8949130787155039 0.9502668728954601
Ni 8.650858460718773 4.167451003524616 2.296667149515105 -1.1877573579105931 0.4373796147377242 1.1174076045424368
Ni 2.7638396759485637 1.455233210841988 3.0611684824645367 0.24952247647900255 -0.22086933151868413 -0.7835642572271667
Ni 4.372687988650315 1.7356869763587366 8.592762233311843 -0.9752086304424623 -0.1658847477526885 -0.4182750326977893
Ni 7.731549407765725 2.862752500724422 7.00004874757246 0.5229484990484801 1.1053398747446255 -1.3981736124167534
Ni 6.87268963528832 1.1475248564402676 8.227684072731908 -1.850526560634858 -0.644402270181303 1.557150834416331
Ni 8.325449335870504 6.927447083604787 3.5889558030713196 0.5991261719523231 -0.8249952706784437 0.4117336320348457
Ni 7.5105426453331 5.1181984638318205 8.081232955420148 -0.11519056383193065 0.18620546158791157 1.4761117196551288
Ni 1.7795297158336172 3.3151290221056504 4.553902499598555 -0.39099819925970725 1.1700275447309978 -0.36456803009263666
Ni 0.07142375815250311 1.9564914442719719 3.139239454620058 -0.487401969402438 0.6686503440953904 0.8045686273929756
Ni 7.597281018123904 8.38766409578809 10.615140083028313 0.6102742181493425 1.7343980583696903 0.6292204202345422
Ni 7.66405659993317 2.0051524713904847 12.238107633662882 0.5555444307066303 0.3202064732581259 -1.0801530910663528
Ni 5.1968266654362045 2.2934313567254216 3.752081505904001 -1.1353855291770962 -0.1175194690754234 -0.12188340247107396
P 3.317758850857709 4.457982714189114 10.736855178221496 0.5981789775477053 0.12259019873011144 0.507972337354622
P 2.212375620888368 7.011711946135786 6.299203982751532 1.112789131933819 0.5073961531361778 -1.7162375854105796
P 1.108629137484994 7.8082650066413395 11.4721120798316 -0.1649583792836772 0.35655724397301813 0.044033226960814485
P 3.020790496394466 -0.10791217232704611 9.28900479781667 -0.11016585692382963 2.0826591237721876 -3.205808515894408
P 5.7874898812307585 6.649843831770339 8.065864089069828 -0.7185911947898915 -0.9548920303722974 0.13430928693925254
P 1.5691526108743485 4.9750658961585845 2.942199075611789 0.4854250481817252 -0.18300803769653642 -1.4202236502382575
P 4.134302287961079 5.419148342244859 0.7947664320911304 -0.021088188128866904 -0.8747504877246999 0.04269291088283615
P 5.283022521106828 0.34009386791483487 4.913247449594895 -0.8916125535873612 0.2748085047393009 -0.1476581974423328
Ni 5.065969697007718 6.987464189425371 6.070442903582505 -1.0089944686436558 -0.5442398043270885 -1.0597742702996844
Ni 4.376853416708646 7.023849617299134 2.5852090177252482 0.046368045741578205 0.41014083362642917 -0.3183056566909873
Ni 5.871966233486573 4.1569224933109545 10.199082784041774 0.32860703861699536 -1.680915770180834 -1.3404189221047884
Ni -0.007886727694548042 6.068035598801774 12.049424776867014 0.6180422921305355 1.2673036901763528 0.8317976383122576
Ni 0.8438633119468721 3.933626124727062 8.132777598960498 -0.48117938553149386 1.553961638055072 -0.2630639626088631
Ni 7.61530362076039 7.75357192476286 8.143288638283849 0.4930280573399638 0.22001392549692428 -0.29026623405526786
Ni 0.4214502869693442 8.236982264459467 5.662608876809134 -0.5747179183112876 -0.14754969688892652 -0.3630019711570974
Ni 5.480342434360071 4.763410657644994 6.5354747861926095 0.3379234309219148 -0.2857518911246821 0.2892344503566438
Ni 0.0493120476627285 7.861523636473241 1.614542903422556 -2.0661323297617575 -0.9523476666838888 -1.560269582550971
Ni 1.0264240009695929 0.7278372903512367 1.3154789616425502 1.4878030399501279 -0.11611230431525163 0.7694525004161329
Ni 4.597860179141271 6.211489998664947 10.12624756185626 -0.31312848336542204 -0.15309479507687182 0.026182314822322653
Ni 8.118906631574202 3.1421028415899563 9.46225074374206 -0.7573228070321344 0.26853861257018913 0.8236238442522138
Ni 2.748915857540902 4.807409715612129 6.44037981070995 -0.97157669011683 -0.4288826330103065 0.845200284871409
Ni 0.9081212465102867 5.393107520476222 0.9094223680781759 2.323917560470185 1.1580847705468247 -0.5127756722805363
Ni 2.873667209566008 3.612759431359622 12.915481636631958 0.39462114072427523 0.02399430603206835 -0.10988997755462364
Ni 6.799836022691952 6.572742034266801 1.788044476058814 0.24012406598323807 0.7481172292734665 0.33745960391161883
Ni 1.9099820952233257 5.897841541557528 9.939946263265925 -1.491931717406521 -0.006846590608188209 -0.9108230650775411
Ni 0.7201666499842179 3.52150621270427 11.340236282641827 0.26258239498675423 -0.34896760455121834 0.7385208438342828
Ni 4.556748415678144 9.026234331856159 6.961491412176892 -0.42158378535604807 1.1043001206262015 -0.6253714788020972
Ni 6.139932910033756 1.2934803521795246 10.511028289104154 2.625002996628144 0.6137215532679946 -0.14886044528055006
Ni 7.820660143556637 9.14026407435364 3.2998346369192895 1.821844105098501 0.11261483268495445 -1.49014660048164
Ni 6.244831813542447 3.4579305623835226 0.5652853683371865 1.0048807035855984 -0.2809436711027613 -0.1178611686855583
Ni 3.4732681650353894 3.7942452008679517 2.7902970405230336 -0.5423880958303304 0.08820709326455131 -0.6595514671179158
Ni 1.8010556917377059 7.379042012524739 2.743328850723591 1.5382784229918605 -0.7684978498123475 1.153445986223233
P 8.102631117968803 5.163907830008337 0.49498802284946375 -1.6263587608705605 0.0048868957786561 -0.4578306835032245
P 3.39448364493875 8.977352619807402 1.5086279297142062 0.5808975647594383 -0.2275950802782919 1.1209783526128307
P 7.0904596854107185 2.763159230746982 2.9395609711748465 0.4871368886665094 0.06624164473705366 -2.1346026067190143
P 8.619843032814249 1.2636970818021889 10.3457895280644 -0.25734917161227294 -1.1786235139301249 -0.11787222442915184
P 0.8195916477023474 2.085849594215894 12.9364356707585 0.22380321733602748 -0.14928981950848483 1.546285352456737
P 1.0645932986961508 0.3080173133040603 3.8973482807567925 0.13420772836438175 -1.0896836562646073 0.6400915586210912
P 6.2986789365216636 6.258891282639992 4.0856945930340425 -0.8178200930862431 -0.6550528079166138 -0.2962324789410318
P 8.961867893868709 5.063974337430107 10.22900030441834 -1.2753748972202614 0.3316231997354998 -2.2996715434386266
Ni 7.0354815521640095 6.800029122005915 12.924161910554837 -0.4975349440713818 1.0708613813517815 -0.5724844009950786
Ni 5.7374587685036555 0.22983048156016145 2.4550426092243125 -0.9053131910029053 -0.7913464722757468 -0.2422971623751569
Ni 3.275865494933306 6.693879670559182 8.155737107390621 0.5048872706713949 1.1120563675328525 -0.8513547345085789
Ni 0.6933423967132193 1.6734262404140183 5.931663346158306 -0.8821318677904356 -0.35797957824184157 -1.1039849033786278
Ni 5.235685603569772 8.492682536967326 9.111936404995364 0.21833293825007563 0.05016427955921683 1.5493372519091835
Ni 3.03450974289122 1.0331273057257144 13.200308641849682 -0.46940938947975935 -0.03598258874219609 -0.17939769463745878
Ni 0.3480559962938825 1.5246662070195933 8.264236853344439 -0.22120074671617387 0.059251586572465695 2.041163575631562
Ni 5.429511338760839 2.2894406375702 6.229276284521966 0.05505965997830517 -0.17426474428626762 0.5056128359835098
Ni 0.6837904173158815 6.408846692739897 7.585355756205914 -0.8506775059358962 -0.4806615653548109 0.4872469318818125
Ni 2.2183708948266276 2.888738151260498 9.749016098263752 1.510160838820038 -1.0427329985466816 -0.1830923698802266
Ni 5.237018908356654 4.781755092471417 12.178057425102763 -2.040315111588338 1.8512091885241793 2.430805260863375
Ni 7.631496377516947 4.3435207970365735 12.011729032219934 -0.7740784292239185 -0.2013168633080533 -0.43482779485014794
Ni 0.5908691883961127 8.282967486798787 9.186925144291829 0.3913082743009583 0.4562008612092853 1.2892367428040183
Ni 2.0818864606769525 7.832080588696696 0.16865937745851653 -1.0079547145252319 0.36805753130313384 0.07939515139987617
Ni 7.366297457803224 1.675062986979985 4.715345479838136 0.33510524474682934 -0.7036898521980268 1.9918991821787955
Ni 7.904391684172883 1.583754597092073 1.0002930661877731 -0.2453122950523969 0.7430912368137848 1.996567534188742
Ni 9.014390907266467 -0.0019824862900134754 12.94165762792037 0.02866085826980225 -1.0842066923104359 -1.7184173666707179
Ni 4.45191387860744 7.423114632135289 13.469013693392636 0.7521307213082338 0.12575137006691245 -0.21061834321463727
Ni 1.9653280366871064 0.018936606055907936 7.384843267628494 1.2741592796456056 -0.7048080249628701 -0.3321680164953763
Ni 2.477022828276484 6.0244687154896965 12.191758281188664 0.7993636861532685 -0.9800554170118025 1.2005678794117
Ni 4.087976843020969 1.1056406957212908 10.90263277829926 -2.3227767619975226 0.16558598556534707 1.0113076901578648
Ni 3.979096415562483 4.315401858841485 8.381873874930845 -0.9209498690988976 -0.4194451417464905 1.5822746260671525
Ni 3.260960066936497 5.714213289184759 4.334965577907499 0.06698083689592335 1.1066521657981456 -0.20837608414767983
Ni 4.544592354103942 1.8239149724286776 1.2394585202972004 -1.0116414193481997 1.8348603148525109 1.5678281116245192
P 5.870283510893472 3.287764090755557 8.27971330359825 1.7298778019018337 -0.7106218034311698 -1.2227251322350297
P 9.2135958376322 4.17868754455614 6.086108775068108 -0.2388444279398661 0.03965283850493171 -0.03435045245541181
P 7.367115831086207 8.686682981061503 0.9786815748732153 -0.9568069880068233 -0.5529103355178929 0.02267558722064482
P 8.264301219782425 0.35929621540757667 6.996240093484689 1.0420855947706698 -0.7925852297788543 -2.323590001927437
P 5.583742519384197 8.014559440391118 11.67701252043868 0.11466991544177026 0.2147804450121269 -1.2073890160985916
P 5.259942555485613 2.687878083917945 12.17990106379083 0.2911949165171243 -1.5130713275986136 -0.04823183842319436
P 4.155947801535716 3.8001853035736506 5.0233342880053735 -0.26718775496924957 -0.48894900217458376 -0.3113623926039348
P 2.2696893363134794 2.414421869730975 7.5272034380458805 1.196732821936326 -0.2917782998244201 -0.5209785198063027
