# total energy = -340871.74258935655 ev
CRYSTAL
PRIMVEC
9.22019916412147 0.00000000000000 0.00000000000000
0.00000000000000 9.22019916412147 0.00000000000000
0.00000000000000 0.00000000000000 13.49469346870555
PRIMCOORD
 96 1
Ni 7.639478859517778 0.8242940883773672 10.44991260987537 0.9763041774994865 -1.0855194975845885 -0.45233289361344675
Ni 3.662890014546832 6.904675100570896 9.409134703222808 0.21757703392065753 -0.053254231338450225 0.10288732098454538
Ni 8.787725561622162 6.791865965860875 0.21597578531054074 -1.22448505234893 1.6756542646715786 -0.880945046571186
Ni 7.87732311280586 4.992396608703876 3.3303414092963046 0.7898004679448656 0.8491646688357957 -0.9843730705505498
Ni 5.545129098086493 1.855371423666755 10.452948821404588 -0.7153996844357873 0.3593072959143296 -0.4845084499047269
Ni 2.707539095627437 5.119819758821774 2.665390799959279 -0.6568813764849203 -0.34475073825639335 0.9789380155779076
Ni 7.210748826425726 6.7266053973706805 11.580673204584775 0.646951518965718 -0.4745611088840279 0.48118735595129386
Ni 5.615848024382027 6.819425140658444 0.029467755989638418 1.1065182113234426 0.10351955525190559 -0.6546244621299435
Ni 1.197141417377554 0.8095777287606394 10.42867203744942 0.45611190103990484 0.9520051957428055 1.1689669646769674
Ni 1.3231815376461262 4.826635871162662 12.345066426148035 0.009463459405744992 0.502269887653206 -1.2604085057184162
Ni 1.2677773618821284 5.532073296308855 8.70920542495653 -0.7881251371249717 0.5719269858297118 -0.3423395577117394
Ni 3.350555773574053 2.913297056411158 6.821877713591248 0.2359082281296776 -0.7528825118725937 -0.27747165339376084
Ni 5.4364690529244495 5.753726880160829 7.503508584931045 1.2035159062964307 -0.3758384608001334 0.13727274044295068
Ni 2.1586790898229333 0.6140043997873551 7.816288161515306 0.5716837594706542 -1.2585879075699098 0.9111218272648826
Ni 3.1373386718029677 2.0807499679129133 9.367611537046544 0.6134328183829822 0.5293004094084367 0.14586870964207782
Ni 5.616604080699658 1.0547631044889443 5.422964227455732 -0.500470629660938 -0.5544293432655807 -0.24652097064851736
Ni 0.9085215282212175 8.950757120260706 3.1837623737453424 -0.9066951589520965 0.24306695066164588 -0.2682398503828477
Ni 6.79477032854446 0.022430900116267943 8.048532065933518 2.7479107265986737 0.199694754323598 0.1145398176218092
Ni 0.938081486200811 3.1439864352787277 2.5814270578067 0.10408134129264655 0.02003095050894615 1.4583055447116435
Ni 1.7033487826288456 8.79060226370876 5.582943900226763 -1.3463995651682554 0.7407049959697952 0.5933833559312749
Ni 0.19055293062023096 6.774983781500103 2.530309352555713 0.3905441424414242 0.12316046941128467 0.6536998934331452
Ni 0.027617262051240283 4.739901459211933 1.3076777730351823 1.6181348302988714 -0.5089151608838655 -1.0910831077152952
Ni 3.6842439954204247 5.418775491052073 12.604246219911719 0.8368272303163652 -1.935864045661098 -0.17033147067013246
Ni 5.918814543175371 7.806521204719367 9.627209005824726 -1.073885770000402 0.21690211934082002 0.33732050723059326
P 4.922028049970171 6.746954376553764 11.31180482571661 0.9904866396474554 -0.3117732548891082 -0.2929208980692955
P 1.3766494716210678 3.39301478994836 8.039881675235934 1.5783120418749788 0.024256558554519515 0.6848302962893624
P 4.315375836861833 4.4482296841880835 1.0345625705096895 1.3764297929817586 0.26725820319586874 0.0039011348266190884
P 0.8272593043743219 5.18585482402759 4.15652748250755 0.1761961569810256 -0.7889476330262671 -0.3643446012279209
P 7.767602744759334 3.2549791907866337 2.0785878312484667 0.8703220196397012 0.2762578355913177 0.8922324465595473
P 1.640264181101591 6.412076749036972 10.715501363960827 0.3258449024908259 -1.299777751544658 0.6871933972049004
P 1.486757088025405 8.390445627303782 1.0440888801118466 0.34674977096429316 0.9139294719170066 0.5101330924513666
P 5.7204972829810234 3.365510936344764 6.132366338169993 0.017494557240337615 -0.7416007683111873 0.17659262108849585
Ni 5.7492366432500175 2.79734383384367 1.5087066937541076 -1.3237399187872108 -0.15476164125633346 -1.0669391634792398
Ni 3.7188750628475464 0.510008853297139 11.408764438353355 -0.6841139869486283 -0.004726973162024117 -0.7931254185530405
Ni 4.95405902128056 1.330861963409383 7.732863801003965 -0.2667357550334955 1.1664714519486235 -0.03224317630442189
Ni 7.47001160198037 2.0153510964377865 6.720208423307598 -0.38914880475579433 0.2396928919830904 -1.1143533910971453
Ni 7.99813538024398 6.93497267447013 9.27183948604042 1.8005299170017572 1.174966119683196 0.13135868895136085
Ni 4.9553867299359124 8.169004108028705 7.284704964588582 -0.4163341069213346 -0.9435670922777816 1.6970738679979356
Ni 8.96749178143755 1.865568963755785 8.661744450627161 0.13611702957195268 2.513220687146814 -0.7122683378956572
Ni 3.18189989354825 0.8950701799066733 0.23991787604217218 0.9129894766012405 -1.297909330877352 -0.18493842195002988
Ni 6.286709703295071 5.230923156717625 9.82370527671746 -0.6933000243232704 0.05129145118512456 0.41002744797701646
Ni 1.1405847167391177 1.7269801526543285 0.8095196415069676 -0.8492770260439437 -1.0016280009762557 0.2917415330492137
Ni 7.23794841346247 1.2134519494006049 2.44017821929504 0.21003136036291567 0.9237408015804737 1.2815236904304768
Ni 1.8991397082984238 6.344677094379819 0.6365800570278526 0.07920000466993457 0.03739566703963882 -0.016440147833894265
Ni 0.5772407003325725 7.406355348115394 7.448072138470563 -1.3269625394895663 0.023567502907294896 -1.878103184701546
Ni 8.602832911165272 9.248966016372368 6.272752166055674 -0.10409599658066587 -1.0957491457323967 0.09471558380703042
Ni 6.340113095877045 6.889895121581099 4.315630314354109 -1.5291186108694632 -1.7797500041419285 -1.3360498465028152
Ni 5.623731294523185 8.565564866825435 2.085793416763455 -1.5611378440885373 1.2724677508757956 0.4245603514858688
Ni 6.330948218075511 3.4026591180976595 8.291962837792978 -0.6229800957517851 0.1367556915972161 0.2214483439506057
Ni 8.89368408847852 3.1511505298982363 4.651701957640818 0.30804772640840494 0.3660978364736018 0.6354077799921767
Ni 3.4170610689286405 4.752643774223723 8.325699545917537 0.16502857039998028 -0.9528811705898557 0.49319672170734413
Ni 6.064585889294326 8.903107131851929 11.772311352626774 -1.1981266169600593 -0.09421730401437323 0.8500388439106329
Ni 7.048925113855593 4.861755609136546 0.6403179257006308 -1.8840159506415555 0.49526800241407604 0.9449945687529274
Ni 2.424764812634252 3.857297910367084 0.5388754523122704 -1.4434792783320882 -1.2293014999009668 0.09725454817880025
Ni 7.4810112993820095 9.10332375303935 0.7188666449831488 1.1898373803680735 -1.3631233056808394 -2.2044137139748807
Ni 7.135779388393264 4.978778374787512 5.426041007860532 -1.3527818145455155 -1.2823865526514042 2.5440253312324956
P 4.9117936290851585 1.4614753023797267 3.3211654672559767 0.011656096181689602 -0.7658758388084681 -0.8378654417728923
P 8.214625652658471 8.769736953381928 12.066859829737222 1.3035554734195356 -1.001682765473591 1.2852821290316445
P 8.741772089828558 1.0362858257019496 4.374736400014802 0.5478953988018047 -0.19577382200263702 -0.3225880861164251
P 7.599776682643127 5.858053431794984 7.58130493597553 1.0813237143356862 -0.9875280712397639 -1.1453794071650143
P 7.54166176837445 2.915583665762044 10.08129182009472 -0.7419252415301416 1.28962780759485 -0.5887178321348054
P 4.082648794016256 9.235965535788706 9.170278072085019 -0.5816516693166435 -0.5169442018359292 1.0517807105712467
P 1.8066979931694769 2.313606093544427 12.318225504852215 1.3401157890420727 -0.12360501314787102 -0.36338198020433543
P 8.501825631169499 4.929791457524387 12.619750906542562 -1.3712585331934641 -0.3934602876469546 -1.3177662177022789
Ni 4.207029278465637 2.759421155375152 12.640222514372285 0.2697709423153935 0.45598103188899536 -0.4567868156197424
Ni 4.126914969393682 8.095611324024475 5.265075695816881 0.29546217643391054 -0.21380985356874144 -2.1946769463030913
Ni 8.097243299246678 2.3478222520167513 0.19918672495962314 -0.7567993304284966 -0.31607933846362984 0.49329956583379553
Ni 1.6952995489057687 3.760107792755451 10.276627267933922 1.2749367812415786 -1.2800396496857827 -0.272353358330589
Ni 6.504444702573954 2.89129766160788 4.063980657110053 -0.24940549128516404 0.3333486670670388 0.21139815880345528
Ni 7.692670187522854 8.449879030028816 3.4380969529368883 1.3620514127728995 -0.14705090287563707 0.5872327629488467
Ni 1.4560446051713734 8.145483380391168 12.20265768660274 -2.0781807762858593 0.377647231874098 -0.27088834374928833
Ni 2.2801828721857165 1.4081917723846953 4.168807865549665 -0.7579321584813592 -0.2531832131600414 0.8866570093542987
Ni 1.5897835916011935 7.940601338512021 9.301446467034891 0.5918067554727743 1.1324341598582564 1.5053479908124268
Ni 4.011229132597063 6.815939905438142 1.6159892411862218 -0.22636866407035855 0.05555434022653658 -0.2192081417661773
Ni 8.74137562127175 6.597080041881807 5.279785601294312 0.7835760843017086 1.1599192526524025 0.07772959077199518
Ni 8.908196681697449 4.843969845274214 10.354721431405961 -1.8808074710065867 0.7475500439160867 0.8851626841969595
Ni 6.572176284394945 3.74980883047747 11.980804946452462 0.22990341669649436 0.11393972214396506 -0.5939983638074544
Ni 8.971318164020683 2.686572363111656 11.633896803286335 0.7800115068789018 0.29548428792109754 -0.21980180948611822
Ni 3.519303855589811 7.594373646031761 12.69992330286819 0.8430418437675095 2.3240749119836552 0.6225126691970634
Ni 4.2524387585185055 4.807144370486162 5.448603756822436 0.205611119808033 0.930079599314308 -0.7715656901043937
Ni 3.094879655428661 9.336557906829679 2.590549522692854 1.4571318361185164 -1.4217236318225515 -1.1886011939681274
Ni 1.7441666035819525 4.905201186803372 6.249027672020336 -0.30306158604772315 1.3322147890274412 0.9863499917712626
Ni 5.532764811233518 4.897391678254178 2.9366877792428583 -1.1165424283286642 0.47799558848687357 -0.33845153551124296
Ni 2.1683879593652016 6.909607907033492 4.634036978385328 -0.158227745428063 -2.1807027435111865 -0.8327006097425014
Ni 8.70738074757532 3.9233975169658697 7.245192723813239 -0.4780318410414477 1.3829575667979472 -0.13141988120659948
Ni 3.2637752606283468 2.6188684418876527 2.3216405749491114 0.9478173829137031 -0.39050531878368877 0.3974660663722381
Ni 1.0815477825708903 1.9632108711181977 6.418859127418066 -1.2210536580698776 0.7251387661004222 -1.3521578078082712
Ni 2.472045993083209 3.511439025846644 4.6254548171603105 -0.6972248132989735 0.8479379955175462 -1.3407775909957875
P 4.15919488607695 6.541851049898724 3.6783024991877205 0.044745936757122934 -0.01411381369356279 0.673102466329473
P 4.493888109613832 3.73532389785553 10.019013985979573 0.40940806922546263 0.24503075925623605 0.5135161499909866
P 3.5350335150761447 6.422495573901894 6.849932935094776 -1.6662352853505238 0.34884059205505086 -0.23939438690606513
P 6.603220694412814 8.191612035965687 5.829775081475766 0.8208642792292057 1.8486949067427578 1.3671568523202648
P 5.528357556113667 0.6359530834961581 13.67120395959212 -1.4163531115392574 0.9899117409805919 0.2514901417283346
P -0.2053707124259093 9.116425655811964 8.940260845724222 -0.3811896978097177 -3.2121804808590224 -0.9815510277207224
P 6.879494737114168 6.856103092262568 1.8898780184074377 1.4215475112560034 -0.6784758148262445 0.3269954711555013
P 3.4192739166875623 0.7765565080781328 5.943656525328964 -0.09067638074065029 1.395729007531003 0.811129568439945
