# total energy = -340859.4968131356 ev
CRYSTAL
PRIMVEC
9.44781962285219 0.00000000000000 0.00000000000000

0.00000000000000 9.44781962285219 0.00000000000000

0.00000000000000 0.00000000000000 13.82783901828257

PRIMCOORD
 96 1
Ni 7.411965805343961 2.506619969187903 2.6183838984014525 0.6856108832091289 -0.5815143724078309 -0.9558903897298247
Ni 7.628368118071049 8.726015823490519 3.382068179645432 0.27065488758224354 -0.03405014760617362 1.151768341410494
Ni 1.2963448038243328 4.160470274588004 8.938577597465212 -1.0275928004711337 -1.6979056198706115 0.05568032428143959
Ni 0.5409065797097222 8.447834217031826 4.379650246338962 0.3948882783427328 0.7896590572709948 -0.4104951316420543
Ni 4.453031462796123 7.705008832362344 6.335486884988725 1.4046178253802004 2.594295797352274 1.6592570542604779
Ni 6.937345129414778 6.398233635468782 10.237427018320934 1.1369726711585582 -0.19945924127402423 0.2458594258051185
Ni 9.404151985927198 0.19397602284626247 8.488302063620079 0.8793301366755824 1.1576037171453484 0.2973290544393202
Ni 1.8641304308909015 2.3497483690778593 11.186196923970828 1.4470163449510693 0.26731039659004285 -0.39200992835367326
Ni 2.041928951878068 4.79094218608785 11.75341473706687 0.9522085700028634 -0.5546653705357867 -2.0772451518454678
Ni 5.254131000048041 5.697970679039226 6.587070989120883 1.999670598594098 -0.947647175884426 1.669352747933583
Ni 3.0132782020896927 6.081032533198569 13.5394731089654 0.6292798127175678 -0.26462590777934425 0.5893585510425978
Ni 6.04292947590853 0.3505982005133465 12.442345033635428 0.6181909018932579 -1.7815778013792867 0.6076064415091923
Ni 9.291345017406726 7.811485761610729 10.600034342593608 -0.08827317061579637 0.5730161051288325 0.4287643622648874
Ni 3.2987818689004267 6.027482290520676 7.916562523963409 1.3085814658792174 0.05387078187652657 -0.40578538487121085
Ni 7.427469677650669 7.572522055179547 12.347748737796968 0.7853809987209313 0.38758094604804216 -0.1750396747790792
Ni 0.38504684110123144 3.333001872248931 4.948070766896701 0.1786027095399892 0.4863290480532334 -0.08615561005216128
Ni 5.8541714839428245 0.7340757587442889 2.8396433352923904 -1.1980679958079818 0.7927811478397443 -1.0294157126124852
Ni 3.5469288561860384 4.147337805053376 9.791050599711008 0.7508397704109521 0.2956688931280779 -0.55672328150608
Ni 5.261084595427528 7.740504291385076 9.386697138829913 -0.8499349713429167 -1.1292598758953325 -1.6157555314334173
Ni 3.8162578554836184 7.249151526574003 4.09142277307727 -1.4863315976109241 -1.1692263889859413 -0.42314650185747776
Ni 5.486547367351528 8.640994893028566 0.7344602850105187 -0.224846056778245 -0.4464057294957344 0.5284198065756964
Ni 5.732370190964104 2.5735861159946958 12.689103191409105 -0.33777070739413445 1.1142335776898293 -0.5334684247431973
Ni 4.934709660122693 2.0591239839306024 0.9508049660367703 -0.49239299485912624 -0.3271512800070753 1.45121289953092
Ni 2.669075230805116 6.271736776044945 2.1646788059656212 0.5824733938869904 -0.17988363313494182 -0.21346429730386463
P 3.553287238917552 9.114831399913594 8.202052019044428 0.5823574371344163 -1.5425708797196274 0.24088228430550127
P 1.168997640617679 0.13957831073149501 10.282615940467787 1.1676742140074727 -0.609057572133422 0.45641092033756236
P 4.2641695448125185 8.123651175922701 12.365960355260958 0.46284124934393833 0.4384764473463287 0.03449726244592124
P 5.808462931706472 4.5016877348129105 8.364224790849349 -2.1536094868388203 2.0631760753469113 2.404241651442234
P 3.967007268357375 5.243058155231794 4.984300321518599 -1.3555830314397364 -1.0543083620891067 -0.15945210475346733
P 4.308470371897317 2.4196055487462322 10.756274828340405 0.24717325952053562 -0.9080444738911393 0.9389427061318927
P 6.896143187227359 7.912927002900872 6.66671894445741 -0.7185438864917237 -0.3403382110109945 -0.5965195875674113
P 0.6256251799377855 7.495059380564862 13.341832276815193 0.4202450119399666 0.4196868254436514 -0.12100897028592061
Ni 4.28304628879107 0.038719055141591276 10.424296391106802 -0.3246971620396279 0.9271392857390613 0.02138077966862124
Ni 5.981726499185278 5.799175724834143 4.419585235889983 -0.4882519761075591 2.2508545219359233 -2.004759068860599
Ni 6.50231081848566 3.1540412694252473 7.060660907908895 1.6556549387315163 -1.670758370031858 -0.5777711033153147
Ni 7.362969411814047 7.058579553204954 1.9050886193272456 -1.050751497975784 -1.9637743989181211 0.3148837754936319
Ni 2.19437897231746 7.549337105368054 11.598902257563156 -1.578648599278791 0.5051400101121494 -0.690703724351004
Ni 0.8824301492964427 0.5229783968400029 12.543260976144186 -0.32028566323549357 -0.7315516116053014 0.5102973859433727
Ni 2.688802278566485 3.265761738667675 1.960593615923638 1.3329776353353948 1.0589921407180214 -0.009108132948855282
Ni 8.391695271726244 8.504455001147672 0.4945253427029632 -0.7112949182387943 0.8409201694388163 -2.0354485275246557
Ni 7.617710977326401 4.464879028836716 4.955040423569863 1.185472161420842 -0.36539541108993845 0.007310674728800312
Ni 1.6415020049096274 7.765588252978196 8.498147636643127 0.09558564511680957 2.4718948318148333 -0.5813014850660763
Ni 5.271061493145921 3.7300276040861013 3.558732962255509 -0.5242106535903552 -1.178891679989847 0.28303500641415125
Ni 5.407998193458796 5.4468192850543256 1.8607566144370773 -0.4692502381940757 0.18305508888438796 -0.8342011055474278
Ni 5.504743868303825 6.447475672313732 13.053894851621639 0.3109996099478773 -0.9595076747674378 0.85806299976669
Ni 7.90428224777556 4.210014641666845 9.104110958776225 -3.179048474191744 -0.37679105452138983 -4.5900328652199205
Ni 9.222394828440025 4.809091447941102 1.554719056053279 0.21649871325481423 0.823366219715453 -1.665441842914951
Ni 2.6743943533576306 8.566168160140613 -0.04453040910615933 -0.4219725361540345 0.18823663308532743 0.031217820363701073
Ni 8.21409515495507 3.1324246577020616 12.613021788050506 1.024340869192739 -1.099602458040216 -0.9985439627342931
Ni 0.17758027634957677 5.325216396291594 12.836825522816032 -0.6746842089942962 0.814238803492888 0.5871916252982661
Ni 3.6611435498580644 0.9751283781352591 12.503146478016793 0.6550348101944848 -2.6235680639538304 -0.6586698358439108
Ni 7.856712475036819 8.032753701539495 8.63449006909001 -1.235932374953923 -0.40759775548960125 -0.24255247291907256
Ni 5.809899000317453 9.135805559889763 4.829594161708797 0.15081422657281124 -0.5363496029457344 2.3162531019463914
Ni 4.161216652352922 3.523158141546381 7.084375880411679 -0.7518599841453503 0.10002182651129225 0.08681869755745693
Ni 9.273894894219346 6.132778242292926 8.833126701448094 -0.14074115860752537 -0.23218912740687755 -0.6621963609399305
Ni 1.1736648636033669 1.7854584353406524 3.260106273729957 0.6104035446383551 -0.5910192265744725 0.2986822260331049
P 8.958658938469423 1.180609011163044 4.634967184077689 0.009467573170803049 -0.13726142758904103 -0.2348309359050988
P 2.7380443154114347 1.323119925163279 1.254575047666388 0.3745197419887098 -2.315282767613322 -0.5227451247884223
P 2.068118308388851 2.8316249706204197 7.414625366620219 -0.6210828787290723 -0.3033688328754969 -1.7832284496088322
P 4.766113315629576 4.133241657898222 -0.11670324940973892 0.4939677955454138 2.409017218454006 1.5112309319557653
P 6.790781100716446 8.78629291387248 10.55871713700452 0.29086761508469267 -0.3393223681519704 -0.0126372291480363
P 7.630682833924274 1.9523352766285167 8.621879119208844 0.9900207557546304 -0.7035438135384657 -0.3563973213563862
P 1.9684249137633882 6.022361572184152 9.460481777192923 0.7068358540261761 -0.14947956692178774 3.6022078315650283
P 7.424503062230617 4.599982852106629 2.5512779238614853 -2.0258721966901305 1.2284180688547488 1.1925190409652946
Ni 0.4566632048180559 7.321247839537129 1.8089305988743425 0.21076643875672732 -0.4367396671608801 0.502260117461193
Ni 2.4038465853046787 7.2096596397720285 5.873969390352762 -2.7974427718905304 -0.4502197039251859 0.02471498624817679
Ni 9.227874563929294 1.6571570423332809 10.643744680940339 -2.5557773295621016 1.2872976167997765 -0.6408806301812898
Ni 0.5572135167002026 5.889487434389184 4.4705269355185875 2.3257895806819167 -1.1344177659471884 -0.6569883343764298
Ni 4.661667667640144 1.0284140818584973 6.880318089047142 -0.38005327021242935 0.016842525478635507 -0.16514169893907688
Ni 6.117954613012473 0.38735021957068627 8.658855051595658 0.21837587567286906 0.42821748862248193 0.021755646509536725
Ni 0.09707634853834618 2.480336134479029 1.214284820090546 0.26643236486046373 0.1267687555878333 -0.9743329127057285
Ni 7.029244072697745 4.468951039174431 0.21773351053818712 -0.9970174987874378 0.022236442800697188 1.6043228641164435
Ni 9.318469708078608 7.647452714085399 6.642230195512263 0.9406787149863928 0.5290792945365662 1.7700523172381903
Ni 9.292856668576178 2.136596106365097 6.969604710152898 1.4224435407077114 1.4544853996346048 0.49359987068303374
Ni 2.1163588763340377 4.709133514360985 6.237406233204674 -0.4548739148677457 0.03826547123910184 -0.6688349493023708
Ni 8.164040605606537 6.782485914924069 5.004101062274478 -3.32908339939637 1.4239242390182962 -0.6746430713437156
Ni 6.88353979560204 2.364760954754495 4.903503511293287 1.5521492674366817 -2.2502582831128213 -0.1481806456047061
Ni 6.6971343107687975 1.8850101126689787 10.80960871594467 0.7174110584388612 -0.36943230016347345 -2.0672736424550524
Ni 6.100891850437265 4.30070426401425 10.707643120655122 -1.315412372758122 -0.6932493735909931 0.5353908385768908
Ni 2.442677124720017 8.719137810669507 2.1637387478946173 -0.03387402703962553 0.9458903410943195 1.9719926730628556
Ni 4.038924072744129 6.209088282890904 11.209800412199865 0.5946781634832984 -0.45637312512109146 -1.3119987190908824
Ni 3.366702245507937 -6.991386658722743e-05 4.780505179544755 -0.054282929713280706 -0.7878803681040173 -0.5085040414883758
Ni 1.5745830972018797 9.44810324367906 6.483680662604125 0.11776526653764234 0.43326610678998284 0.5259584895193974
Ni 3.0324572763021354 1.6895536164586324 8.88134459462574 0.23456868338264764 -0.4318771968622562 0.7366028008759637
Ni 2.6176318519446493 1.9903060644412285 5.324617404515699 -0.40228071415206207 1.9471159644258336 0.845222396358596
Ni 7.979127876303131 0.43073177378806093 6.556221023098278 -1.741876883245239 -1.286379218750565 -0.7839015859619274
Ni 3.114001409074346 2.792057501259973 13.319817911878044 -1.2899905902509075 2.2404477247803025 0.5673295962670165
Ni 9.166501526449478 0.27143397355104415 2.152261536390541 1.1885798538118886 0.9844440329978014 0.4804131967894306
P 8.909020093192492 5.260905086851156 6.5456432440400265 1.1253433144497458 0.16951463119579194 -0.26184603104136195
P 7.643484629765584 5.37635744491817 12.251977133174256 -2.4214551871070427 0.9013151255871059 -1.421732630683616
P 1.4302676496181095 4.673515233680735 2.8125828897952094 -0.8384308273580594 0.4270090701366775 2.4617616000355733
P 4.890815089289685 1.8780659651093012 4.942636380942516 -1.6774157274473758 -0.22031603011837542 -1.226438576530875
P 9.111524662980415 4.0594352895496515 10.500474162227455 4.448170962744391 -1.183634079770839 5.20101927894494
P 8.22656627710306 1.194761845237053 13.833784978184141 0.2291446841535989 0.026182829042954905 -0.49900510085900507
P 5.332198335130509 7.8716211346955545 3.007485743764743 3.029227207659822 1.2362527344078194 -2.5513766293912448
P 1.7715512445816795 4.30875380649159 0.0999390379404989 -0.8887971956257532 0.28018519567018196 0.6501512568499384
