# total energy = -381161.0968833235 ev
CRYSTAL
PRIMVEC
9.32863901326906 0.00000000000000 0.00000000000000

0.00000000000000 9.32863901326906 0.00000000000000

0.00000000000000 0.00000000000000 13.65340614921084

PRIMCOORD
 96 1
Ni 1.4837107118493837 4.736495204008014 11.940982617306512 2.043437973488036 -2.349887245061069 -0.8877846952008387
Ni 8.408014317087135 2.428935063326845 1.7042723891665057 1.1283625608920438 -1.552920084164435 -0.11212555175336175
Ni 1.2342629037219983 1.7565734039857346 4.153556945711341 0.2024491771402836 0.08562004926366544 -0.8626650173150755
Ni 3.9382715466394274 5.808178586411984 1.9942708583690194 -0.01680061649710655 -0.10091142820509717 0.0036437674001743698
Ni 7.886795267591944 0.2410343085705384 11.153084830499491 1.3554236230437366 -0.6167549407776798 -0.19614894595386864
Ni 1.3036120064003447 5.71309176860187 7.568219445531636 1.3977923178179346 -0.6838283373874094 0.6537662278947063
Ni 4.327033250300634 4.640559480044587 6.461078838972416 1.1039023709671507 -0.7889810573673638 -2.304402373255393
Ni 7.741818888156353 3.112537732720069 13.21330263688627 -1.511962925025783 1.4809816461529204 -0.40065603406444544
Ni 2.786884272214501 8.630959461680867 9.719368161032913 -2.142258323492059 3.015813248246761 -0.2540226783422012
Ni 8.942498691307724 5.6033496588482965 12.248498404912228 -1.8525747014131386 0.7715677469869229 0.5237098026945367
Ni 4.403798621021661 9.408119052080432 8.123708183431342 0.11841421297555088 0.060282856050457474 0.6212718548114268
Ni 7.896039948887914 4.760012703046501 1.674453394451502 0.278005928630676 0.7371728144468207 -0.8104369132482945
Ni 3.1727261118538723 6.8906458755547435 5.94926678909262 -0.32249141263756076 0.4338345776989431 1.6443963350985615
Ni 3.1261388884511736 5.578908624544118 13.495354038484306 0.4203370574331406 -0.7328122234852799 -0.9815494850588257
Ni 1.2903933248701838 7.143694538354425 0.34595817625613184 -0.7451686881681037 -1.412145501215813 -1.6879387384658866
Ni 1.109408398711642 4.831861880989549 0.7665818465837213 -0.9719489858545841 -0.5178831687104307 0.8436239415232245
Ni 7.360352180230211 8.497839782474516 7.0708807791338755 0.20067485884868022 0.8246083196526702 0.42390600573132153
Ni 3.6465650036273356 1.1714065338206399 11.530287417517068 -0.28496719043985763 -0.4341752488678135 -0.6606472712852558
Ni 2.812276827701514 1.2590957408661683 1.177146445426503 -0.18529991905450666 0.1634332008884024 2.6660002649761116
Ni 4.856666732216577 9.042501701895816 5.704898424926542 -0.9625166367970908 -1.5356271014119425 0.8163779613230777
Ni 8.75600053947217 0.7824368015086766 5.561332535714917 0.728387612055023 0.7764942377542626 -2.129257540357017
Ni 7.1565027597665 1.8955794544309914 6.631008394995888 -0.15814624145785022 -2.615198351832896 -0.0663437175325567
Ni 0.18575652503128504 9.069955886612304 1.2339979703730521 -0.9801394920851765 1.394724220415572 -0.3811992108914145
Ni 5.404612332582559 4.4164389269308835 0.4014234654402378 0.8936822916321963 0.4694572119985593 -0.2614192279165885
P 3.638262514875153 6.27183060434569 4.026184641022093 -1.1696300521822631 -2.1883885421912184 0.3914969932729967
Ni 7.119710607363569 5.573619286204242 7.3360025665886965 0.9298489713607406 0.8277365808690067 -0.04782688967529183
P 7.527903866160502 7.008541215835742 5.411268316542877 -0.24456204714993363 0.5831981878681569 1.402209987269656
Ni 8.598477140517831 1.9941271973276895 9.307949991717296 1.3696117416186606 0.5923677701825669 0.4476815108843645
P 0.7655799507500308 8.237225593407398 11.836875005537568 -0.2207801142389875 -0.854909798849689 0.1252176090506295
P 7.199060011100723 3.416884581641384 3.1149697089197255 -2.244673847046508 0.3161382167260233 0.9249049970919038
P 9.36035642015776 8.89470807346791 3.4647022525344338 0.46442119223654854 0.038101691967727926 0.41636007506326356
Ni 3.616498799977576 7.729728971950927 0.7244807656989156 1.8320475279940642 0.35112964519954365 -0.40036601362785246
Ni 4.555612892878993 2.1337769238672166 6.853941412358858 -0.92082619903684 0.20794208193405478 0.2968374595148824
Ni 0.46929118023785765 8.890780716428957 9.841853191725232 -1.173696508942153 -2.093633877616136 -1.6693771734136154
Ni 7.355809133014128 8.987779905243787 1.765372176335239 -0.6151739694438051 0.7213348189732997 1.9116306270350305
Ni 2.605666130079774 9.020066324986827 4.414760704766256 -0.4080698100300133 0.3932916232795743 0.3268322061047597
Ni 0.07263558221474424 5.516714588015123 5.724176990381892 -0.9687258509315962 0.3276122788038938 -0.21708852432001322
Ni 5.458196035270805 7.25712146053172 7.491609863082701 -1.6350668301675193 -0.4635159068134598 0.38921848165146516
Ni 5.472338252066659 6.051012389454765 5.14058945880752 1.1282782287083535 2.2389017204494213 0.2602532326329453
Ni 5.111954268387633 6.107217439715329 12.204970975117076 -1.391864896589906 0.13172121449710217 -0.1317582383826247
Ni 0.8032760482766559 2.8212603071041573 6.301907069498402 -0.5845647291983804 -1.0990764103334167 2.5928855472683083
Ni 5.750154451537177 5.595868090332284 9.441808499136199 0.9976057671907399 -0.9337053689923532 -0.14947905270115547
Ni 1.1502678377392392 4.070915465254361 9.351777803689775 -0.09977860015223461 -0.21920557066301605 1.0149105770177747
Ni 7.8235377662115475 7.533612993257509 13.409351449378548 1.4331565562498416 0.3904438694181341 -0.08766227650467484
Ni 6.34199129862116 7.095540103591764 2.1617982898377863 -0.6004235506075078 -1.9910664018648547 -0.19917333460248923
Ni 5.160257961375051 4.427847852485849 3.527971881145592 0.405459883210992 -0.9217332842321416 -0.77378943722859
Ni 3.6338407399666863 3.5686242243863373 1.4352736193235864 0.31334317047938937 -0.2070195701197854 2.366630268847363
Ni 0.8456178080488844 5.055935790908016 3.2146667401470626 -0.861572298471529 -1.9989303779939638 -0.8171246096811153
Ni 2.2095627874882666 0.5590457479684794 6.612303540841953 0.9642536740928556 -1.2751111020359136 -2.5426726738593435
Ni 3.7578463388237298 3.5778036052089752 11.641371918429561 0.38870400390889187 -0.9738086647711421 0.9852888974965999
Ni 5.213571133530923 2.2936697971395947 12.865672768512844 0.3935032250697481 -0.593961597032248 1.1511682459326495
Ni 6.537920704533631 3.927273081202547 5.748097486627226 -1.1300674593982925 -0.37620792832441013 -1.2590990428783735
Ni 1.9054771404602793 -0.11375622313566851 13.326994492412512 -0.16940021710511471 1.569872652858374 -1.0251510237988604
Ni 1.9158972302762214 6.528983868326225 10.491222554406225 -2.7743110709690737 1.91973962929541 0.08215600197446496
Ni 1.4859868997769483 6.919303454708347 4.132353882020515 -0.11068727664493842 1.024028480158643 -0.08898690885336932
Ni 5.660347643427889 9.178643860153523 10.932459718436846 -0.8219390003506231 0.21077800872095315 -1.0871742595791922
P 7.119365447718814 5.5923978366066525 13.470218020571096 -0.9402004897983937 -0.7451069816922329 -0.6291414873674905
Ni 8.691950103772745 3.438209850503732 4.648588639672681 0.755962179239182 -1.5310227698707115 -0.2517796479442954
P 6.7243628845349 8.270519506167556 9.206942286703798 -0.29333690256079165 -0.5259911425295458 0.2646405630673636
Ni 6.4283838248391 1.6210189499880145 8.784028435490075 -0.9749687465175145 -4.717772983582088 2.407083748876719
P 8.045540718261492 3.5822813519517256 7.3167240011333465 2.664967709946539 1.5065936902940698 1.1156996207123946
P 9.176516930450715 2.9666005034625966 11.500755744884724 0.2904598381233126 0.20888079169824028 -0.7413853098662716
P 1.080480289025665 7.75834923654834 7.880909829216941 -0.18841146810029485 1.6228021538675534 0.9801212372527314
Ni 0.17183259838914083 1.7452670934602899 13.388475820918284 1.5616044993123106 -0.9804930187698534 -0.6191118710456306
Ni 3.7108579839419926 2.7317706727224818 4.554407632714069 -0.2549112515947416 0.3195261593616497 0.5706725445973204
Ni 7.337329099061236 1.311587992785869 3.6304133979806728 0.5785668597437327 1.7273900024829734 -0.1404508810606162
Ni 2.10008187962802 8.389711527276143 2.0729010240356205 -0.3196953379496623 0.2950801105041434 2.8605906081936086
Ni 1.986216511415497 4.28379500831595 5.176156760903529 1.5100837057251992 0.9236952930545188 -0.23669549991766337
Ni 6.0473369056700905 3.513594582645744 8.179769572650578 -1.3713508357969544 3.7927682276875263 -0.20153874951087225
Ni 2.776772027487123 3.7960098011666292 7.75688277449009 -0.8253729657328367 -1.6658689031500404 0.48236183587536924
Ni 3.257570083989944 7.864462505712477 12.08939473450326 0.325073314432124 -0.6891698042049808 -1.53664602959476
Ni 4.282143839204561 7.936908716554559 3.1241584183814113 1.2738494617146707 1.254167152794395 -0.7972443258174206
Ni 6.250160175838587 4.3592077263751055 11.578689061214485 0.5051816619833622 0.7992269034650881 -0.1603933856208141
Ni 8.882021124363451 6.813675274774676 1.9472759734399494 0.21820181198885 0.8214124384231919 0.9572229924983192
Ni 2.2979889570185392 3.004502763912169 13.549749332769675 -1.2770988218899038 0.050790857399622205 -2.92678725862534
Ni 6.735342692693685 8.670344975738974 4.171402632209011 -0.4905736822622004 -2.5383555345412283 0.5100981254483731
Ni 0.0788745760096431 8.019942932715436 5.885054967937674 1.526404297262094 -0.9809540175666718 -0.17934190169885889
Ni 0.20826093386922465 0.5214559969269947 7.683645495056788 -0.7680623049368256 -0.3497016545037655 0.2944201083226413
Ni 6.7623211168187565 2.323344197949363 11.122610965323359 0.8850742382482113 -1.611900162243069 -0.9678372776790557
Ni 5.973370126663283 1.9923360986305894 1.6046434570042143 -0.6142208615019163 0.03800399004759907 -0.1379967630931688
Ni 1.3242842705293756 1.2442911906979497 10.897165745464926 0.02706291765506307 1.8069633313319269 1.4269897653174972
Ni 7.666909916605759 5.386598730582036 4.156056088112139 -0.7565046820062132 0.6177939235651553 -2.3381892398978503
Ni 7.359456630881661 0.4539987422474604 13.41579567323249 -0.6800225904880741 2.277388306560394 -0.9013333804195508
Ni 8.839762389478745 6.459047061387893 9.064523820095005 0.2529618411778547 1.2405912138821733 -0.18297024248006555
Ni 7.239471675454046 6.64649673440628 10.966920643941833 -0.5386995912351497 1.1039170262551699 -0.36989227051902746
Ni 4.307937526170614 7.272476400403735 9.839340989229767 2.0650077292390114 -0.6892945027083032 0.12969569942664116
Ni 3.4688264438572878 5.12171202483121 10.225896469756265 0.7900503791721426 -0.7711286025669751 -1.2359873965615746
Ni 8.27820630474261 4.451579910222426 9.998280475591502 -1.401758244444218 -0.8399881445428501 0.32522783773211733
P 4.169192677618684 2.1450832343926614 9.27258791968033 0.3266745974809729 -0.3113531366325541 0.4158512537476451
Ni 2.203974932698876 1.591325891900151 8.464128879548939 0.05458014923872535 1.0906799587396054 2.4254445107720937
P 5.680152344125513 1.5097749293478098 5.145996337999391 0.3479018822908653 1.2891938053812249 -0.7777772182317444
Ni 5.507143404352495 8.145133268731499 12.95629023535535 0.9743663370468252 1.360760718985934 0.9138158291572779
P 3.7654771655645 5.639498135156958 8.11146154608992 0.3504135929691255 2.2736725482717035 1.4240389102192894
P 4.56648075736921 0.49056607444935035 0.4563840752518797 1.7646144340520706 -0.4537788820313539 -0.7799127765175085
P 1.2457744443064858 2.779831821094669 2.0600396293809746 0.33810289392257253 0.6558197679896254 -0.12637331992162754
Ni 4.54956793477628 0.8828185548420926 3.5426906078345746 0.09700643672373617 -0.20216764134412277 -2.0542407205304944
