# total energy = -340861.62274046004 ev
CRYSTAL
PRIMVEC
9.38411519317332 0.00000000000000 0.00000000000000

0.00000000000000 9.38411519317332 0.00000000000000

0.00000000000000 0.00000000000000 13.73460114610881

PRIMCOORD
 96 1
Ni 6.970952543883162 1.120923193251764 12.489312537170989 -0.6158141741309652 0.07946482829554702 -0.05405847240730045
Ni 5.037008365801501 6.3637908972676 5.520663793603805 0.6039601030058567 -0.12980188598720227 0.5098327876021284
Ni 0.77678797709049 8.922670236418847 11.370422881713411 2.391241125417508 1.7432107715653138 0.16345505526527335
Ni 8.936051984893737 7.246779846072792 11.787048512053381 -1.8217021802039983 -1.7892024078040798 0.4446612360008019
Ni 6.671655569228107 9.011659802188394 3.7130945583948525 -2.1603144096628215 -0.7873368368957214 -2.8175153742706898
Ni 9.166554009991001 5.668446718801734 3.9409380636162847 -0.7087713804859922 0.048396903246148905 0.1046626677174133
Ni 7.424730825265863 6.42938586349444 9.099049376292465 0.12482114494315923 -0.6841900916022023 0.23084315490194435
Ni 4.212360462065303 3.3196871062291944 9.19905120141354 0.018487003060593966 1.2921721712832583 0.5798377560363561
Ni 1.8787843481129387 3.0543887814510833 5.161339448353151 0.20254353662630276 -0.369739289880931 -0.2178750247770506
Ni 5.66752707549841 8.045264836240975 9.060593271629003 -0.19397610667226592 0.787851828858927 -0.5657154577023612
Ni 6.526727291916616 1.8948405694597374 4.735827999197701 -0.5292896107751595 -0.3472575638386471 0.5290474128573662
Ni 4.025119208685597 4.207368112704405 6.005688363834218 -0.8600838868514606 0.4656725481451464 1.5730109413770392
Ni 7.301676920811993 0.7988575395471829 8.136707409760406 0.30651534892427856 -1.464497275344652 -1.2021349667885037
Ni 4.761809799339654 1.0688413531145733 9.059507529484161 0.48772001486348904 -0.3982880480529012 0.5137886869260828
Ni 4.588841785392141 7.54374017600818 3.6259893229855855 -0.5823422676257649 -0.7686770557026892 -0.9476065524544777
Ni 4.190776996783224 0.27172362855143284 4.850593852983254 0.5740998251113145 -0.13354901173446035 0.5151524000428289
Ni 0.8882853435031083 2.3341016244114057 0.9433175495032057 -0.13993794597993964 0.4548988545684101 -0.3482314977161422
Ni 6.942668820248299 8.637590196503945 1.276037927764862 0.05629764615046434 -0.15808376365103097 -0.6435746320736851
Ni 7.0366507353787435 5.263775512993432 12.358999081090067 0.9015511528573118 -0.4013360908506056 0.5201423970582526
Ni 1.9052100169104755 5.700812532609512 11.087009460682895 0.9063300623031939 1.4385167921204904 2.7909306818036255
Ni 5.229542260232987 2.3153990825387174 7.0592692685828276 0.4858243405026729 -0.5368774504247463 -0.7170354202669974
Ni 3.5045072578511705 7.4655235746489925 12.19195807439132 -1.183689872709439 -0.47285621037777914 -0.5959133214419802
Ni 3.587096856958813 6.751589463694519 9.780519140228089 -1.1820618501877127 0.5524801899590098 2.196952115490513
Ni 1.579271538805062 7.253893005500538 8.480264564416734 -1.5365776382506697 -0.2268828847026157 -0.16667639041604845
P 6.167662886660881 1.853663071347667 1.6320966008771836 -0.4116711542280265 -1.7999190228906354 0.5463517084637687
P 4.776242568732626 5.747385897042102 2.1696684633656536 -0.3719411826282562 0.15299812159800746 -0.46449652555917414
P 3.0086693715144355 8.240698422312532 1.304703584894065 -0.8580748268412319 -0.3784489018397869 0.11743102312667517
P 7.527308590047779 2.558419517499587 6.883232648919123 -0.6755948937340236 1.3442524369182656 -1.130160276222415
P 8.979950876454417 0.5112578646634799 12.921252105334363 1.0753857515846963 0.5332953895004428 0.8687603315795359
P 1.098298091166941 2.737064921227821 9.675737985164334 0.6841906058228345 -1.2719003084080998 -1.0006219283092446
P 2.89794619461737 1.883251187014795 0.6223667287010206 0.6490677939777725 0.30949140083346705 -0.2758749983306023
P 6.712119874574335 0.20016881067213688 10.086307107463846 1.0774380061280349 1.2775001710933804 1.5862225549713067
Ni -0.09416865902571077 4.173819900363781 5.907801718310786 -0.8217741926379847 0.15867228916464932 -0.9326658719842452
Ni 2.6105764305594983 2.1270505035488876 7.633279650936651 0.7600006109746137 0.2080986621165771 0.14150091959168534
Ni 4.8646597034664305 8.258134108614316 0.06805360444592916 0.8528254055168344 -0.9810756307462006 -0.023708656470849493
Ni 1.1513652634148355 0.5686914657790921 5.846503738498147 0.10675194614627422 0.055707320864633085 0.2259061226116432
Ni 3.579655253494166 1.532848320217912 11.405460353158496 -1.8332289498966752 1.0138060310996861 -3.0813702082119643
Ni 1.2471864651519262 4.188186980949374 2.5732877098443376 -1.4033538710661122 -0.8704546885628235 1.103145695306784
Ni 3.21204191916366 3.807933243255842 12.985104441342557 -2.472631709980858 -1.6104181783809042 -0.8621004030608571
Ni 2.019836985788995 4.758750577738803 9.141805282604729 1.5186315952952103 -1.4549042323395782 -1.5089418788112723
Ni 6.76005393573123 6.301705590177932 1.1853442066495659 -1.0803047861528685 -0.6540613905376219 -1.3969428253334457
Ni 6.959654069013761 2.857228518156961 9.192692524859133 -0.406379566811784 0.6751992009575017 0.4610077956796254
Ni 5.135194364604281 9.301694655002835 11.575948145421638 0.7867544820296901 -2.6461467205852944 -2.495255875138277
Ni 3.644809166300025 6.251003214995726 7.675307349898529 -3.78920622136788 -0.6014018553603773 -5.304216160750103
Ni 5.463234884545862 6.831898722774533 11.179746103707718 1.4608041427637808 -1.1074947163040991 0.1615742933027927
Ni 9.265218598676123 4.660020300246302 8.23095395694344 -1.7226715139613817 -0.30725762640694176 1.213796205176516
Ni 3.2149040743423707 2.1942595376142138 2.8077648461996403 -0.9285397656310138 0.045790318861237266 -0.1252795726368165
Ni 4.614319658540334 5.521651002537577 13.310106384737036 1.3864064445784963 1.5000193795106618 0.46340843470131804
Ni 7.885781796037092 -0.028595276264152692 5.285472526071126 1.467862335162143 0.3718524795691919 4.823488518044047
Ni 4.788207315791171 -0.07911090755109164 2.1460861815161474 -0.311090884110103 2.186920442286124 0.3042453219431792
Ni 2.050682572911688 -0.09735644300672044 3.4621361002678475 0.45046447294614034 0.5310081361281629 -1.1631832681156549
Ni 4.60228922267441 1.172282456507772 13.195792845310875 0.5762618657596398 0.7068440815562923 4.650851796279507
Ni 0.15256600878674456 4.279100290363627 10.883531810941864 -1.8145234030673718 -0.7312824171043147 -0.08135227512624699
Ni 6.703373879077422 5.678900623290532 3.352382302485408 -0.010108034968279367 0.46961893438740415 1.235858327182878
Ni 0.2667960295863808 2.355441102694644 7.377143037965015 -0.21872220326869427 -0.6855023826557226 0.72915354368677
Ni 1.5073422947236987 6.60980486502194 2.577971321810548 0.2581017335075813 1.0327154664096796 -1.0791267066843673
P 4.039232918157008 4.898874187996197 11.168236486243165 0.2708513198637658 -0.20670178176905046 -0.25272221436322284
P 8.553330224865775 4.622146010733923 1.4821966192585425 0.2109782976572173 0.28804968601992326 0.9305022886740232
P 2.95265558704977 8.66902698289306 10.54178766736923 -0.613290379267847 2.355269335308589 -0.3055241886556028
P 7.335187596691256 6.0940538859336515 5.6740931410018325 0.48658024483209106 0.42915979793109316 -0.20698331756521127
P 5.074225767240078 9.02437527847414 6.920576735914789 1.3184971823310325 0.6386908216188227 -0.07077758493419424
P 1.6064760891758219 5.282947260633122 7.023394734049411 0.9868714114923712 -0.24199917151876388 -1.2383584678969124
P 2.722125409606486 7.895409898375966 4.936009947631313 0.5618531465334775 -0.6058768604125953 -0.013115197225719346
P 8.70214352592804 7.914910090052558 2.4700859013923098 -2.1917124643581287 -1.3684683720428368 2.7729468436316953
Ni 1.4595208429508837 2.3635302101177533 11.929174692524338 -0.26574973697114235 -0.19233599996568165 0.16256159691672648
Ni 0.7697151693587062 8.521630683247139 1.3059432265304833 1.7189601265480656 1.9517781457881935 -2.53773512734841
Ni 8.760062285806733 1.4748075668397995 10.71598312360322 -0.42046972635626295 -0.4132541824444302 -1.510898488317011
Ni 6.500864670039482 4.254504524057397 5.159897109825387 0.8778514952475268 -1.4811194572823654 1.1478972884908618
Ni 8.599847284606327 2.8387042744757336 12.602210952003874 1.0978535936699094 0.9654572074826535 2.5994953392753426
Ni 8.369786312930044 1.0284239683450453 1.4430535973521914 -0.45174051144508653 0.6605932781188688 -1.5483322076834367
Ni 3.4164936400769887 8.669796480350943 8.182759955791626 -0.40176906462296613 0.424956558483023 -0.08118412497949888
Ni 2.789766112977454 4.989552894526948 1.1445843016701267 0.3965474112127106 1.3081153248760762 0.5432586713607418
Ni 6.1796088654887456 4.726685055621905 7.516576915744916 0.9483138629341473 -1.2292246239164444 -0.7085091279635412
Ni 8.948908222909584 0.6641607631909316 3.6158807539413003 0.9225431817279466 -1.9451508702796632 -1.6906941897238368
Ni 0.5551135892935964 7.842201964397972 4.751334311385573 -0.37446292060884545 0.07802861006965271 -0.3506714746162025
Ni 2.5588324185745486 5.64255594457858 4.377863412259819 0.2579479815385364 0.1747231719799249 1.0809179942568352
Ni 5.387739676635286 3.2407385438734853 12.790196365730043 -0.37688541400740894 -0.036099831046350735 -2.0206112054015075
Ni 7.608997314082778 3.10833806054094 2.8369503833186807 0.5910845325947691 0.10845478776999386 1.0181951613063176
Ni 1.5542253349625104 0.5234572146055245 9.072707226121453 -0.5147070849752942 0.3148477800493739 0.6201619095766997
Ni 8.96694449259313 6.44043096724966 0.3548481222334572 -1.5417329571993643 -0.362937179357433 0.7953378528233271
Ni 8.90719583022313 8.473405714514703 9.507956571765257 -1.4559218749708152 -0.2739623546889217 -1.2519883999755212
Ni 9.275325290897339 6.58811817447112 6.689135360871989 -0.4932936522965246 -0.6763178879429771 -0.3123563810860879
Ni 1.561535560812397 6.660263253205304 13.264341931046756 1.8916210166823229 0.8517699676691265 0.5618325777081872
Ni 6.884506073370766 3.5131594121946828 0.5735655752867059 2.3581098900811774 1.0557792902076786 -0.04917903282781208
Ni 4.712299206805633 4.184621017120161 3.767689464620104 -0.6219025464168902 0.4799681388322121 -0.902317084489059
Ni 7.288107490030304 7.932908823274744 6.9730292486079115 -1.4704630060097836 -0.5232894273276665 0.5438065734444119
Ni 2.3100782891409177 0.023248207343401116 13.126982881168537 0.22196025059001775 0.451977310046241 0.8111169700344547
Ni 4.72225575318141 3.663408482903973 1.4316265601026317 -0.38046927470392533 -0.9982809388808936 -0.32424439077292544
P 5.187079138319331 5.987516024478241 8.715689496421382 5.0315213599196955 -1.1058960043584114 2.6129735762674353
P 3.9902853725433896 2.4378711718415054 4.831270082675054 0.6578781931805509 -0.7397495740350616 0.7490757365319938
P 9.487903655695138 6.224070803969828 9.930309327697252 -0.6235449671163197 0.9491494714615654 -1.021157072148119
P 0.9634108172692873 4.618176529945088 12.969281884467726 0.17366850546316542 -1.009482464023668 -0.029583627194387757
P 0.27701626960321224 2.467966029736996 3.774612126506448 1.472661299212683 3.0490460421579617 0.2983235571421056
P -0.0077437719785963515 8.665583012563268 7.240662341282624 0.4317532696898822 1.0950222948687012 0.28957486441519803
P 6.990771795481315 3.3686158836121334 11.405377772943504 -0.06701734656081361 -0.9905974541937068 -2.0650203276445014
P 6.861909123631963 7.321627550024906 12.834930443555988 -0.14673594273837956 1.1022956886016628 0.8506001157307415
