# total energy = -381171.0633088595 ev
CRYSTAL
PRIMVEC
9.22223573281732 0.00000000000000 0.00000000000000

0.00000000000000 9.22223573281732 0.00000000000000

0.00000000000000 0.00000000000000 13.49767419285048

PRIMCOORD
 96 1
Ni 6.469278523639429 0.8651010513217213 9.441731466152635 -0.7076596354790522 0.780383802616656 -0.5030563881102433
Ni 1.7538018040520122 2.505736799889342 2.203441132647644 -1.64001054732604 -0.061423911633436155 -0.5468129643709034
Ni 1.7577858099169994 1.022321727215936 9.745253690755545 -0.14166624152495602 -0.056228997696058 -0.6329456916049293
Ni 6.341283112990919 8.891249755770257 4.787854670581843 -0.5336887682841195 -1.1959314090809532 -0.5530581739496668
Ni 3.925795112626494 2.469613302266299 2.5647065422562108 2.0396368545743906 0.0939239411436705 -0.7886614692444159
Ni 3.529312751173885 5.591072675247924 7.598745108586863 -0.22632058444124248 -2.08376341257996 -0.07845001387778747
Ni 1.9387629652283596 7.436580392081028 6.099032500810204 -0.013095913952009704 -0.003715758288690375 0.46642485293013863
Ni 4.272007066741036 7.3449759238937204 6.660481294004256 0.8378111914961893 1.310980305128697 0.15055814469794715
Ni 3.415547250362586 5.421116091715868 0.6372463492225923 -0.08458749423409302 -0.14933532803443958 -0.036436902670795315
Ni 6.564129218827838 4.819770984233573 12.29536881153124 1.5454471728261578 -0.1837783402036577 0.9905545167709136
Ni 7.73033626897324 0.1853282061611309 2.929818546416365 1.1339721937693372 -0.1274336428653418 -0.6115232600650952
Ni 1.6453021998817028 6.922219412650953 13.431563017493739 0.19148625037087666 -0.05759271081280403 0.4432563852334754
Ni 8.865501273420618 0.8439931980259283 8.169399537555059 1.0885320591586671 0.09320223248629755 0.7622567539986421
Ni 1.2751862105772378 4.551514589324439 9.686565226580532 -1.1993730877726505 -0.9271228306788292 -0.5537127768145302
Ni 1.9985691643821595 5.030969406256884 11.783820614019731 1.5066597676453148 0.7427729342424176 1.1220088507598742
Ni 0.3910200311891093 7.629694009703322 1.820525602278328 -0.027333397707630346 -0.04174340248537327 0.8579616983021353
Ni 5.719888864882508 9.21073567054051 7.225264847663076 -1.0573209236631855 0.08102600213507981 -1.009042805383088
Ni 6.645460116335527 3.1200391486686434 10.391157874945845 0.2351520666899434 1.6684078675218106 0.12436323147013421
Ni 4.985254783403317 8.074703775928066 10.022698199190806 -0.02063927351690639 -0.6109781861949026 -0.6901789621957856
Ni 1.1230469866080413 4.578987629768413 0.6337603440907285 0.3487228355302639 1.729912254684195 0.7027537135370026
Ni 6.392521855087836 6.548838751873791 6.296921392129002 1.9287246064028394 0.5903168011908092 -1.2991807413906076
Ni 2.534630064646297 2.2147107047935104 11.803715743308013 -0.20057535715633842 0.7620037574475715 0.049321729053263444
Ni 5.742787676370385 5.577156321427865 10.351042071445596 -1.13646513539452 0.06804578782532797 -1.115834860738678
Ni 1.892587230584863 0.6732471911095143 0.25964836001473823 1.1531289692034463 0.0032956400321362597 -0.15317398505423943
P 5.173010282026635 -0.1549649170178817 12.432505302303305 -0.7158421712898446 0.2548896543281868 0.17927582434761383
Ni 4.37222510316422 4.1163726154041775 12.400205343642353 -0.30439547436779835 1.5858633718596753 -2.379002417259471
P 9.089666158976733 7.077743197158228 6.711448902368696 -1.3624219087384408 0.6789278147619985 -0.8644246803186597
Ni 8.788772271576422 3.2372906546118068 8.18771582007462 0.20633565667888334 0.8061323723356698 -0.3790592817302762
P 0.35519256733520066 3.6413168049476554 4.328690616853437 0.8812525505092758 -0.37392581715845274 0.782411374569646
P 3.1976903740926987 3.2047361622428148 0.26489950107845045 -1.8726838134581876 -1.5521610945112234 1.7799160974061476
P 3.728835822676192 3.9168034327228773 6.162268449457497 -0.4869288864207614 0.7126192934771727 -0.18677033295244608
Ni 7.568928698026469 4.7212129502541345 4.139021504301914 -0.9639076036073464 0.10090551466782623 -0.5505755167371292
Ni 1.0129888245877716 0.6709425543834487 5.831211395430763 -0.8839013009860326 0.19274789069211967 0.20897155163983366
Ni 3.783339236245808 1.7702727171882784 6.382591351579924 -0.9323108026376717 -1.2270533272967383 2.8912708108862852
Ni 4.01208757299382 6.6608059167043665 12.009285834823448 -0.4838643885628247 0.0978513012225347 0.1791380132181689
Ni 6.878247792363317 1.6122681512511845 1.0104794542269777 0.5648052871832661 -0.399559458566157 -0.6329323218684906
Ni 6.312721848722712 8.442136094615144 0.7625839115139516 -0.09393525399758015 -0.14859176500019572 -0.13431571469715578
Ni 3.140189733888544 9.134596891787423 11.475547093533393 0.3121802605195398 -0.4549788158767261 0.22840832020820662
Ni 6.8758038998766935 2.0368691096536677 6.888713185547547 -1.3698433980134923 2.3914802380115074 1.9372565551332506
Ni 5.841050598804269 4.639208829533149 7.5726673924192145 -0.8883038009291024 -3.0787746795706457 0.6062897795802977
Ni 8.48148737476769 4.410626493029512 6.183486969582873 0.38782828617215787 -0.6734014856271306 -0.5100042801829863
Ni 5.130541886174168 1.9716494580861008 11.71895048518893 -0.21673808295912994 -1.3795770803614884 0.2121718037446862
Ni 5.473581391173998 0.38177105090671204 2.677803430972113 -1.0726614106749979 0.37420195363797487 0.9946392283632483
Ni 8.854102589973571 7.604766306339757 4.327003869925876 -0.9870896981507645 -0.020004211036068774 1.238148151658319
Ni 4.197316179008325 7.121309039070727 2.5131182774225262 1.3974943269615416 0.8480508669463266 0.23299851068205032
Ni 8.82927633120379 5.516575454466984 2.536577800846958 1.9791441965059722 -0.6574999839055258 -1.5553387209082568
Ni 6.266666003144597 2.9639712522492516 2.8539343013713188 0.4119694021947356 -1.0103358131628986 0.9451709464297916
Ni 3.0018377524382265 6.103884319063837 9.766322810660983 0.18886346803604892 -0.9830399535614232 2.1930275836251263
Ni 7.429765159825878 8.091866356749227 8.217046218808429 0.16096674162578084 -0.9301636743876819 -0.09284690602940784
Ni 1.6089204796562995 3.1418958475112815 6.353247119492419 -1.1665740389647588 0.2896252580371592 -1.4386576885737286
Ni 0.6777596310857601 2.5969354897015124 -0.02962643250294256 -1.4361791451262491 -2.000050093420704 -0.3729189731604933
Ni 2.5951463759565883 1.6995473908489582 4.404642184219813 -0.5933393900672169 -0.7413017490135297 -0.2014320487296789
Ni 1.8204047909893668 8.350974293746168 4.0613555233005805 -0.2454166818407451 -0.5598528282739971 -0.8101052409404887
Ni 6.295614601316344 7.343832366654696 11.934873458611856 0.9215047131611033 -0.015817169537914694 1.4561008237508406
Ni 5.80171776312332 3.872001811213369 5.344390778765991 0.3874444204701779 2.026415985008742 0.37722171430090523
Ni 2.169189748891713 5.976423798091645 2.469804202547329 -0.45050535348640475 0.33959130554264094 -0.5043761353629314
P 5.807749105335592 6.115070891087517 4.308767820857761 -0.654885429100814 0.26179152365434266 -1.1952919757247416
Ni 8.550488143012675 2.7010453096316973 2.7411482020018285 1.0963505267618214 -0.5198204949424596 -0.9478760040657804
P 5.775139279551809 6.524805605382688 8.374982540200614 -1.1283839010482823 2.2204622827973117 0.9993124654692015
Ni 2.7564156133663795 7.817394174911848 8.517140538365007 0.6479120831067745 1.0048609060912563 -0.04742091248612479
P 2.4042460949259543 0.17810903997800145 7.29732832041677 0.05248367172101283 1.3783756038542199 -0.11228830258347114
P 7.5758822638186 6.551439422368991 0.5634158960898896 1.681503267253188 0.3068051122505555 -0.5890929560860371
P 5.274371875688842 2.573446455122526 8.779116590695306 -0.4465551105894051 0.5185506270911004 -1.0186654160745168
Ni 1.1019003999218944 5.652308320950504 4.387473147833593 -0.5169249185622194 0.5665718921653855 2.0250209044334286
Ni 4.1560282293380775 3.865278801316203 10.104412741707716 -0.40937258800183685 -0.3459383308065913 0.19494644100533523
Ni 7.145895519709745 6.98873939946612 2.6705280091506123 -1.6212090983488208 0.9150137061201209 0.8907309223133563
Ni 7.652934043915747 4.04315728539924 0.9410609187003163 1.5665852403563536 0.9298276312045018 0.10123744408594823
Ni 9.172491058683793 4.073609108006155 11.822032948051154 -1.4281015103244372 -0.3272464108240429 -0.5505253802254841
Ni 2.970657373203223 0.28183613712254507 2.5753019689652006 0.4261667767410402 -0.26256028349956717 -1.142875666906554
Ni 1.2082788898585302 5.603725582763577 7.470517297596229 0.4171797427510815 -2.4637542049855696 -0.6484394163651542
Ni 8.712762604124514 2.182322212668893 10.150480576192368 1.1677608601840084 -1.1741803905571069 1.707280119106976
Ni 5.683811478438457 5.866513191844152 0.8770318577743459 -0.7235696218410894 0.5560421962786553 -0.02357778731994004
Ni 4.075130776912922 0.7376921748700006 8.704663636646199 -0.9346129684082871 0.530004634564313 0.5143718131230625
Ni 7.85885734706227 0.2405592541352547 6.250381379171462 2.012860100701179 -2.8065208229323986 -0.29519298193292387
Ni 4.824898547337584 4.7182526125627895 2.824064401843293 -0.5405713543365658 1.1268823768020915 0.4464959752166956
Ni 7.52556574530154 0.6433570026627322 12.113730421913122 -1.129666624415448 0.500380383939977 0.443197764081398
Ni 2.7825883185627536 3.255596792671991 8.326944836149384 0.3568809458610241 -0.48383430665583765 -0.015439731593837923
Ni 7.919401325079956 5.6034581379254185 8.029482542689722 0.9150232192018177 0.6105207869425099 0.32711065657712696
Ni 0.5335939521880171 8.892310312887094 11.641149859544939 -0.4012401887026896 1.068905028956359 -0.1644973804868586
Ni 2.7653888487983993 3.9384480201421472 3.948191312263349 -0.4827248756417429 0.4494303752546711 0.9166566410401825
Ni 5.09281371952217 1.993164934204191 4.73931712135033 0.5382576186017246 -2.4922924216345788 -2.507060323972373
Ni 4.035023273424891 8.805178629062096 4.957682142812719 -0.6457479855759201 0.7456127176840578 -0.8649766961673877
Ni 3.539927544578052 6.086795516129066 4.5008937370260265 0.25740625010245344 0.8450663303967059 1.3102506260515243
Ni 7.745008846128783 6.807771466390559 10.250903346250281 0.04803000682503342 1.367267152645884 -0.3486847832034769
Ni 4.349326291676342 1.0216853929458338 0.7110159355990242 0.46217713339737826 1.2331872081086181 -1.570566850711921
Ni 3.3613758372817184 8.160286124138901 0.6166032966110477 1.4342510748656008 -0.8732206813437349 -0.43818976934384535
Ni 5.4575992565350555 3.5258820794568124 0.764790792540552 -1.4454937376589556 -0.9413572291106562 0.14828297551052527
Ni 8.993127794637186 0.15984624642607081 0.5254248957176337 -1.4954554142890633 0.554809866533451 0.09787984046762499
P 7.501043820313113 2.7856501008478824 12.688380845652842 0.22894979453397343 -0.28647025734794535 -0.39838574997303
Ni 7.6195311058532855 1.8393564855554512 4.745903642157677 0.20101501579691833 1.450275218207999 -1.0132252188955517
P 8.1596497898688 4.851274141721527 10.011440615951479 0.8446243577632808 -3.014209908315383 0.5909716611659888
Ni 8.890622643735952 6.492786002690013 12.347429254837811 -0.6195355888466104 -0.2927707456446764 -0.03477339892544334
P 0.6254870763558212 0.5392398049439087 2.838237133818553 0.6071109899300126 0.26769374807139057 -0.7372000681403303
P 7.969782399247606 8.962039637760167 10.214459837045029 2.6256935949372653 -0.2034339096510561 0.1248463417541398
P 1.8068665488370492 7.300137413441018 11.305219776122234 1.3778978928868526 -1.3514306998342596 -0.9327023816491355
Ni 0.5375945580774417 7.229329086979511 8.814507842795942 -0.6355520188795248 1.5122650296472344 1.831309621386775
