# total energy = -340892.1106014778 ev
CRYSTAL
PRIMVEC
9.09134016232212 0.00000000000000 0.00000000000000

0.00000000000000 9.09134016232212 0.00000000000000

0.00000000000000 0.00000000000000 13.30609529430607

PRIMCOORD
 96 1
Ni 6.5141542909664185 2.085289772796209 11.437999548928588 0.6594931030761545 -0.5635657583492101 0.9560567401043599
Ni 4.566834695707715 0.17379823978431386 6.008287580524525 0.015002129835787066 0.9430024780235631 0.4188339905250529
Ni 2.888782411881922 1.7201451885436798 4.801611281024271 -0.7707701907862919 -0.5501633689003751 0.2259007232950045
Ni 2.811606025672388 4.640947300299555 5.000697083329708 1.7082594523011094 -0.28000316156636296 -1.023708634925379
Ni 5.052994108189142 4.868976292985091 2.567983566426997 -0.6863775861718243 -1.6944048058062047 -0.48468765579506845
Ni 7.170158119417514 6.112244327301549 2.4875479347873632 0.9176920242832325 0.3879493851310544 0.9215232251038645
Ni 5.15014416862442 4.392471883702455 11.635315267314246 0.4310968670528059 -0.324919305352763 -0.4792433448510456
Ni 5.962582686380198 7.848826658767462 12.61172974099749 -0.8031583773090103 -0.6447987342887733 -0.10879391627696745
Ni 1.6777977263026609 6.255123828499456 0.21600842278964374 0.6006840033577462 0.7826000935416845 0.5672532345031263
Ni 2.9964693355068404 1.6535147568638973 0.4209345019829367 -0.5110260365792813 -0.5852566130590824 0.16018152672032412
Ni 0.2544256987003079 8.945469559759927 4.722332976980876 0.78781377653214 0.6700945327410847 0.9670206953150313
Ni 8.811817768775551 2.284135563722694 1.4885260256479704 -0.4957004619658044 -0.32050883498989324 -0.018370789197703845
Ni 6.680389444911681 1.105106938636602 4.977450526663697 0.07486101097494849 -0.6578812785043444 -0.7984820548792636
Ni 1.1469271031511332 7.347948366644942 2.5875299476674845 -0.4528756534907942 0.9595521548521282 -0.768155121760948
Ni 7.696392159111995 3.875565558962736 3.9837252322734704 -0.2444257786823855 -0.17020111573985525 -0.6653896710662476
Ni 7.635752920565925 3.785643113916382 12.948986639456905 -0.08668885684781198 -0.7326831541065832 -0.8467524598498771
Ni 7.8776643896022644 9.153797618423075 6.851162086706769 -0.20864553575898262 -1.8885279795792962 -0.4249254481347714
Ni 6.974867042474764 0.6558138194427571 0.3328157788147745 0.05504500469028585 0.6906399609926042 0.07160316615928314
Ni 1.994640020540907 6.280625037513208 9.35825640273462 -0.7185426009401432 1.747715858524519 -0.22956403107920464
Ni 9.085921673147968 4.734715382213222 1.4595319237632436 0.40220563793975245 0.31357662664643415 0.9414112222770431
Ni 6.370483843178779 2.0858443445430326 7.195283856084646 -0.6543400981203054 -0.11672037021289576 -0.19016496045629186
Ni 3.3254667514746354 4.292330772370376 0.48708945657486935 0.4811786142005455 0.022409220933135597 -0.519163320974435
Ni 5.72823521231692 5.535671537407727 4.642257362409673 1.444680240618725 0.2763064294410661 1.3628517971870076
Ni 5.230057048207622 2.832134271644956 9.622835310071848 -0.49704463469852456 -0.1724955682009868 -1.4560990239786278
P -0.07865009244166563 5.399446897171698 12.586394903507784 0.8446058458205196 0.4247192456612363 -0.8543690958548705
P 4.296876442426304 6.067314924468763 12.558479034560323 -1.5304784673314673 0.5524362240949519 1.3207121877044803
P 2.527292546354358 8.751223986930041 1.423832049412013 0.14200485581129738 -0.8024870622735986 -0.7677180342235295
P 6.232795497184742 7.910947785751764 5.755857430978769 0.760375220705213 -0.4814323820825644 0.623139761258101
P 4.912760186963784 0.9286985751061747 12.531933230567718 0.17524279192882075 0.708744898123431 0.858114936050548
P 4.044037182575514 6.391157550593137 8.097184797077118 -0.38721739206103634 0.16617014020359125 0.6334511704864381
P 4.731906158118659 0.9897651066375022 3.905551526053666 0.23450132047982192 0.8463547101908264 -1.4475722174545391
P 0.27443301088446637 5.732080849184236 3.610502083197547 -0.8290851244771013 -1.4180513251772868 0.12915293954929372
Ni 1.32563557572986 0.8410507833558065 2.8181781554392478 0.6200870904747063 1.7587620890363516 -0.542767076436304
Ni 1.6561785195166707 6.775212122278324 5.076714323674981 0.11835353494094454 0.5308818949629438 -0.7302089815344779
Ni 5.799320400651512 5.446758231113789 8.93063885663546 1.004864248525366 -0.06203969084056413 1.4091563366805022
Ni 8.806853897074479 2.171293850254354 10.366632391715099 0.36237385065479527 1.0680851041582249 -0.5247156182512318
Ni 2.354575266909344 5.415347651027331 7.145758780825318 -0.3132531818687444 0.7443536484659762 -0.2649755778092791
Ni 0.9686822889181114 0.17229907779986903 9.421154839298486 -0.9528287200853653 -0.2527093588474164 -1.1007393998581365
Ni 1.7504011684359322 0.8924523112142214 11.636925343648056 0.034599849462056534 0.23708965003228843 -0.6930436853380902
Ni 4.3803349446531294 6.820368808613907 1.476750012801085 -0.894361577087408 1.0313440399834497 -0.28740228224391146
Ni 5.742772265155776 8.065573298374188 8.046328749625415 -1.2766985011276915 -0.3751524904767023 0.04811973832536229
Ni 4.995173185077746 3.0546811862430454 4.649562254189547 0.6989428244313446 0.7908376509601284 0.828868894701237
Ni 0.8752614961967154 7.871591374407545 7.12952528392159 -0.6786537351650054 -0.827361456917775 0.17383768405117803
Ni 4.7704170748324755 4.729606049070361 6.902004497148305 0.6047478890144746 -0.980302242915286 -0.6625439740873365
Ni 8.160805086045865 7.703747053262486 8.947510565615039 0.003562263429961607 -0.7574053394436118 0.412156064284245
Ni 4.339814841774593 0.23661667255519583 10.513452079717485 1.7782903888772663 0.5625869393757086 -0.4904176163003103
Ni 8.007843288663912 7.054325355052374 4.890455493133359 0.12957151514395104 -0.5434977839547414 -0.3593972845249746
Ni 7.025651268339584 6.235122880253376 7.0830876277642485 0.9790092351354752 -0.9168520448804404 -0.8638760069040412
Ni 2.4664532983258267 5.388810029240828 2.4740554769273597 -0.9457867256369196 -1.377008548303364 0.0931963189490266
Ni 2.392067953530632 5.043320922310128 11.516638731762118 0.3563973213563862 0.7159717548891734 0.1517789044789257
Ni 1.2136575395721463 3.3358581532224854 3.757189037634299 -1.1333304464202805 -0.10688692906224175 -0.35168268948953624
Ni 3.822108479105031 2.7520486565996283 2.5783349662783546 -0.6860515702909733 -0.34995028017946184 -0.2229516679690096
Ni 1.0624321881515562 3.753296125798403 8.070466257622389 -0.3599102196056511 -0.8400516507909338 1.0300078376705293
Ni 3.7934707577526887 2.525592465753441 7.01372252097882 -0.5450558724704806 0.4620920298827397 -0.3986765417405715
Ni 4.0736476773198245 6.865098201964232 5.863171609659101 -0.08791630149700988 0.985259329810245 0.38542147650287817
Ni 0.7907602172590602 7.178567609020979 11.34164952642315 0.7214662023448414 -0.6294374213413547 0.04070236281536861
P 0.09517269396095025 5.953991369974496 7.9542771127248635 0.006187102647318377 -0.9872074546755515 0.0015843137679843681
P 8.45851920068877 1.5988394374312034 8.118834005285477 1.248670648456198 1.0308563017137535 0.7361942525836354
P 1.8166497638310168 3.2665639588899293 10.367444248387088 -0.28015459954256267 -0.2581325867455167 -0.4836792691352122
P 3.838681992128942 6.295280277773518 3.7700160093981148 0.07410639219711108 0.2996322486512001 -0.2842336547079427
P 6.952111418174792 4.007435447285188 10.416676582494816 0.38824583332555074 0.39701509487774855 -0.1935207643024022
P 6.396930551564164 8.036935577021845 10.455849348768774 0.7756262333270125 -0.462018753442643 -0.7373324799531366
P 2.455789156374621 8.7745069089565 5.774379218188651 -1.5612872251822079 -0.3733977125691247 0.5394128152520904
P 6.867089205448727 3.853655429293166 1.739945218173288 0.17388987744535214 -0.29758693608639714 0.2881874971493682
Ni 5.302751403742012 2.7558397454262717 0.3670501291399743 0.3792323169730308 0.3177438706502463 0.3369253286747036
Ni 1.4513597181366977 1.1716828222757134 7.10025207789543 0.13232439529873988 0.567462522300455 0.19505262756589634
Ni 6.852324869107075 0.7150929935080941 9.279378117656146 -0.6377161164103791 0.6317437008770281 0.6992778391732601
Ni 2.8493169044563613 1.6797250904063743 9.180154322541354 -0.5180590321666626 0.7788820212601489 0.5848544925246572
Ni 6.362528920580907 1.752846738926021 2.5460943468396846 0.7216122410044025 0.8559492958577969 0.28245933641633936
Ni 4.4029087421508635 6.723018738696166 10.454772024965518 -0.028457741120060668 0.8853974259155848 0.25862829543501265
Ni 8.290247586558452 7.278699629012945 0.059247354374945466 -0.8408700329271712 -0.35371951741390695 0.6170264492715116
Ni 7.622770486886196 3.755805335669275 8.345436566707466 0.4961051536033908 0.5184164155060814 -0.3425313620075714
Ni 3.543413447976127 8.287256535661651 12.658261037957983 -1.2266869450962552 -0.5361187178818508 0.2010931773330214
Ni 0.11366175234642902 4.889113611332849 10.238508135518734 -0.5045440283993634 -0.39863411853841024 0.1237795910525223
Ni 8.701030698172492 2.2153959411369613 5.9243926939723295 -0.4412432114581885 1.4107468210960736 -0.5100436180613538
Ni 3.5610779218134603 2.6262608748120075 11.55172675892382 0.17128586416360178 -0.06619999286584083 -0.17996410866389007
Ni 1.1377721236584957 3.2492995040175177 12.66279852580781 -0.6200001871878548 -0.08410129862629385 0.2635858965506041
Ni 3.003787864296883 8.479038355321224 8.069840773422692 1.4007534573287874 -0.3384618199238881 0.17555389541133637
Ni 5.48475094144123 7.961313809971439 3.6369415185108425 0.6906625867004235 -0.2608301881823379 0.15087953259310788
Ni 3.032798330593811 8.492175341782856 3.6545587173795946 0.8588839530060886 -0.5595769489047911 0.10513266537529635
Ni 3.4992931744132965 4.566989248489617 9.373306207155784 0.46912708235265016 -1.642363620939249 -0.33433417090875966
Ni 7.147757057381904 6.11244433678401 11.290368004254212 0.28748558598633717 -0.609513171613602 -0.003093037103026931
Ni 0.7277745038301201 8.985462364911974 0.2512164556408232 0.16947786442058554 0.6208869606681823 0.41603225941019967
Ni 4.631492306583225 0.18301776779174564 1.6278544493981877 0.5082099072867248 0.5841227565649553 -0.12059476556663747
Ni 6.017748938178931 5.462704441669982 0.45821899691566376 0.7308445582359477 0.19821842688838767 -1.164523069973001
Ni 8.477483736162098 -0.16543057034536288 11.242040258487615 -1.8230391538478667 0.5967504726312948 0.43306736051561545
Ni 0.26986370334424825 4.834483748600715 5.707862428260266 -0.7102140264697897 0.25566844147574036 0.6803159533587767
Ni 8.320276282947907 8.877611797165043 2.4898634991138526 -1.313345977147396 -0.4797493379531867 -0.5819344906643849
P 8.48263852600552 1.6755612566351448 3.6828473312716414 -0.40093885541218693 -0.3526591944701926 0.3046584982211979
P 1.7731477013957924 3.074536673047336 1.649730031975332 0.8693326591432383 0.48026381569576004 -0.39296586450903936
P 4.715014448190833 1.0140753500966015 8.270323914703322 0.5664662198254566 0.07338108399531232 0.10423894991643337
P 8.579397658815989 1.650405518545643 12.541846427825686 0.5391564762669102 -0.2722178611939892 -0.025214294482098512
P 6.540664638732587 7.9598864695738785 1.5072078204438204 -0.15761505154472855 -0.6465463131074994 0.30436230713701773
P 1.6994805724694342 3.1384124286732265 6.0481394699048385 0.22234617317452673 -0.3256361289141295 0.541567399701248
P 6.693471883332639 3.8839023178453065 5.997057048084351 0.10433613761592998 0.6797752503639584 0.02882180932769875
P 2.5718492042425574 8.237354169787682 10.351609861314271 -1.3169802314658738 -0.8350218016765104 0.827377140647059
