# total energy = -340897.3673261373 ev
CRYSTAL
PRIMVEC
9.02807098654608 0.00000000000000 0.00000000000000

0.00000000000000 9.02807098654608 0.00000000000000

0.00000000000000 0.00000000000000 13.21349446021668

PRIMCOORD
 96 1
Ni 6.353035616086255 2.221040925356417 11.429078554226871 0.17299796175870205 -1.1999932378551528 0.1052049133741285
Ni 4.565251825489322 0.4040314628144246 6.118786059424922 0.4328596153801836 -0.697812053261011 -0.736035615518584
Ni 2.8724252873074807 1.6146705261874081 4.888477537425131 -0.41371389568966815 0.4084855574111932 0.08752549381649442
Ni 3.31239027893561 4.237650207464371 4.641940775920963 0.6967067360119743 0.5452654173781254 0.07303064263442907
Ni 5.101853290767494 4.41088083679892 2.626142214602786 0.295205323228098 0.823472149165698 -0.2817304286701148
Ni 7.201854866140156 5.951719797075449 2.617645896838207 0.07802295364269789 0.16596676594353355 -1.0115971963738253
Ni 5.076358017823947 4.358084676680697 11.34887226727299 0.13856292000928394 0.890260410434841 -0.05457217881892538
Ni 5.599886836068743 7.644519251043824 12.393901296173906 -0.36054348231427585 0.9622307301255557 0.2005768998182352
Ni 1.7820599934842531 6.500139007496362 0.2694400752189284 0.40836728666577415 0.9870994683427774 0.7271267430647284
Ni 2.818753404287161 1.6324738825063434 0.6304988221395903 -0.5259587466297134 -1.4336900601558082 -1.2126996296782278
Ni 0.5833036773663318 -0.08636884832472505 4.740697943485466 -0.13340528706774443 0.24420234981766975 -0.10046148515187213
Ni 8.674387440053062 2.2344295548802413 1.4371389237543097 0.15105102517396568 0.584691998804864 -0.3006915431536499
Ni 6.906627911279353 0.5687919557907454 4.715671227434898 -0.8638513243136928 0.7400951302999383 0.7116067930522584
Ni 0.7201981259136335 7.393881939620761 2.4236191055966265 0.6867424257104109 0.8128509220064261 -0.4154956701804393
Ni 7.560151926094305 3.651638108751345 3.8205632509517655 0.9137055288316586 0.5529532729406864 -0.13067966060646527
Ni 7.661555221314528 3.914418175878753 12.5874125845525 0.5137079542868186 -0.5908734450252275 -0.5357464221440967
Ni 7.930248675048886 8.935524398230143 6.91833461114688 -0.3940912363627342 -0.31654856479056453 -0.5486731575080938
Ni 6.813088066035698 0.8522372777934284 0.3513562788496885 -0.5122390830507759 -0.6071832379288445 0.18929258515366754
Ni 1.7073527046712769 6.64956261319347 9.112382506555031 0.8108827425364615 -0.6239272901564028 0.013600364392253997
Ni 9.122414499223185 4.863503184187265 1.4145967328857754 -0.16272229086430687 -0.6777867591790198 -0.16506045207918024
Ni 6.388371486589456 1.9401956878465603 7.034111498454009 0.2267805547967965 0.4999224704669519 -0.2555301161256631
Ni 3.319206472658123 4.325628760876148 0.4119292194613843 0.05976349321187773 0.21019333986207672 0.16018461204411766
Ni 5.987985558907682 5.464835919651423 4.6639936453328605 -0.5568911745425119 0.5793623590618344 1.0166216461716104
Ni 5.396628842070513 2.759041741663714 9.209436077092462 0.15030540525719274 0.8512796582962695 0.39766995485292805
P 0.23579155121471765 5.38025192099417 12.388391464347615 -0.06863482755957857 1.2372732052525337 -0.6196384329730619
P 3.8904937873162893 6.1460580567719 12.597746114797252 -0.11630282305950293 0.045332148277896125 -0.6405006211340518
P 2.4763999179938834 8.503422856578581 1.3843906124132128 -0.9212542877131942 0.16912099530179905 0.1331486909722481
P 6.298803992654285 7.764800243050504 5.833387965631272 -0.38561225235744556 -0.4735151841180167 0.20756798642408766
P 4.75160927028418 1.0008609963861461 12.616535336486384 0.5600232924135904 -0.20239132731915466 -0.005229109609423252
P 4.069637803257787 6.161270356669164 8.201339081675066 -0.9083157252746551 0.07948514001052118 -0.013579024236015324
P 4.757215702471837 1.0411532779537973 3.8373446296158815 0.6304244678449724 0.08503280930162774 0.45034620220072114
P 0.23623302389422876 5.70679725469391 3.558195766676171 -0.247351951190245 -1.904114006943011 -0.05656401243797356
Ni 1.5625424433347044 1.2343540006846363 2.8566126206783653 -0.4905837095645293 -0.34525621713790217 -1.272340224158996
Ni 1.93621430846692 6.350002184177958 4.774842108596122 -0.021818638536988226 1.041108318459065 0.05301768984761192
Ni 5.983173596981723 5.76262684672043 9.242575417883495 -0.06030882419238646 -1.3901643689590317 -0.3352793084308484
Ni 8.631540214348362 2.181931321110156 10.13899156187708 0.1849348224056041 1.0286142997571124 0.03207811148146734
Ni 2.3507652797919043 5.272926211095842 7.004658319115827 -0.024592601737699584 0.0027189415930598333 0.20184059702200724
Ni 0.590698570449922 -0.07161607724928283 8.979441450366787 -0.06756781974764492 0.2818049906617921 0.42674733183485863
Ni 1.3459770724530518 1.1200586198541493 11.497551057099757 0.8418226266484276 -0.6112841474710957 0.017514097624363387
Ni 4.137041382505844 6.84948022086411 1.5905746042729871 0.25841797919641946 0.2343470542901448 -0.37491543476523176
Ni 5.686547291091795 7.85493650546848 8.081941937834523 -0.7068528233070407 0.5928570511141595 -0.9224544786688824
Ni 5.263771746944017 2.918197608066609 4.898493279565206 0.19551799723808908 -0.40038169735713625 -0.005346351913577889
Ni 0.6690243101820814 7.509468334626504 6.897034682869363 0.7902660947273744 -0.5043519669932152 -0.44483967056019513
Ni 5.167541536495978 4.680513209933463 6.992052423361198 -0.13890024874404466 -0.5939798518646932 -0.08592781031207136
Ni 8.076422175129961 7.2272508303009895 9.061629398939331 0.152417309393873 -0.3883137104490087 0.2908241634412669
Ni 4.74754663826414 0.5170258985913828 10.259300540904343 -0.15207586689405422 -0.8532594077304596 0.5142741112029336
Ni 8.08310294778514 7.073737508370374 4.67716740676318 -0.2527430402988292 0.707107362520008 0.5456603388236989
Ni 7.267091708310859 6.12365941223474 6.984441759376988 -0.0068386201883882235 -0.1498356647096258 -0.6491706381042238
Ni 2.2357927936247437 5.438194081671111 2.462783781076937 0.4831799609012904 -1.072627472113269 0.385611223916181
Ni 2.211895489275747 5.439286478280943 11.367119804692782 0.36069620584205625 -1.2585848222461162 -0.738351151025638
Ni 1.116943935305451 3.4407152823419715 3.8983770990493998 -0.46892679341638593 0.12373048298214175 -0.7125020511730181
Ni 3.6990715946031125 2.6028019422440924 2.6048820098383536 -0.36509047825500995 0.08603502531389699 0.7991713676368043
Ni 1.2845320201677204 3.2595850907462323 8.294626140926363 -0.8706822311925974 0.7714954989880907 0.16415259555293019
Ni 3.491164143959726 2.873129476857621 7.302609945851404 1.173635059576598 -0.24818884526924354 0.08194799972871693
Ni 3.9901907770880953 6.924864615013759 6.01784861267633 1.3633516196415616 -0.2657589929425229 -0.4958035632025719
Ni 0.6615869851640597 7.325097065485888 11.23569907568715 -0.4575265219992443 0.2243873719742716 0.3942822693276178
P 0.2549003666227594 5.608589896662785 7.807087728343553 0.0076487747945094085 -0.44193740931173564 1.0863484212437873
P 8.610215910278725 1.680873371971765 7.976087803534566 -0.034249922321805536 0.35327523078763673 0.27620049999082114
P 1.9260035599898837 3.299317631902234 10.4781689727378 -0.3884018992874408 -0.23705751124277238 -0.8588302169500176
P 3.954295166173244 6.1865399278338185 3.717153918320758 0.4708139831367698 -0.411788139421865 0.40933067902030795
P 6.985758954958596 3.956037583906284 10.248782838008015 0.14855165579087964 0.7695000658246166 0.3628304785762396
P 6.254674780845484 7.7328047588748925 10.257225890152776 0.18554777339925463 0.8437159870163985 -0.3325775932289692
P 2.38260728675787 8.416888794551708 5.78909624854167 0.18480215348248172 0.7134502740189003 0.40406531685631053
P 7.008410385488114 3.983302358796337 1.4237539054589479 -0.9604358430086621 -0.31487606218414804 1.5280163789442198
Ni 5.115296088718251 2.8481488039699467 0.5888405934060899 0.9851163764744775 -0.14820070020936413 -0.40065911938823906
Ni 1.5424549850133904 1.1992167477468594 7.001804545823527 0.07458616004700702 -0.4798277565996059 -0.4894405970990216
Ni 7.0165807898839745 0.598404931988382 9.056978136679943 -0.5363339192164506 0.15972669857109265 1.1276621923909096
Ni 2.527209902457863 1.3937807092222008 9.345561333977303 0.9450002251798821 0.6045113475236363 -0.37282641344668693
Ni 6.400053810664863 2.0263505708848966 2.5955533039132237 -0.29885320439333046 -0.4574113365776187 -0.2878198293973043
Ni 4.0342477643276515 6.905553570811831 10.41954067865303 0.16651106848277777 0.29599825144303865 -0.39876550190995197
Ni 7.9870713549025245 6.915710150861934 0.22401984923486995 0.10895820976897364 0.7932807131839822 0.6749942840355472
Ni 7.756638866725799 3.9472081303160618 8.150889317250197 -0.15278780535941427 -0.6996048834953758 -0.5541596345439618
Ni 3.19561217853732 8.415471387380272 12.333502597335514 -0.23075805138730582 0.08250335801155469 0.7060694081737968
Ni 0.13137378303562375 4.813171687494536 9.99436998722766 -0.19296746290209346 0.20920243670371713 0.8648489123402717
Ni 8.547696517525873 2.2083294011692667 5.801371716892002 0.5837676872183818 0.6524361962293731 -0.34336774186593766
Ni 3.5985530503561427 2.576313581473425 11.672867170871259 -0.07776070112024672 0.08227632960241313 -0.6602824317466692
Ni 1.2809388478477732 3.3593904173719067 12.610404373364585 -1.0331278713567498 -0.10634288363331364 0.11702607437877265
Ni 3.163400020653973 8.307044252800955 7.966191231933745 -0.034182816529295966 0.21901993701477118 0.4410418940806598
Ni 5.76702351737323 7.787993357849361 3.6234443453393763 -1.3153797197479733 -0.32680983750725656 -0.36725483289618044
Ni 3.128560694064332 8.48559241604618 3.594572573783618 -0.014381722642968778 -1.0395797976296806 0.5066657027280564
Ni 3.6098200831583895 4.320735546309788 9.417931255168083 -0.6829613614014238 0.601875452562686 -0.3730454714360285
Ni 7.147632270779341 6.104637266309792 11.345198745119756 1.1877676423232384 -1.2120247150983903 -0.1811499014418751
Ni 0.4701882654358879 -0.028040286202323014 0.43804201247197677 0.20452611427397033 -0.03193592947664823 -0.08308854109106335
Ni 4.611322072596587 0.28876014749201223 1.7954233444088414 0.1576361345906511 0.2990871747810075 -1.159181346045113
Ni 5.786163028223201 5.414080103614378 0.19772649480116455 0.37027330800753006 0.24504078655856512 1.0726035608538689
Ni 7.857419225036283 8.810440472368658 11.439833695394592 -0.26220752814583875 -0.06869859091797847 -0.2147663039447398
Ni 0.09707252948685975 4.858664138047839 5.677799090141973 -0.442263939413219 -0.43741329618913705 0.4802057087643149
Ni 7.903254742293502 8.76252849874564 2.5854048491271615 -0.6826181191293921 -0.13965101086714013 -0.8249037394059019
P 8.50145473706665 1.5387805600530422 3.591308926060852 0.49050169137368427 0.873072842911961 0.18436018084905667
P 1.7553188467212275 3.249591015976932 1.6217981883647912 0.06663733751357556 0.31731166820883416 0.9621296857713172
P 4.620268891111833 1.161280792750832 8.119243219428308 -0.42312516170123904 -1.1972151608893835 0.26520337754936907
P 8.521334549751385 1.6645325631800447 12.37125347687285 -0.6798284721993968 0.18940314258960284 0.8328847007288496
P 6.2107351585309525 7.8371782895053235 1.30464475708827 1.332182650237925 -0.6321316803440661 0.8856285680897844
P 1.8643689182102838 3.341054404854788 6.019314771432007 -0.8243206132089224 -0.7298809087710978 -0.5352761673758974
P 7.000971254855862 3.856466987130657 5.959405394050251 -0.49998212006029374 0.7571068343665864 0.09393859643168984
P 2.3392093487126764 8.448523155881094 10.276888126322659 0.02114629506031197 0.2916338038267558 -0.1038694823921566
