# total energy = -381161.17463223374 ev
CRYSTAL
PRIMVEC
9.34351076790294 0.00000000000000 0.00000000000000

0.00000000000000 9.34351076790294 0.00000000000000

0.00000000000000 0.00000000000000 13.67517246537632

PRIMCOORD
 96 1
Ni 1.627331195775956 5.9282798947396715 13.34226392157887 1.232462928348084 1.3169213532034802 -0.774153505436228
Ni 1.7149826679123208 1.2639246978256553 8.619830397657879 -0.5925732013251537 -0.3901286521705604 -3.138720463996659
Ni 3.805415618828111 8.214356612318221 10.992978355369843 0.42281945753536215 0.8769433816109607 0.32615472042176086
Ni 2.7615959981921314 2.0186747901645608 13.735479955474577 0.7754305723764388 0.2258881248895142 -0.41721522397470723
Ni 8.453382298299724 4.142052959154418 6.843165610733147 0.5876179142024073 0.23483607811142138 -0.3427563335341839
Ni 6.1342669275419635 4.169803185382433 7.083725501141128 -0.25391006402373695 0.20898929225164653 0.30618290528552433
Ni 1.509649680846043 5.139883821038112 6.276493844593423 1.1882674647777922 1.8349413046020915 0.21059288929334055
Ni 1.341784170942842 8.1335072158364 10.540863634243989 0.15893197058393918 0.5245798640043159 0.5036829659506487
Ni 0.19090847553401902 3.218110578419255 8.874940936990065 0.29706885879939804 -0.25192877192765 -0.8552406998265464
Ni 3.546946087465969 4.025174986128751 2.005546223540661 -0.36339329305824514 0.16832523887338108 0.5197299921111823
Ni 7.368890376394201 6.5204715911476026 7.642943948943448 -0.5539202648396461 0.6390078386386091 -1.0255415743690595
Ni 4.752567279681251 5.794041679178095 0.43367530312552144 -3.2598525901240047 0.9704466902774448 1.2257425789051148
Ni 4.3525248770036615 1.6129328460731378 1.7768974403365423 -0.24755198301619302 0.9372802308278051 -0.5567464214345316
Ni 1.0875565933542748 2.537220936697337 4.336232597719558 -2.676076418265191 -0.7846420636723778 2.941235572840186
Ni 2.0711853192559553 1.8734205757064086 2.565353312505394 1.6000394062497412 0.026449195330464127 -2.5961531622759866
Ni 4.495359122238563 0.6530394399313983 6.4778474305315825 -0.32543558286754926 0.11920045632227215 -0.7132263309335523
Ni 5.116375548583674 3.4951363216631606 -0.09326972500872338 -0.25054680397845885 -0.6208458230176018 2.258513838253394
Ni -0.0769942640435455 6.591930759562369 6.008460295868656 -0.790123398501923 0.18114398790460415 0.6414609281647919
Ni 8.963117514417343 5.479679267918315 13.120042539257664 -1.385100324172563 -0.47047125508537035 -0.6010555277645518
Ni 3.5661002840206586 6.217891346646586 12.053488288837844 -0.0053314395152424315 -0.668031479564469 0.3271736486045784
Ni 4.068071042900742 6.580298088971837 2.6356847192010613 1.0053758980544623 0.11698133718376628 1.001153118222366
Ni 1.3233867987398251 9.18145666811978 3.646047097386781 -1.5669138273403658 -0.12531273986759708 0.07746913802175691
Ni -0.15211889163314293 8.589022040438474 7.2436153904691665 0.7285570477533517 0.6955181150205119 -0.008014128553728133
Ni 6.504297974447033 4.89885862380651 4.618584141956719 -1.692744387384646 -1.959062595264749 0.017041528863319038
P 5.660345387226358 -0.09698283608717892 8.002136523651718 0.2698732722212126 -0.231810146800904 1.3992974416085515
Ni 3.706421124927164 4.964291227939435 7.716776369028894 -1.5319735638197551 -0.36620016637942093 -0.7562007776125493
P 2.849621210749075 4.305134591674204 -0.12491058901496854 1.340304250903795 -0.9243943760040726 -0.042282819928611055
Ni 5.840460239414046 7.319388457688469 12.421965509944355 -0.8529968980976922 -1.2072915712887788 0.4103346948047901
P 2.633505812549084 3.736722129525632 4.212021837642124 2.8504149532121876 1.7743473450691185 -0.12041016035965715
P 8.840764244230188 8.453606542552071 12.0327840038888 1.1644148265299106 1.371344408039051 0.41111116795949837
P 8.043276934798037 3.7321438093735355 3.8313186330274123 0.5929364982018434 -0.8376782654627508 -1.3387204513564428
Ni 3.426573641507884 0.6385999787823163 4.32358335318505 0.4180649735695122 0.9621759656282204 -0.8682281132251498
Ni 7.249349502871905 2.1465967926183476 7.960044008783972 -1.504096634903829 1.2954698681979238 0.20224657421117428
Ni 1.9801234657818043 6.900901965255292 4.137464361140756 -1.1713894580755309 -0.7631931497699824 -0.6940865247803079
Ni 7.963866438935447 5.559566282817144 2.4183042096774092 2.2179325743969223 0.5999841490772442 -1.1337443940292473
Ni 7.167173327897027 2.368850877226354 5.2774268362686625 -0.307975735519889 1.5018790584272201 0.7696720726261067
Ni 7.0481089734109705 8.719279920520881 6.141382945149793 -0.623677636039442 0.47001591271550663 0.9613316153500542
Ni 5.221088270919484 0.9330878088267394 10.244344525013718 1.4821121602129377 -0.22300797512824175 -1.6238578488255775
Ni 7.831814604834259 1.9513734839287402 10.404754847877413 -0.554761786904335 0.9300603160405982 0.008289236591985723
Ni 0.8379979679697945 1.4331356732429419 10.558204255407817 -0.9521810591990376 -0.5681466928516732 1.0299574440485681
Ni 3.7984453599843064 8.23788357179369 13.506448088339363 1.6456775158038304 -1.3759819068110626 -1.6941911471335016
Ni 8.925911655548672 7.423802187687817 9.197401368812747 -0.19474126697306463 -0.3109384176926387 0.0767487149159646
Ni 1.7658861131952241 7.109215532175689 8.190087778107904 0.016258627950707483 -0.46426152673023274 -0.11875179882062774
Ni 5.1500682474989 5.591072600271981 10.483318821687392 0.6326880670681684 0.033173401428175125 0.4772836500215136
Ni 2.764847539851171 9.066195122413118 1.4468332596571738 -2.078232455459401 0.7464064172299467 2.0313234496126884
Ni 6.62742675600689 5.270823777388077 13.402188526263506 2.265941241065717 0.6333804651495027 -1.9259012780214313
Ni 3.1451938223642295 1.8846981928973896 10.190847321211995 -1.1207302411577666 -1.7558505718165116 1.11090759864039
Ni 4.678903042785066 8.017115105357485 4.85366032604375 2.2009257554262804 0.1154042225046335 -2.6211751382416213
Ni 9.194434804224397 4.222584676278747 10.939536278280155 -0.8512914853708113 -0.9359957076884269 1.8358471042458124
Ni 7.939068762030009 3.6591242747028514 0.31930325961983824 0.153483031654226 -1.8785904087506096 1.451838448930061
Ni 5.854083077744162 9.296484626063581 0.5646956136659104 0.0329402023714465 0.7382794172474382 -2.6402347259762333
Ni 3.4048312925406825 9.048283612756855 8.855398984749023 0.7503504894793593 -0.2513621007909026 -0.7683803503978767
Ni 4.244999758002992 7.285378079415752 6.821531646487912 0.2846548014057613 -0.7238321314738566 3.6037260679817678
Ni 1.6387956831772266 5.638238641349091 10.894352930134218 -0.38336896484922367 0.7710247299992592 -0.9046529317110872
Ni 5.7737475743406375 3.417033917272597 9.490391434121698 0.6406397178150772 0.4250362626810228 -0.028648516974628082
Ni 6.6805913308342975 1.7817140200067583 1.558422805731644 -0.5946108005804727 2.5523922151399523 1.5343094110417834
P 4.481913810608222 0.8874494317187472 12.242642987448296 -0.7391636196246044 -0.4679528595388908 0.9676534438030238
Ni 8.964397575357827 1.719103156049208 6.682974860366541 0.38017205517848074 -1.4915187982388185 -0.713945468487764
P 5.429822295813034 5.802581647788332 8.364843192664484 1.575933257230157 0.869551974242896 0.7870293329576317
Ni 3.2800206790882194 4.066034157608585 9.98417447473794 -0.42364118210570906 1.619475403487166 -1.2407323674457276
P 0.7524758818796805 1.3838673423000731 0.6655102234150787 1.4364637662462034 0.8168759840054189 -0.0029187163086917475
P 0.4112069633913442 7.655259630152588 1.947153020229348 -1.333152727460678 1.0832695252081475 1.1790505741652146
P 2.7470668393421103 8.124509415210952 5.564961225788207 -1.3837150137892622 1.7512650093283584 1.2576440555994017
Ni 1.997222090023308 6.432437035080144 1.7737113032511036 0.5449833673613325 -1.112425063726181 0.444307452205809
Ni 4.552195696698163 3.1041758112056494 11.501708209756103 1.1033927783205835 -0.6460251504967067 0.9324840949907425
Ni 9.038155247359157 2.1349734655383306 12.481685491748724 2.0043795740339934 0.06250120385801494 0.7954702646361334
Ni 4.9081554167684205 9.011432807287735 2.609099628734203 -0.6368506830862903 -1.250182457115034 1.4687174840735866
Ni 7.62299648834608 0.19989693264895161 8.950974688152721 0.14221388649830993 -1.7321681405979072 -0.15852033696781734
Ni 0.34043267429729007 5.0317887478960595 4.0077418642108285 1.1942689337768657 0.049542843925134035 0.40145924669203115
Ni 7.451075894879592 8.753785504850867 2.4761087718263095 0.38006638283855193 1.4502320236748893 -1.1163912474627804
Ni 1.8163223829524033 3.1913040467532032 11.776867119599215 0.6993362032150213 0.7933347063503692 0.6901774195338888
Ni 6.880383616165486 1.8773915676750639 12.648672711663563 -1.9909514735535452 2.491694125928947 1.2144736908595148
Ni 8.47669435703336 7.762756718621715 4.243788839040315 2.1693340966629284 0.7595054165057501 -0.20245766178071584
Ni 6.503578524137418 7.01765847264427 3.449725926211722 -2.7458888110726387 -0.9861365902088758 -0.5643100927144024
Ni 3.60609985253316 5.536328972167625 5.172182468184578 0.7383233831114961 -0.16235822265666877 -0.5525858622989387
Ni 7.990635596559441 5.058828867324973 9.31589670350847 -1.4918954648519467 0.15702498336921344 -0.5830482925538539
Ni 6.63889124340816 9.27805922332902 11.854281841615911 1.7030326566845315 -1.0850173611371894 -1.4294276853350285
Ni 9.041210575297391 1.9235391661060952 2.6102759767079764 -1.4683732133602905 0.5405451290843206 -1.0408501797016718
Ni 6.287892927421093 7.691951595942963 9.972592259104186 -0.6812009270668914 0.3329856273006652 -1.286894724934403
Ni 8.209535360892747 7.549313564428866 0.3682613860136261 -0.4991611668208952 -0.79752329051042 -0.28526389574467004
Ni 1.9787219392046316 0.002623657752466819 12.619434998561644 -1.1219571715863323 0.5153367481394932 -0.4393529364140111
Ni 0.9381632037382064 3.833119127503553 1.0036929803804813 0.24653382616432382 -0.41585356774049026 0.006784112801368961
Ni 1.695445387426537 0.6818118462096973 6.100275236290274 0.3719949186843271 -0.7884830346850228 0.30769959904036687
Ni 4.139109753342356 2.327645995857484 8.163503621992096 -0.07120773049307737 -0.06664119416831749 -0.3553601383411235
Ni 8.21689804717816 0.5059847309971052 0.6535505299565405 1.1118640490163882 0.04669920382875183 -2.1669799946084547
Ni 6.306533230897486 0.587554512139593 4.252705351124286 -1.1313643238328452 -0.6810636301580787 -0.5443331353718431
Ni 4.197039518532151 3.3785386539529276 6.031954553057323 -0.6041259391597595 -1.2714992163149392 -1.516013440946073
Ni 8.031980630586027 6.758861918414121 11.258509711978832 -0.3603604197691923 -1.8115836037127575 0.13105555588864526
P 5.842356972048486 7.431818919709243 1.4050416058279944 -0.15517430331371987 -1.8059541733411222 -0.44146201233721394
Ni 1.368945756008444 3.106549062876328 6.615815575490541 1.331574841450597 -2.0906855936210897 1.362064525399022
P 8.501267789686448 0.7385157428199914 4.331269324934264 0.3199012833128813 -0.9093549651724468 1.064761953322263
Ni 5.067125904661834 2.694789898013578 3.6916125951127596 0.020160791218591084 0.4311194927606253 0.5579664098845616
P 1.707573264074336 4.871659664698851 8.7371633996456 -0.8056091528423481 0.4949049626477025 -0.5405919231618561
P 6.838991864586327 4.3419106490592085 11.354304053528569 0.5019533848540516 -0.38578014539387756 -0.23639725195095418
P 6.940555823878757 6.6815069948647166 5.446383668199955 0.7480871473664794 1.1055992990535992 2.4038189620825183
Ni 6.100022961506384 4.494041687256021 2.0841643897116238 -1.3508596578221381 -1.3221247517812906 0.08315179022883099
