# total energy = -381164.1132932527 ev
CRYSTAL
PRIMVEC
9.30043422841470 0.00000000000000 0.00000000000000

0.00000000000000 9.30043422841470 0.00000000000000

0.00000000000000 0.00000000000000 13.61212559558223

PRIMCOORD
 96 1
Ni 8.4233383614495 3.515908331131283 1.0208240535780033 -1.0889151535296988 -0.7448154185937431 -1.9609168748646681
Ni 3.325295927460384 0.016796584583051652 1.5335690943441136 -1.827858172503065 -0.7126563173626952 1.1030667624397323
Ni 9.235703407726252 0.697930640946306 1.1746867206367924 -0.5214431181475471 -0.8655045436463997 -0.4905662260630326
Ni 1.6125837251861348 6.657483476834412 5.019621170863816 -1.1582377511849213 -0.852560581891222 -0.44045054035356407
Ni 8.686987076709938 2.1372770340662246 8.44778083317858 -1.3251774225646855 -1.735158333574483 -1.5804159755918588
Ni 1.666182128814112 1.4444690724047164 9.77553503373028 -0.5542416527348067 0.01089479253563285 0.11105108774226036
Ni 8.754294320689752 6.923578206350298 1.3632948806877314 1.3196235826259919 -1.0450310505522389 1.7189984359851684
Ni 7.115529872579314 1.4053607456208115 0.07420444615411734 -1.7588813882230354 -0.2710840046998622 0.6378300162804241
Ni 4.019024632130598 8.36162067856294 10.481799793970536 0.7457245606715738 -1.807225840964694 -0.43822987855316137
Ni 5.110737526987935 2.381013519209101 12.315107939386012 -0.18007543743077373 -0.810493734628159 -0.5730153337978842
Ni 2.7860846404329282 3.659869755694437 10.556081433730434 0.6414987233812629 -1.142545280150329 -0.8426129837602069
Ni 7.248256372349375 8.115884600017319 0.3619831385467395 -4.930729488011599 1.1706471805928678 0.18365029926622564
Ni 7.517234236538986 5.51660848557286 10.736414997267783 0.0046791506432242 -0.6310106793657455 0.3285139646825568
Ni 1.83857498143396 7.935697983343984 9.539364451997324 0.164002186017995 0.08377888228986861 1.2251465971923288
Ni 3.1638961883384136 2.533150025637428 7.609151360067645 0.8796227282153367 0.0006075516770118569 -0.6916241792827444
Ni 6.680316043363422 2.5269559363061362 10.130797678356913 -0.24102318075873977 0.21105594497268815 0.0431168857941322
Ni 1.4207994667768833 3.6446356440958554 4.544816322317032 0.21772744345559278 0.7041302821695551 -0.4861999786745369
Ni 3.819511712708879 7.9193106178759125 13.296664628751333 1.7273200684769867 -0.8923656297033019 -0.6381069240908946
Ni 4.003660314449976 4.227493869909724 13.318961490257097 0.15682597998452993 -0.5330277376613529 -0.7805732929196428
Ni 7.50842672513248 2.5013425398821476 2.9797215453809076 0.6823008449992894 0.6647592365711003 -1.384640353817009
Ni 2.0055642816491828 8.22612264933233 7.424475423694289 0.4215081949231063 0.4733724878925654 -1.9259951232868189
Ni 8.999825789677882 2.1997480521417274 5.682681692996592 1.5944439144398346 0.27031164531021185 -0.7065067528215316
Ni 0.1754982676764819 6.8084946306965435 6.880058683515596 -0.33987541244196307 1.2824971100873397 0.27261329686019503
Ni 5.649176877957587 3.0079930059653823 1.3271078203587194 -0.10442715466783949 0.024140344691629394 -0.17078398482651877
P 1.2070196809374454 8.921832346536426 2.5782320214566012 2.1219319532298813 -0.9840498828831763 -1.5892333167731727
Ni 3.437412664530532 7.411813812259423 5.843141158197551 2.531335137359337 -1.776267959130599 0.08852848115971206
P 5.762642178020284 6.070756270297093 9.305997951245422 0.994276445707191 0.9226452545234497 1.6570268793783787
Ni 3.195089845421224 5.95975558535871 10.162023886960235 1.3520187111272457 0.7825581845601555 -1.5705277699438693
P 7.491053513614683 3.0105227241307144 6.851023657264306 -0.9808532303227495 1.52796855642542 0.896792555126404
P 3.265122116689429 5.781103540366551 0.7927169484970419 -0.0665468346822983 1.0207994316983837 1.0777473098383377
P 2.0917421070902438 1.7802984592870046 5.50208957738205 -1.0469598921438354 0.4074499170578273 0.8301932699396154
Ni 7.894729569673806 4.416153182350036 8.595268052434667 -2.0217851711049506 0.7922918669081517 -0.7449257189193622
Ni 3.2437869201038696 0.868523859503684 11.452195031974773 -1.0095575402359775 0.9320590916381818 2.722351647182647
Ni 9.267882910858788 8.909062850062156 8.43456305576472 -1.2512327527564193 0.12632318340998244 0.611770857299527
Ni 2.265418419661621 9.177082769505336 4.597958074614429 0.10537974838909593 -2.0400924540545704 -0.8247756984684698
Ni 5.238069774787802 1.0449596109708479 3.2588108418843027 -0.6870902959681328 -0.11735620402468176 0.36243684268224674
Ni 1.700017109275431 7.26799189421274 0.7397221430636606 0.4620922869930558 1.2578011500025563 -0.7728283588669014
Ni 3.9583206965970548 0.24085335046915204 6.138510865173057 -0.06036795956509604 2.809244649621465 1.071280471167071
Ni 6.752059594566999 0.2268273653032051 9.056215253678713 0.45997524065005296 -0.5463925890040331 0.7431891958442298
Ni 9.107766631688346 7.927411296265634 3.6969171062083506 -0.906898018991522 -1.2107435343931212 -0.11054817996391285
Ni 3.9748847703193224 2.431152161228609 4.698089341832872 -0.10359591701579578 0.9809452758159235 2.331072169237095
Ni 9.065617062845384 1.8440622377484674 12.715481411178555 0.723192955227961 0.43365125804354343 -1.1633246787895257
Ni 5.013324776753781 5.487395821023931 2.4212564989936327 -0.6999290996040138 -0.3092962541035254 -1.2664763091790512
Ni 3.5911581461154864 5.110346908741818 4.200021316642904 -0.10250011284845571 0.5195780399143504 2.1568740165227047
Ni 6.616673170549566 2.4568771628657746 4.946578348970178 -2.2801404153842344 2.067392427421104 2.2960059216615814
Ni 2.030229033761172 -0.05202011990497386 13.258741177313984 -1.5605493185749189 3.0852322622705315 -0.21593255633869907
Ni 1.8904156029544084 7.546177188489405 11.779879098382068 -0.19518606781996706 0.7126529749285855 -0.28674099451082874
Ni 7.546800317596307 0.387184525725419 11.443115017839428 -0.26741015539270074 0.38641340810250224 0.15141226516812634
Ni 6.000333380782771 5.738572653711902 5.229587778586394 0.1423830650863225 0.6982229155461847 -0.9596868806577794
Ni 7.600993949027892 7.54593537719419 5.681701427207527 -1.11331903629536 0.37104103941149 -0.2418482477631964
Ni 9.29066897521564 6.228863655630359 12.674999410229136 -1.0697540072202159 -0.7162892861295922 -0.47144158941843967
Ni 9.011451332717092 8.431160026806282 13.077672879456557 3.3743587262944015 1.6724722673991712 -2.789831535202176
Ni 0.36219518845177473 4.726294769332883 7.2004065672434265 0.7384542522624057 -2.7657449265666174 -1.3406598344710008
Ni 2.6656068128089796 1.4906736306597557 3.138888250195907 0.20935875977592333 1.5076072191602488 -1.7341705157399163
Ni 6.42838587548651 7.110098418871395 3.2235287138254627 1.1593638943695646 1.3411005215528453 0.9997089295766719
Ni 4.115358531970713 1.834110772906903 9.682985480660289 1.7551208927393387 -0.0018216265897710562 -1.1946581987954845
P 2.1281998100612087 4.161330579364968 8.506367059792101 0.8482359863739392 -0.12456352040639838 -0.18858656022557846
Ni 5.7982256401547 1.866532087334654 7.656576135320079 -1.2613873246919178 0.8670338358067327 0.19527399954808303
P 3.618417719433827 -0.12772937635008663 8.553178936415508 0.5492863656120603 0.6867136293550044 -0.8564807428812347
Ni 5.271774549167082 8.551823863118857 1.7275417449750663 1.2031562089641668 -1.1926763924787653 -0.5884604647083607
P 0.10540833371480204 4.399830919922984 2.791560736226118 1.1513214836810624 -0.46505625471738615 0.7052407416249145
P 0.3542312264481938 0.313573447288023 11.116887399464085 1.0449441472653875 -0.7463642511381018 -0.07052613104502048
P 5.244068554996035 3.466541625169578 3.463292053379258 0.8857941471333713 1.2165267167338016 -1.2317322208296464
Ni 1.7106847075682106 3.102122702845264 12.609062120241061 1.6974901295997475 -0.9065185241649162 0.8758894864251496
Ni 5.581888234846636 8.32983179367652 7.283045577383352 0.6316202879252864 -0.48776758027197287 0.1437004983461654
Ni 1.996189443742363 5.344782959453325 11.856420743708787 -0.5679716007263895 -0.7847729328232872 2.089495944188363
Ni 5.034325157699811 4.0740832039643 6.282581104819058 0.44785248924459004 -1.154727681149134 0.693521139195141
Ni 3.6540476837404006 7.467867530577282 3.403263329385433 0.44772162009368055 0.05416388763691317 -0.15902247341521644
Ni 0.3757803330256748 8.964381834059937 5.6852541931603096 -1.4995164717323142 0.48193631830217654 1.5338844076892229
Ni 4.258706127861397 6.265665474675285 7.871538936419188 -0.32073174963397666 0.48049238676679823 -0.26269578063616694
Ni 8.37658507756301 4.990910729774183 4.790828623765264 0.6158460558101653 0.02610312484495505 0.5731060937394775
Ni 1.4653578481375704 6.156227262721371 2.6727411760612823 0.329398167059723 -0.04064811253866548 2.7253721791765253
Ni 7.355983304367918 4.863931898482707 2.5674239866039077 -0.7262366271502912 -0.41077486766600224 1.8419519315919695
Ni 9.091621077515489 3.293200128237731 10.131151094865304 1.406924876246822 0.5803872007819231 3.093653139344375
Ni 7.5764408021290786 0.5865579386306671 4.477559300683147 0.4314416519867344 -2.592997904476457 0.4070017737768151
Ni 5.167777091355518 4.691659951510467 11.028462589064404 -0.2101583728590832 -0.31765799580465937 0.8542132870032967
Ni 7.540894541732387 0.6721098448344973 6.777178207879239 0.42950149754122807 -1.3562191223618385 0.31455158896519375
Ni 2.9347334839494916 4.848874495138322 6.583205557248287 -1.2719838692608416 0.250545004206246 -0.4996090529915912
Ni 2.933254714874904 4.037392990132551 2.383279105036582 0.1048138485832969 -0.8299942665549319 -1.684508629738415
Ni 7.1937930283192815 0.3516057138082185 2.351249338898392 0.9865667357677589 -1.4214842621182358 -2.089205409531137
Ni 1.1334532445853198 2.615114754281079 1.5007367007144965 1.1639106331999827 0.3783452863823871 -0.14140244634060808
Ni 5.829661108532727 6.414035305158907 12.81999504310106 -0.5511861537379347 -2.511185658994656 2.003567362545343
Ni 0.34338691990121806 1.3636482971961237 3.3295936582111194 -0.9890799891079158 0.6839147264536286 2.338353790500173
Ni 5.254233929829521 4.136386814220037 8.738767245406581 -0.4894282558038474 -1.4069259046880866 -0.7461526493479278
Ni 1.0520837437452761 4.984084210901558 0.8127705452179588 0.5807492121070321 -1.1912178056553677 -1.487832864746799
Ni 6.922424952480808 3.763346389177844 12.61928422772458 0.9027577715709033 0.5855067813966756 0.04089982353815537
Ni 0.8332035996636756 5.493543408183066 9.375256426368939 -0.6693018616364602 1.0951791321615396 1.3375305448133996
Ni 1.2039505375750938 1.2592509207040112 7.461705062723057 0.769848450302971 -0.08645051558476079 -1.5482481326100628
P 5.375641800896607 0.24347793306568427 11.886285368711356 -0.487078010404116 0.23142293866481436 0.4236905472864058
Ni 6.279365014592691 7.700220283976162 11.242459075026094 0.6901905321600112 0.5069492954067463 -2.4422978348840068
P 9.317547230722296 4.167041046105829 12.037965223809103 -1.5846307850041548 0.5507668068123289 0.7301717005386392
Ni 8.971691975522992 7.395631056348842 10.489994406748016 -0.4743731612429379 1.0918536673327326 0.1185093437925185
P 5.373595705321706 8.5145384214835 4.8545468300980135 0.8663224115620047 -0.8302580617392797 -0.4662567027833906
P 6.7976317232807055 6.150721405538 1.1346111486720254 -1.6780847284899425 0.853486179029285 -1.2892380283555989
P 7.77937628142154 7.3737378336974 8.099187530082682 -1.0108322931833431 0.4891469771180027 0.0036347685391098696
Ni 3.280709644796403 2.013953273506277 0.6058535499454276 0.3763287701729906 1.0076747213909678 -0.5230881099501379
