# total energy = -340891.41022345104 ev
CRYSTAL
PRIMVEC
9.09884725063652 0.00000000000000 0.00000000000000
0.00000000000000 9.09884725063652 0.00000000000000
0.00000000000000 0.00000000000000 13.31708267687948
PRIMCOORD
 96 1
Ni 6.365234915359053 2.137082594912613 11.560905854571114 0.339871298676905 -0.6623336578487432 0.1668172868692869
Ni 4.829122067252741 -0.0523911611396188 5.908922278011263 -0.9266142664735267 0.6949966952994031 0.39602239194717603
Ni 2.9291645245213727 1.5575406328377817 5.149116688435602 0.6853018366091423 -1.0742575515175241 -1.3377925402255346
Ni 3.302108066166161 4.336346710358077 4.791446471398135 0.21074586993143704 0.33079710428977865 0.02161834960072406
Ni 5.152968230379054 4.252300660436809 2.801567753224858 1.3450582206490125 0.6961804311948591 -1.0247015949662677
Ni 7.43677883233187 6.1947134233622485 2.6528025143369365 -0.7002196342612392 -0.4274327879376574 0.5198945427135047
Ni 4.936279188604129 4.43144785940832 11.414670095154678 0.11587961947915526 0.10510181213736092 -0.2748812669587653
Ni 5.608756774138506 7.801360533565526 12.595270062851903 -0.749626209718825 0.5155131258163573 0.25666731505389995
Ni 1.7140226038831383 6.2739643809041175 0.19599917353675628 1.3043170341759085 1.2357665388000203 0.34584345709993985
Ni 2.6577823133108356 1.5425821283373415 0.4626290569488868 -0.025971484363097205 0.5033793186673008 0.7276491912271017
Ni 0.8608792218096575 0.015393429387983168 4.881975449820962 -0.32559627681512954 1.1548660064992111 -0.3465749359493257
Ni 8.87612544238333 2.7000373588704725 1.4024489656170398 0.2654599736448654 -1.0937208024484584 0.12726652115985823
Ni 6.736731740327705 0.8610038760138277 4.978497838775687 1.443402916568198 -0.34040608813445244 -0.5686416302102207
Ni 0.5750535008399975 7.603406017804229 2.3040018533743045 0.1239117457550124 -0.42171079785221566 0.25487859858459333
Ni 7.621822084172168 3.8087955601539956 3.902384480829559 0.8739544741859658 0.5378418712205447 0.29835852414509906
Ni 7.5677931305689965 4.006686383986154 12.676583729013146 1.3297555288536713 -1.2667007664850314 -0.12845359948942395
Ni 8.044172365134102 9.043644314863622 7.072262642796758 -0.050942809596454204 0.18007312343792858 -0.32254103492857356
Ni 7.1486729402990665 0.8571405055692494 0.5445104911641601 0.41761991561229367 -0.4306772630168841 -1.0065223529540794
Ni 1.720828541453898 6.448771429847215 9.196164647916587 0.8203485159350518 0.8196000678048014 -0.6110082681018897
Ni -0.0799224524519249 5.081214722781445 1.2240879070280346 0.07484841256945819 0.20295517024242465 0.2551750467790896
Ni 6.415997382882139 1.9893992089353376 7.3231433319024335 1.404587486362897 0.5111378795667971 -2.4673403796749316
Ni 3.6241253610415085 4.43991888598369 0.3892714226216987 -0.8343324889189696 -1.216277319727157 1.2204077969557627
Ni 5.7650476693964485 5.323052977718911 4.733211120817742 0.5374749747994292 0.8367295283962364 1.542528713627782
Ni 5.33500886270284 2.88912049878753 9.235542638048585 -0.836630798034843 0.6042478094496047 0.5950098357911043
P 0.09751962258808725 5.696606142114022 12.271079053423541 -0.0999259243633763 -0.7290409293683058 0.4919355956067335
P 4.140730598280852 6.0154024451443835 12.517564999418687 -1.343595520060557 2.790427774025278 -0.5110545758243714
P 2.321579915931726 8.600994506200664 1.404206862861252 0.01921051149017982 -0.6759461064258553 -0.08435403806704826
P 6.787266736675298 7.628719010213125 5.836277993290423 -1.4086508577989931 0.12756811156067707 -0.01692042990442247
P 4.785329316546769 0.996087178638178 12.762132908462073 -0.014195317663775553 0.04698742449313198 0.24478624734559778
P 3.8367745147396732 6.303462842942089 8.226414991861727 0.2002241444645068 -0.29900515659016247 -0.16159794745187653
P 4.561807040660024 1.0467131634559688 3.6802552384215357 1.2058373553407555 -0.9983529297694098 0.5325693099676957
P 0.23156110722867812 5.6484004506034795 3.599354659914989 0.1673721309314924 -0.2905472556307964 -0.12847159721155293
Ni 1.70852690028322 1.0561759643564903 2.815430756544122 -0.6346529041040231 0.3952595456392225 -0.2465397397015947
Ni 1.7999157197494116 6.525620291775875 4.896438067158826 0.875732392021995 0.4254679509018028 -0.013186673893603095
Ni 5.78813144428551 5.621922805776059 9.304858564529606 0.09785670053917339 -0.6775067660447558 -0.4031453761452025
Ni 8.806346384589002 2.3718692434097863 10.348943980966277 -0.4923004351453199 0.12667850986687215 -0.05503677716016973
Ni 2.083317507873015 5.19151094635464 7.02205793459598 0.8268135548341051 0.08215651619509722 -0.06680780165316881
Ni 0.7619756645898689 -0.19872154856506016 9.106527356501692 0.11256443906299322 0.24486055222695896 0.275692450006151
Ni 1.6050002188927055 1.1576190097794863 11.455833279071948 -0.21418883417471501 -0.09396405035298655 -0.09915356497372602
Ni 4.05102506551331 6.9790613330042355 1.3843904839369772 0.12735856665303227 0.32334501888710765 -0.40955590765723654
Ni 5.972938126103293 7.885133618076202 7.90238321225621 -0.9974813257977336 0.018790650343941832 0.33981961950336315
Ni 5.218725597790661 2.712457285052407 5.035269184870605 -0.09106718842116573 0.6967126495492453 -0.08254500988276751
Ni 0.600499336415381 7.366280965622985 7.0233090260611934 0.5434317066034963 0.3106147158046328 -0.3305770178591726
Ni 4.751709076808859 4.655880019997038 7.032670829759796 1.430314458815356 0.8522078265374935 -0.3203039180679387
Ni 8.023818244350963 7.140292902193893 9.30900035969299 0.2648179691854923 0.8880754869683801 -0.3612317666305521
Ni 4.71460397866239 0.5976259205265496 10.608387595002222 -0.752655226353136 -0.9900698638250109 0.021907341596052593
Ni 8.632885965004824 7.320777631677304 4.82872080809917 -1.680920912387157 -0.6061170014478594 -0.36677609348754897
Ni 7.004010371532342 5.779341958064448 7.306603447789964 0.1733610015250756 0.8737040487380566 -2.151812799949713
Ni 2.274629865309907 5.6099123277100125 2.580997143311315 -0.7772414003329324 -0.7329636614614795 -0.4663338358782292
Ni 2.256586851669778 5.456360185405009 11.276798905803483 1.3523498692144191 0.31732015284926646 0.21628865412653717
Ni 1.1347081129838001 3.4964139442725455 3.5267358519658036 -0.40041717858076203 0.04417772295847876 0.9346949865991322
Ni 3.5724894042045277 2.7505086632889277 2.72351602372019 -0.7495904713848832 -0.9514518943424969 -0.039837700822228164
Ni 1.1886551769637932 3.361459845275875 8.307848762803628 -0.310301298329272 -0.14562239795922663 0.10339794207237675
Ni 3.6986085227450376 2.7999699956881927 7.272591957630205 -0.9797098607469255 -1.9659801483201884 -0.33612365870901467
Ni 4.015812527546946 6.805655506502177 6.16883175301462 -0.15078028801108226 0.2025345377652383 -1.045375064155219
Ni 0.5840568099660227 7.484356703398051 11.161725787544928 0.17942906209602646 0.2299448114573911 0.47801512887089936
P -0.047296716693270666 5.674832601195803 8.087051591599295 0.6900344661981213 -1.5306625583178153 0.15746926999548364
P 8.81628232553455 1.557968278647709 8.254446719760118 -0.9674994347236628 0.782733019575123 0.4585562488153393
P 1.9687084308124663 3.3961628478091344 10.40017503911088 -0.42615366411491773 -0.639401474532602 0.42017687770619255
P 4.1301577380439225 6.112487142844929 3.47647746056761 0.18966796621521528 0.15097029253470126 1.0494772592490507
P 6.742818868983906 3.894370216374579 10.449368865407767 2.324957571698925 0.6762597810115321 -0.8756064079670921
P 6.372495795280799 7.87465174630947 10.547475363628624 0.24688940973152965 -0.15111427431173327 -0.9435892037649685
P 2.3922506607339864 8.515838396942987 6.190219502819204 0.927346516653861 -0.6480735483853033 -1.6408988634682644
P 6.931237793068522 3.9498640843479262 1.4941098406091216 1.1842822548777991 0.004011692262554381 1.4985829041744514
Ni 5.4473068326203755 2.7978499643325954 0.46939768924686565 -0.9631858949499733 -0.10339177142478968 0.21469919815223026
Ni 1.5706338736991763 1.222211724772566 7.116848812962851 -0.11643960574768332 -0.35028349514916446 0.38439663478278957
Ni 6.76543860267496 0.6880975762131522 9.299624907723858 1.4671791930521894 -0.15663109036490444 0.3120385927353529
Ni 2.8399594283399163 1.628811901543345 9.303846772741013 0.25376736779828557 -0.28081228773121963 0.0656880862264288
Ni 6.690891749042293 2.0291156761764695 2.706110839256144 -0.9815456284040839 -0.14505392705026635 -0.33838288705683656
Ni 4.3163656423027446 7.201782910353244 10.185570543188174 -0.7885529686910097 -0.1417032654104785 1.1995633494065856
Ni 7.973365137626546 7.300268830494827 -0.13770286068133117 -0.16345891192001524 -0.3139458370603948 0.2606676944625446
Ni 7.822278782863891 3.8058566325666225 8.225069272387508 0.20364396877933316 -1.2301522779370362 0.8645437223950272
Ni 3.07302639475036 8.548266687721314 12.612289456202312 0.8184384433965325 -1.0183237164643817 0.09816369025663094
Ni 0.11989368740960907 4.7958020894664815 10.236974479426154 -0.37844247408188375 -0.06101716311332071 -0.2335307290364365
Ni 8.77578335744972 2.353316694336552 5.95489329269376 -0.632057375462705 0.04251216233059775 -0.10910193443568952
Ni 3.5502063278532026 2.6759618096562607 11.815128550187138 -0.04984854809101093 -0.5031741446350302 -0.31876896948065103
Ni 1.3269030585816062 3.722392908854618 12.64892414395786 -0.9207007292025692 -0.959569895463941 0.40374084363735635
Ni 3.226587635902383 8.449025563277093 8.112020647590843 0.681566023715794 0.2530577433257706 1.2225351277114107
Ni 5.6599104920834415 7.735721451165177 3.846998889135746 0.17807614761255786 0.2888680681561606 -0.2876560501259304
Ni 3.164606290003966 8.18636914635848 3.466343164757032 0.1934387461115572 0.5026856350343859 0.5251187672269215
Ni 3.4434586546177033 4.438053622344645 9.18529789492092 0.06996203101143433 -0.36069594873174016 0.3030093926535491
Ni 7.225676482627061 5.863042251798966 11.267716436708387 -0.5193224722601185 1.030657041218754 0.2909141520519119
Ni 0.522179190923631 8.849283843675119 0.07322752081480585 0.7743743631977824 1.3492151802401795 0.15847739954502382
Ni 4.942366317260329 0.2814045912027719 1.5510404165268847 -0.14399823209224233 -0.08658267028725089 0.4068958443265702
Ni 5.888136871879388 5.4620196682512825 0.36782453031148765 0.5894575385143074 1.0783137238647689 0.3955539369511898
Ni 7.906670588971909 9.214402376882937 11.319280512653911 0.8566524925724085 0.1363970227062167 0.7760594642096893
Ni 0.06952519996247676 4.861013526056903 5.788496308051001 -0.7313754910387533 -0.29281342595715376 -0.15482591883536562
Ni 7.695267977315447 8.94548595321475 2.843343289546555 0.3939107449208119 -0.3804271086120803 0.10236127327774629
P 8.820313114764291 1.7330846883894775 3.718648733305998 -1.030455209620593 -0.662797227748723 -0.19659708923488078
P 1.9499921024928768 3.5460754513062445 1.5313450522679721 -0.49009160041945926 -0.22793138057178813 -0.8665558677290496
P 4.918945885031539 0.989317636455497 8.256564021461609 -2.7736706091715972 -1.3572791881952366 -0.17640364500614134
P 8.915468856896652 1.8510239434592481 12.581007620148473 -0.9535560851696931 -0.8782878114539971 0.4828601156680265
P 6.481754750293745 7.632467735185254 1.3841511842603582 -0.6545609558818598 1.0739202227827636 0.4573897393110639
P 1.797349844889847 3.143578854541365 5.92742023400238 -0.39237039701688553 1.5690660977966782 0.6683130153606297
P 6.896880546722013 3.789515103319183 6.10902503155392 -0.04489300385794849 0.7566908298750903 -0.3111420490630125
P 2.5220366146234485 8.381321042603265 10.521826623764703 -1.2430692431090204 0.9488321973314626 -1.3062384195683374
