# total energy = -340867.8329947321 ev
CRYSTAL
PRIMVEC
9.24559304905321 0.00000000000000 0.00000000000000
0.00000000000000 9.24559304905321 0.00000000000000
0.00000000000000 0.00000000000000 13.53185998615567
PRIMCOORD
 96 1
Ni 5.0824782215839335 9.229810923871451 0.17916295320608855 0.11309460053485039 -0.048698750757283873 0.5887713110805601
Ni 7.053056209089795 0.06384821718480593 1.6183967023020926 -0.2797771615984859 -0.5542491089339745 0.622589802291902
Ni 4.827641937552422 3.98170714657368 2.72967354481026 1.072853729191462 -0.23466021465518944 0.1543474365370503
Ni 2.0394391652973467 0.9466193003972805 8.36747999799805 -0.7067168119498086 0.5067266378729788 0.15153002169291324
Ni 6.671333404648734 8.384588043565364 3.7660518371990914 0.12191245593679649 0.36762070087603144 1.7177241972584352
Ni 0.7503177911664773 5.980706087426887 2.5593623224873037 2.0784291448512398 -0.8575397802733682 0.27456810659372066
Ni 0.8061223423095818 2.918223548742946 12.885592420672653 -0.039835643939699135 -0.5844395164744257 0.9772516290144202
Ni 5.357340460381335 8.18772162859301 10.542604714707116 -1.6776455840699946 1.048825741707981 -1.3397982578016538
Ni 7.017996919859759 4.681681758471573 12.352761490884053 -2.2493866791411454 1.1860524594043445 0.9069144740517541
Ni 9.191765308053519 5.494887149694428 12.342816006331113 -0.05896645123187909 -0.2271327959298927 1.3829701652034376
Ni 3.1341543767934454 7.925414905295185 12.30985176850918 1.976360720223564 0.5357770182717161 0.4257461442638538
Ni 4.457485370143739 5.471070501736471 5.742948263064607 0.7894091460437179 -0.14139267614859521 -0.6991600826484733
Ni 3.5159603915728694 6.140664094538927 3.45235625804726 -2.2748673399107533 -0.49887526014936023 -1.388127541034661
Ni 1.5634482930848057 3.1219039658678662 2.004149660797841 -0.19917256327154084 -2.814528266617908 2.092360667330668
Ni 8.560762821064927 2.139421009636379 2.0828916039902063 0.5395979346797029 -0.9846990864314009 2.3255959766138723
Ni 6.225973182546718 2.076883817560439 12.107239217393243 -0.09399567492187037 0.32325837271057234 0.8823622386336867
Ni 4.574469860288161 8.376932692436021 2.6225559516769916 1.065973457131861 -0.7911297282792504 -0.43284058921679003
Ni 2.2743789328670854 8.52784850944601 1.9521468975585843 -1.0417865754730122 -0.22966481832312702 -0.6403687235418777
Ni 1.232012269794105 6.029217714692182 7.067622641099796 0.8679491485321503 -1.1582773461736051 -2.4505348780818186
Ni 6.341311957110194 0.9875772780578976 5.929512313588376 1.1517012356179843 0.32891120012097547 0.8293579185225137
Ni 5.1928890949977236 3.94220072703783 0.013433846848956387 0.26875921322142743 2.3721738243734114 0.8957767122673798
Ni 7.786259482773752 3.5468221815121788 8.496993191421907 0.6862672858462052 0.34727556156077616 0.20612868287439987
Ni 5.821626411664228 6.016375585804914 3.6509090692104245 1.2513944751452641 0.2569038565447382 -0.22628047523192643
Ni 0.47403358014239333 0.33222097414925317 3.743359453368342 -0.6989821623097123 -0.20412605062207428 -0.7082553600815221
P 6.558093379730621 5.216594795837864 1.6487490600587607 -0.6278451371535703 -1.369238674549958 -0.17008798720075868
P 7.871790465017176 8.69543413090794 5.720931732093224 -3.2091635484095695 0.5066441054615016 -1.237867644303423
P 4.635139442547522 4.365648893371073 11.358385928181946 -0.17417938366131291 1.3067518688696462 2.820007544564924
P 2.9046602635898697 4.05060530673777 3.67568633429681 -0.3009329697404946 -0.4917378777736305 -0.2509029017662969
P 2.436962688434118 0.9919781803979549 6.228187502106474 2.6195746265237205 -0.32535947821397515 0.8209136444099023
P 9.056243403640577 5.377967378702065 8.377290496890978 -2.2831370361187133 -0.30290577719614936 1.3928779112354528
P 1.1584081027159616 2.4902450417655255 10.863160523977271 0.33136737497095187 0.2319369021867554 -0.9336223223602437
P 8.823309929784688 2.239365871602806 4.2892211221444985 1.3483032099488714 0.5463666208621042 0.3325184578562596
Ni 5.072909032672254 4.9469193347983875 8.054867077804245 0.9492944816798619 0.2665300667805926 -0.26656940465896023
Ni 8.75047314693811 3.492726215983449 6.174330997440365 -1.3191013915739345 -0.43771745769311715 0.1735713177636688
Ni 0.38059299295796273 7.87302012890631 5.876033953682159 3.0412818248315103 -0.20123407378625988 0.5230408016519702
Ni 0.437948954631869 0.9798572077764948 6.0549796354491905 -2.6593593626208265 1.0393643391847647 0.5514712890785213
Ni 4.569865554898773 1.259203559252316 9.754968935903719 -1.1072478904006158 0.1676816917521112 0.5319136786615678
Ni 8.294591439829823 3.8562536931025932 10.959832445968111 1.247431633842774 -2.0940498821076328 -2.3572521700665727
Ni 6.85643942513253 1.4437086161812724 9.792249016608718 0.2932430572954046 -0.18823868996785648 -0.27864896153131363
Ni 2.9225412407446405 5.390680069285215 8.590322831488521 0.00668049734396914 0.3083081791586432 0.42548929105804134
Ni 9.127619382769238 9.066792625426304 0.33903682542045116 0.3403502951958525 0.39606044427396303 0.33046003266533414
Ni 3.739333922110231 6.325196888247338 10.551644131131221 -0.5883298526677674 -0.13353872732181518 0.0928859867974594
Ni 5.605408970226035 7.666362630786645 6.726159772036422 0.31612921786495873 -0.6335200760511606 -0.6986643739589773
Ni 6.731198620303926 2.659226747793314 4.1273659193177945 0.45880873114577764 0.9148152169560696 0.47198640617831616
Ni 2.6243431248331537 8.022771001179224 7.132467533226321 -0.35128134028605956 -0.5134048212241029 -0.052901990205354056
Ni 8.685042084205786 1.0820117665061018 8.334854148885457 0.31299555733198353 2.6408970421505806 -0.20488195495149233
Ni 1.1831770467685112 4.5120713521094915 9.911965579529372 -1.2168969555890268 0.27881968278122304 0.2978386470858871
Ni 8.513832190228516 1.3627542025477815 11.345923793173199 2.7159362305746066 0.7726944043921983 0.55796718121551
Ni 3.1436588465530653 5.5368066690427895 12.787756478504056 0.8147864484662419 -0.5855751727407658 -0.7887560858407513
Ni 2.7335058431715074 8.783914457366654 10.117460906589908 0.38572666644812276 -0.20877743335115656 -0.18018162399133483
Ni 1.9904467671881794 2.226422041190873 4.475243380909596 -1.3146585253112326 0.1332196534194996 0.32198156288067775
Ni 4.2757539911601965 0.5837122025785942 5.078006128176611 0.3176489969435949 -2.1118730263319825 0.7342998637743999
Ni 7.033289130932143 9.020130116791284 11.695627259412397 0.3284080352323118 -0.7114867225346263 1.2659788007173425
Ni 3.1847000345520446 3.432583632533717 10.194903843944505 0.05039310774057128 -1.2407218259227664 -0.940948937928644
Ni 3.7675884547808507 2.5417245044324144 7.836949371785512 0.6167605972046345 0.5413971926719708 -0.11162161553374969
Ni 8.081748639891885 8.29671792625464 7.80134736623749 0.681224324105659 -0.6296526226759542 -0.12854718764449474
P 6.9283146662913655 7.08167131989332 12.614034556867553 1.7487329869351236 -0.6102078836877814 -2.054844158442448
P 9.360608330184036 8.01476431751013 2.311173619931636 -0.8068836486793974 0.3460920827756362 -0.6075948715449664
P 7.00266772641477 4.743090988183045 4.969332501715965 -0.016918115911577315 0.8493276767762211 -0.7169302621477007
P 2.2833841405965303 1.3304408544837054 0.9224605654927223 0.08771986921548763 0.16957916588514022 0.7280135165450559
P 4.457004599299867 0.6535940938539914 11.870607506276802 -1.0673909063046778 0.1338421174948469 -1.300110966514361
P 1.5871355027386436 6.35192589804798 11.504097400807021 1.2520045979254373 0.5067369222856241 -1.5177234816586442
P 4.368182185894551 7.532384740429984 4.728802848526901 2.259702973465489 0.5321687320951674 1.6313492721066163
P 0.9064656893408335 4.538208643948445 0.7563403705452868 -1.0647269863192697 3.3143090693006725 -1.3281961547863512
Ni 3.0779041880604443 4.613292105930809 1.2797583619464656 0.47770428249869995 1.0651391341560235 0.9425304234831509
Ni 4.318579578637393 2.7882582458139846 4.996206667329084 0.3488339071868315 2.2554755656477026 0.5272671810284919
Ni 2.528494060632788 8.548660339629768 4.416460824212432 -1.6068579718334712 -1.5043056655908416 0.8030092533256558
Ni 0.7376383847186735 8.337000975615206 11.806710287448292 -1.4429979678202955 0.03846293196188859 -2.6772907502882664
Ni 2.0294354335075524 0.7385490756440846 12.46988004212917 0.68569315851029 1.5759029182128537 -0.4431381144880562
Ni 4.399515501084581 0.21922965568691263 7.515040007677994 0.4001999203636334 1.0825935821870454 0.7557847731210532
Ni 8.069997490996478 4.380867139698246 3.0154529800008123 -0.2957640239450455 0.5681811456340344 0.23316768927006296
Ni 6.9233312915827705 6.664223543515322 8.627629724413657 -0.9897263644426632 -1.779503178238445 0.38018645335618395
Ni 5.8500381194184214 7.020909281702444 0.7749517495590165 -1.0167980238484748 0.43729939631909204 1.8307462926841374
Ni 1.4940601164836924 3.0895258986517304 7.060992626250941 -0.2729226005704977 -0.768281105815851 0.47238287028578646
Ni 8.46397995195627 7.04076881579161 10.50567596654187 -0.6999563532975235 -0.056090929456296956 -0.2013037506819307
Ni 3.550427962841217 2.7664478915698774 12.596063897459215 -1.1049069009722647 -1.257966471935827 0.10330075437288018
Ni 8.425157706313623 6.524420929473291 4.325540585721067 -0.36284821918805255 0.5594015996691915 -2.147375075893334
Ni 3.3306971960054996 1.0382061461548593 2.9711231345178866 -0.9103466396617547 2.3254213987092207 -1.80091558247595
Ni 0.7038873469195577 4.344199117259869 4.475635394059215 1.2631855542429213 0.38103697428193734 -0.582814579276493
Ni 8.04691124489748 3.8319008007418565 0.6534443152449388 -0.19906740515224425 -0.06320105813851697 -0.5099515725681798
Ni 5.895202841962917 3.7313364840342866 9.928799030980091 0.8087574686633427 -0.9585255133598266 -0.4795819591373869
Ni 1.3405462877981649 6.890102629796708 9.284723275275446 -0.7489212132320006 1.3163371985652361 0.5889386898963599
Ni 6.413649477926598 3.4608381652043367 6.522667965011791 -1.2042011052889132 0.6186153910251863 -0.7147016299274982
Ni 8.380917543084266 6.398754827359723 1.0107753958340273 -1.2953235724280465 0.4799105461213993 -1.0284865159299963
Ni 1.415814661643556 7.251975145741755 13.647963691630586 -0.23048217201809984 -1.9406992622662127 1.860429421570867
Ni 6.099253082813892 6.115913641672681 10.789195778766224 0.36413582765122454 -1.0672176139516074 -0.15262196920551133
Ni 8.002190310824252 5.988620315164469 6.4000288700959835 -0.5358284403349417 -0.10725665369683464 2.7913261174698314
Ni 5.5700908043877595 2.1781970273132703 1.3730510196404744 1.0407691899520914 -1.4122668572850259 -0.4729554549598049
P 3.095137973694618 4.326604753492791 6.863927431025833 1.1212619452915205 0.5579023894158457 -1.1354585485068769
P 7.815198189337574 1.553333614177195 0.2810281248700574 -1.5360325643804773 0.4373767865242467 -3.176422863643439
P 4.216619177363965 7.368127532502553 8.630092750429185 0.6522215091154058 0.12427092886664405 -0.4448671813640209
P 0.4424053305308346 9.005290939783318 9.547593055196192 0.219453425007764 -0.9400215410183682 1.1293416369758615
P 3.6158405343872366 6.908418149829593 1.1091864138966403 -0.20693266683293396 0.07257838558835887 -0.5975331164335903
P 1.4083996959361487 6.410709379304459 4.783851110150223 0.6215258798037618 0.009807987229357303 -0.6825957505318889
P 5.934062069978171 2.096863544360573 7.9721199436587 -0.2855685714692824 -1.444460668408751 1.0894422296777624
P 5.380685583088572 1.3851655203467288 3.3292567325925146 -0.1372827677452797 -1.6643321547905399 -0.686180896779986
