# total energy = -340858.32277961145 ev
CRYSTAL
PRIMVEC
9.47984682264263 0.00000000000000 0.00000000000000

0.00000000000000 9.47984682264263 0.00000000000000

0.00000000000000 0.00000000000000 13.87471406253888

PRIMCOORD
 96 1
Ni 9.31363652038703 6.842458529446949 10.999234785365793 -1.6567376302727337 0.0039780108111415365 -1.9435249046404657
Ni 4.261731430364208 6.662635317924098 12.060220172890634 0.7191185280482711 0.45855573459470705 1.4395102663820112
Ni 5.60146128145048 2.156067887559852 5.986592376304761 0.4112903738498401 0.259576775391211 1.0385647261016049
Ni 9.39809247438867 6.5153943394132146 7.260498912023385 0.8208151711588251 2.330293896310174 0.4764716956431795
Ni 4.801931013126515 2.227394253920648 13.48003387269338 -0.9512071253215425 0.4636259500287628 -1.8780641039334947
Ni 5.769368325706517 8.169693942619409 9.443171989268453 -1.152194887424951 -0.8673282271186997 0.9692102467671824
Ni 7.801591496342201 1.826377779997949 7.38627372572999 -0.5774887961882055 0.4689396489321924 -0.2335726380179655
Ni 1.1646750024394812 0.7921710633524238 11.3826073686624 -1.1207325551506118 -1.274109914464909 -0.6216233246135745
Ni 1.8729143473112329 3.646460941805631 13.207035144199901 1.9363193880309622 -0.46740701433774984 -0.17431899456297076
Ni 3.688314464862903 1.467423385759308 9.53144263357094 -3.1042252584332664 0.007683998907819026 1.3467163250777257
Ni 1.5373088154259464 7.092404166803242 9.116686069881718 -0.05245641802750321 -0.42296549619492313 0.7185600844416399
Ni 9.008347538159084 3.619623495876948 2.7737216095717923 0.4921641666777717 -0.21627734127262754 1.015636913660838
Ni 8.333240257406285 8.534592200721448 0.5539396725288316 -1.591329794290885 -0.8601152543100284 0.39590334987080855
Ni 9.107866968522673 8.842706177257678 6.8768495172039525 0.02041301643871323 0.3068470212320844 -0.39559610304303483
Ni 8.614156553840289 4.113115874085873 11.089809032409597 -1.7776527552932675 0.8338614628198219 -1.0128536944887458
Ni 5.6313227984675605 7.576549416193487 5.086303661657164 0.9316520860077502 1.6654230738618738 -0.37900297457104404
Ni 3.762314147985228 -0.2752359723080907 7.2971006000243195 1.383100777244031 0.19334772905964764 0.6218236135498387
Ni 8.84108512347675 6.043354854223226 13.100213387944804 -0.2331646039462694 0.2296095396051594 1.0834402464580568
Ni 3.608465716343899 1.2059597346964277 1.624840031688011 0.3909462629758493 0.3664084257354851 0.24517062726821004
Ni 7.603860854455775 6.457045883146508 3.4464096334538765 0.17820393143967375 0.46358146994407257 -0.17085289039124124
Ni 2.7564550168432493 1.420431785805764 4.319656137484672 -0.8849904202851532 -0.42267367598611727 0.6392482367841894
Ni 1.8148218469046729 3.121514432338716 8.655227041562448 0.020532572735713024 -1.4730708759462758 0.285387822917044
Ni 1.8612541359045638 7.411448406552388 11.756530440796269 1.2337399952882946 -0.0057502722202159035 0.10519257207895431
Ni 3.0452301061684177 4.909167038681183 10.134604513975258 -0.12594240303179602 -0.4049132666789027 0.38870708923268543
P 1.9965694673019585 4.514919175282355 7.236773699757149 -0.1361324561909204 2.2881612288061817 -0.32615549175270925
P 6.7337626075047785 3.4529583115349554 12.912405301570052 0.16338512125928634 0.30917978313031913 -0.12467484917328206
P 2.650441891509281 6.805951639912735 4.430362734905993 0.7089477581628565 -2.9791668006683207 0.3129513343576094
P 5.923776068301499 7.477333340923406 2.319380050133927 -0.5833007748842921 -1.3259986329144002 -0.07445786199925887
P 7.4019590800336275 6.10486957927841 9.436775936718796 0.9844023811265885 1.2351001088606148 2.8324172310831863
P 9.807754568476312 4.807391404809638 4.738672944268333 -1.7019823610431464 -0.2837641712706919 -0.4468826691321529
P 0.9321921906378436 5.078543459171392 11.731528293183302 1.3517883402839945 -0.15457369361524348 -0.01152728391330918
P 7.385729582531011 2.5179705141135127 9.675253803555862 -2.2556041208057667 0.9789089621121853 -4.641488095676419
Ni 0.4886311128354776 5.004676493902476 9.347228357069579 0.038773007003139674 -0.10733018724724742 -0.5970417786194685
Ni 4.969288226275569 1.793786067139308 3.8303367877808006 1.12968642190979 0.7998858772053257 -0.850113148791994
Ni 3.5217251192942873 7.6937203210605025 2.7879849868746174 0.9810437490670006 1.2394141628549364 -0.79132101835445
Ni 6.087085386921572 8.236308825184176 -0.1477453063538378 -1.1095037763143278 -0.4005004823231877 0.1913741502730446
Ni 1.4613562838891714 3.21829418701407 5.644871395331309 -0.10219338024131433 -0.3637216229319413 -0.2068439637738696
Ni 9.63218780810923 1.2308727717506773 8.66219188491243 0.6770725067208145 -0.2048531585960859 0.6277363794898478
Ni 6.437716475782119 9.65256947845422 2.6673027468002584 -0.5998365677557863 -2.2078335382897074 2.0544844611101842
Ni 5.359535594378776 3.0147523991176524 1.680824214194698 0.060768280327308244 1.1357136019404763 0.687316553046326
Ni 3.673032952027496 3.5001774278086297 4.892432265350944 1.3637532259553546 1.1825477886851956 0.4394496098928754
Ni 2.192897091880917 0.5070826863980312 13.443931772612064 0.6312865587349515 0.261780210800433 0.9000468003976436
Ni 7.603500620282234 4.850989219654573 1.281749212870443 0.24517962612927452 0.17134217132283394 -0.027187359048069307
Ni 7.037089261471603 7.008403245441863 11.710591103823328 -0.4149271992714789 0.38556494405927794 -1.770559595891912
Ni 8.226108510165009 2.736936012545419 5.1506405370666295 -0.2665354660972313 1.1491021074322403 -0.4776302347276548
Ni 8.919161140668074 9.161826255780202 2.953954350470878 -0.08817109782029331 0.2231262458736609 0.6571058337909006
Ni 5.537415437333849 4.542041016611201 11.306393193357478 0.6549499637901623 -0.3248964225346276 -0.7034620524579369
Ni 1.0063994824022873 7.258680677431678 3.0210659770012636 -0.5813719332926955 -1.58778038637673 -0.034863901756720606
Ni 2.6212060443725593 7.222041070044055 7.089243585922767 -0.9443870170759157 -0.9258917864852054 -0.7862939974535038
Ni 6.383984704844719 4.1446932433506 3.706727171054101 -0.07499265145680634 0.9406694590150123 0.6249490465526978
Ni 4.454456713207773 6.252641429202931 1.0354362527588952 0.058767447847195564 0.6545576134477501 -1.0609430937968052
Ni 2.0782573060753475 9.313200447440115 9.33157713021396 0.26173187406100085 0.24302041369442662 -1.3753255041739862
Ni 5.506492177489496 1.7907430363575676 11.055843689768173 0.5871178346375372 -0.48139664374862257 0.37406234273631706
Ni 6.953856207690664 0.9467883105588587 13.015688231062457 0.3801753976125904 -0.46362492158749824 -1.034445818837225
Ni 1.9891657070510573 4.632971705889876 3.2856428097112578 -0.040162688261814704 0.12553025519504188 0.2300276009791845
Ni 4.178801731676776 6.00061970542545 5.680293790406236 -0.43864973969939947 -1.5878647185604202 0.6400815313187622
P 3.7046198011388958 6.895668908817383 10.036204653503644 -0.29446998772397026 -0.5370054913621783 -2.211315840411353
P 5.361450523406538 4.230580654199724 6.491034925404615 -0.8839316400033358 -0.00483033150910781 -1.1546124957275083
P 7.119431209665366 2.314002133116851 3.072999421024967 0.7350994768575598 -0.44775787264825473 0.5717706627575055
P 5.977394081078833 8.980855982810027 6.963468772216161 0.6772044043129886 0.6489055573682954 -0.06491135596140434
P 5.971156341968598 8.944586089442616 11.537531762901011 0.4297151562139309 0.24309369013452328 0.5228381987228609
P 3.0785328075274654 7.954491943316321 13.7648814615423 2.058274781390552 -0.5227932044175384 -0.44400251937088053
P 8.954805364155128 7.858081902661178 4.7189292676043735 -0.3417754576781533 0.4372130072528728 0.9521540626158441
P 9.19944228737505 6.768089132304413 1.3594915394589087 -2.0719998442861285 -1.40766021175095 1.0900487529135097
Ni 4.948261926356877 3.267286034615425 9.21186657442349 0.5630489666137917 3.483500512829091 -0.29142117359531744
Ni 7.055356926008718 7.140286872343961 7.6032598321767635 0.5416944121974154 1.2948941982001119 -1.073597806446338
Ni 1.7471547013593032 9.266256246719932 2.111273716064898 0.07725727912126695 1.563229436510243 0.07181836749388276
Ni 4.118936499942535 4.572404965501901 13.080497202836193 -0.4308474700461612 -0.48144935136342887 1.4160548635725483
Ni 7.1415287322580046 5.4715968618895365 5.754703950889463 -0.03823590355274705 0.04269548198599744 -1.3916980319947385
Ni 9.11316620281237 4.507325818098012 6.884521557115674 -0.050210559416119974 -3.2372821610226574 -0.6698461641757044
Ni 4.340594274829315 5.3987631999078785 3.2915677138813133 0.017018646045183595 -0.0332865299672717 -0.18404547782211528
Ni 7.914932543153695 1.1827151506564662 1.2965197619702247 1.8858447763201778 2.419644873371181 -0.1150679222111373
Ni 7.5276618469055245 9.260919093043546 8.799634493903042 2.0775117752432926 0.9412379299239726 -0.3383000975350432
Ni 9.139245261007286 3.6560924660244734 13.284456103986184 -2.1975519538580413 -0.6455060447684432 0.8680303953920471
Ni 1.0568227868511275 7.879999308167047 0.16467915646418996 -0.36299708606109093 0.06255982501009226 -0.545800206835673
Ni 4.725096855849235 6.528277451040583 8.003351073064266 -0.5362770978365861 -0.3754427680236115 0.2582297744450133
Ni 3.899307412243583 8.763198703218869 10.841992568615856 -0.4803790011173855 2.3879208027950227 1.052807094953232
Ni 3.4478676338720438 2.3558177367874347 7.148794086747494 0.08152916702374345 -0.6920134443013631 -0.11955526855852958
Ni 6.301642756650957 5.695965872924534 13.36524809724906 -0.33781955835419886 -0.9682368271103196 0.5598566849287391
Ni 1.0066554382624338 5.151528798699804 0.9679473283309609 0.1665277806533261 -0.5713279187931322 0.5777029690815406
Ni 5.55902000789954 1.3276809659660478 8.521904373935525 2.4222200902975253 -2.252229805016895 -2.103657580400726
Ni 0.7441433161576204 2.2454154424442887 1.0705467608783104 0.4758299482941225 -0.7790671406877615 -0.25400930860576254
Ni 1.654858914159847 8.48743944337448 4.957435573981457 -0.6695317182590792 1.6887365517768336 1.2280092634521045
Ni 8.165835645023867 1.8720706409574168 11.284234999746136 2.4609344761485876 -1.8265772489081122 2.8216731051928052
Ni 1.6281067868512127 2.978861699617124 10.865996488374252 -0.29717427402901075 0.7615471295261271 0.9236842373109254
Ni 6.7089633286105945 4.911224165409026 7.933339561436889 0.3510057180271697 -2.5194543267613514 1.0047894294233728
Ni 0.4379727081891697 1.0885328739692643 5.352420969451373 -0.5249696432435669 -0.29333793100205613 -0.6327965676215748
Ni 7.135793425021391 0.543107999721303 5.060108001348181 0.33708139463659365 -0.8349600952006395 0.4114132725809495
P 1.0510969594611859 1.8728764279245445 3.19656732642631 -1.1423653029290393 -0.5128911148124781 -0.14157573869367876
P 1.837478680450965 0.48591892870259307 6.959029360019622 -1.1769453548967537 0.6076915450238308 0.21198051366948656
P 4.225926049483729 9.362277613661519 4.121303617656556 0.7082607593981608 -1.4937556579891371 -0.1871518846615809
P 5.797314913695835 0.8923436551517185 0.8813811604601152 -1.9325812611447684 -0.3278472776328354 -0.4132647239673915
P 9.32783733070182 0.38093531471721326 13.207271192382036 1.0649437303157658 1.9612086950734737 -0.4774451153000423
P 9.552841491463848 8.73496771982939 9.839003935046188 -0.33999342607706606 0.3248218605429503 -0.04502310167790956
P 3.253938410501124 1.7749590916485398 11.867930962993986 -0.17846027042485396 0.058233686830912616 -0.35146620260335604
P 3.012913308863267 3.9854602587995256 1.3143826370544416 0.9062626994003683 0.27604983334556976 -0.5232166651082021
