# total energy = -340887.5659814548 ev
CRYSTAL
PRIMVEC
9.08617109216366 0.00000000000000 0.00000000000000
0.00000000000000 9.08617109216366 0.00000000000000
0.00000000000000 0.00000000000000 13.29852983762967
PRIMCOORD
 96 1
Ni 6.6685772172583855 1.917609154016523 11.208852418976127 -0.42700135682719365 0.14403088510239065 0.7332182006744469
Ni 4.707681544079143 0.842554286606985 5.84180470125042 -0.04353160473404761 -1.95793748052137 -0.16126961757818034
Ni 2.6370612685890222 1.6080160458235375 4.856384003212907 -0.007208601933297263 -0.27168307173644174 -1.7175611893180098
Ni 3.3722142868376723 4.650311459697652 4.588604545845892 -0.4733886858424815 0.5304265525930799 -0.24094039123694636
Ni 3.598805221951008 2.8826604736621415 2.7355344652157685 1.0984801715103145 0.044611725172103815 0.20401883562024864
Ni 5.568877927950223 4.579911805946023 2.498740668564268 0.43339851860278905 -0.5239388879862074 -0.5645929140621437
Ni 5.101975939349138 4.568708556968771 11.149340724064272 0.268062444264719 0.553340481076776 1.4055267103477147
Ni 5.794760141717066 7.9094846917697055 12.441545994805017 -0.7231842134772125 1.55438946962111 -0.20882062788426617
Ni 1.7890398328258221 6.7437198523288515 0.1956098174833753 0.4502423296330052 0.16896441511927676 -0.20705710822594017
Ni 2.7061252551876454 1.2707828051173289 0.39118601613364773 0.39179909789444783 0.04943202937888261 -0.7805239277389461
Ni 7.914164069890781 -0.0842106338371317 6.847665649814478 0.022297377945619663 -0.5985939535979369 0.4542331959599532
Ni 8.879515233182993 2.5406115622682246 1.0780587555781347 -0.1511970638335267 -0.45384881603734095 0.8706886589505006
Ni 6.967712142505047 0.968694874260281 4.59267424188556 -0.49563078507013353 0.2844449993878005 0.678485070797625
Ni 0.7303636974571577 7.786757778602017 2.8793313005678467 0.4842467116029079 -0.1933122478360219 -0.5493308456967507
Ni 7.85224181378374 3.789351316275402 3.4998668133634863 0.002069738044835145 0.09497809343979771 0.25268364781580355
Ni 8.058625104350918 3.583431420434777 12.19011074202866 -1.223913496116176 1.1249517354382819 0.44858988163124675
Ni 8.519175859346893 7.183081656298911 9.021110489275388 -0.7501183188638951 1.235120163465273 0.6379338888481401
Ni 7.041019371011519 1.0135169563404032 13.584049327590018 -0.20928548333582667 -1.2796881798836348 -0.1180995099486095
Ni 1.849626421779857 6.33165290636988 9.105622783993336 0.2369891198986822 1.4960161718885396 -1.1829514518815176
Ni 9.824059064635861 4.764851732696236 1.3246892410721123 -1.5738185248799992 0.6908839586826102 -0.42938888322276375
Ni 6.541398080247345 1.9935695444867882 7.035812994966128 0.28859064612505786 0.8406802855138683 -0.9893466125057413
Ni 3.9495768576094528 4.659588440399823 0.6694709045367535 -0.0182957129853943 -0.014990302761245149 -0.3162991677839198
Ni 6.081883148757782 5.665354892784348 4.700285400796512 1.3064142830245695 -0.2757526138201251 -0.09057970726178595
Ni 5.031485423886422 2.930671801801482 9.51565624485814 1.0777776488556405 -1.5643769198511253 -0.5584289513432771
P 0.202456247413919 5.731638511023652 12.436213320981212 -0.3413157444329154 -0.793324421937724 -0.7619911590420814
P 4.163410808485915 6.173780683353029 12.386450179052082 0.7796924329765862 0.49709734231333097 1.304140142278412
P 2.294966926339561 8.410350787975796 1.5437995315115036 1.1612904219683162 0.4340690623072525 -0.09335804133787147
P 6.503990313792071 7.783341378265077 5.682581364589679 -0.9135592330617816 0.4979239519796845 -0.43672218365938337
P 4.793727584480268 1.0704145598242312 12.57328093801005 0.160467176281543 0.3053454969858935 0.2880327167390588
P 3.9478777436120915 6.419834196981593 7.976417971243296 0.7065478904721122 0.27445729204746927 0.26329381923148204
P 4.951318136192743 1.3873947251287386 3.692376429264511 -0.6665469245991424 -2.262744845615606 -1.1800707878996128
P 0.3227435236388723 5.6109741586976805 3.3859652981938564 0.6690470653131768 -0.5296076562362104 0.20988789280651593
Ni 0.2935060422447072 0.24661413038598162 5.001962636719437 1.4312706520810383 -1.6319372833996024 0.029340400835330117
Ni 1.813381685226521 6.646143460790553 4.682066719106089 0.35987859503676733 0.10279373282947457 0.5491328707533317
Ni 5.782802740537775 5.17919930760354 8.855397809208684 1.1451148406497182 0.9535614844863318 0.44259586883134094
Ni -0.11852546764694089 2.0298778842378864 10.112427785735607 0.050254525280177965 1.1352803710577997 -0.20783255293938396
Ni 2.4139685093526073 5.388917222967678 6.851096588025192 -0.2428538062095753 -0.022320003653438978 -0.18053437934506325
Ni 0.8849839798341379 0.17746382516182418 8.802137400019742 -0.5183230844613267 -1.0026628699986733 1.4585261453628817
Ni 1.9161190219546658 1.2641044693522994 11.451364143106447 -0.9738981391611551 -0.667021807353032 -0.7377865367714197
Ni 4.006174617446687 7.098344024537463 1.3327786592103514 1.7073199712059755 -0.37822727274728407 -0.5989096850661427
Ni 5.658549350623794 8.170557646241253 7.733759959758121 -0.2310187612478602 -1.1389675901013996 0.4972459520760533
Ni 5.034293050759066 3.0679820195989285 4.8773021863397785 0.8433537185809734 0.730581020161916 0.24774198753981203
Ni 0.9929095202654554 7.7853675944223575 6.856988061372193 -0.9638281565196627 -1.328015406234113 -0.014215372268433581
Ni 5.100104188100709 5.00309113917116 6.684133650813905 -0.7844669715470941 -0.4296796749903051 -0.16241350137463645
Ni 0.742802665705219 7.407728150794944 11.168424409244261 1.1348725940964197 -0.24607771246351168 -0.12750100576816753
Ni 4.820668081818107 0.49644839981295147 10.405261451318255 -0.985652708593922 -1.021385128998525 0.5670735143921524
Ni 8.201014491798231 6.977897740318105 4.5962242089378025 0.6658236732798727 1.211842680994571 1.1891478105002165
Ni 7.460682356017518 6.166102868766023 6.926153813087235 -1.2104877096285733 0.2914147458374143 -0.48922488154378974
Ni 2.5076560196563045 5.714193062494597 2.378814113332337 -0.15742170458699983 -0.3141319849292719 1.620989783249163
Ni 2.484777040804136 5.59233842175336 11.175712427090698 -0.6598049778896184 -0.691229514947487 1.6641164392353083
Ni 1.3111254048407712 3.443976866255634 3.433640438002168 -0.3315069858726097 0.867104798253984 0.6872273357666294
Ni 1.646032585743106 1.2729544000123518 2.4867714553625357 0.3732334190771185 -0.7764271319617532 0.18446611029930166
Ni 1.290963191150159 3.5032641327410983 8.22071240214518 1.0877843823593651 0.40923271998986294 0.6133888525189243
Ni 3.9654594847077806 2.905721175936488 7.105630225149677 1.6306005668660497 0.07238812395442372 1.931440719782422
Ni 4.279195886926417 7.075837578700759 5.623096928191152 -0.38700450471928194 0.8514634921723013 0.14784485953184215
Ni 0.5394950440583977 -0.04042982696608774 0.5239504225253199 -0.5719812361064149 0.6892361386665421 -0.32661597632889555
P 0.20785979337237198 5.635979301589328 7.844124228515064 1.9678845644317526 0.13788594854691738 -0.29080436594692494
P 8.666108332348648 1.6999499251032202 7.860561112051034 -0.5162566888506013 0.7299937801998783 0.33128947054516494
P 2.1050296054794613 3.331935290311992 10.36496700830169 -0.8855570914219006 -0.3456174571320628 0.4396033618619204
P 4.459129333395635 6.151683115216225 3.4183602240483584 -1.2170375949319492 1.2093438258321172 -0.6186940667819215
P 6.99136344590147 3.945569856150435 10.199347007180297 0.8370992530308293 -0.3024715178722081 -0.0007278793049600367
P 6.604919502469548 7.938115216933797 10.003047549309755 -1.3024267591317311 0.7062319018935902 -0.7861358746090849
P 2.509391478338101 8.586649766001461 5.503902718350598 -0.4014242796890377 0.5606262161049119 0.18198113909391886
P 7.607496708794856 4.420013366771893 1.2690437119670885 -1.7952123614435858 -0.9248479186017233 -0.044930799074419395
Ni 5.720798708890754 3.060067964563091 -0.08097504830525831 0.15870288529226861 0.5380434457083895 0.5885023736898897
Ni 1.5853006180513287 1.4667079127381824 7.065535677897508 0.36431863308599194 -0.4239679693175086 -1.6480840683627938
Ni 6.720958993701099 0.8665554075911006 9.109466234372391 1.5839036770301431 -0.39206340729942796 -0.39487233750313283
Ni 2.9363506587445336 1.6435338886881627 9.167514147118606 -0.2910817879780277 -0.4210675078412619 -0.20503416425864043
Ni 6.231850402909904 2.21718021547641 2.2448585099082905 0.7084155398084703 0.1953994693823538 -0.15671645098985915
Ni 4.350604105671132 6.803197928407603 10.261969807079831 0.6025722215193945 1.3443431968598591 -1.1268306976285498
Ni 8.10832646031651 7.456938853520657 13.11729726081223 0.6816254161988197 -0.13419847239300114 0.14368995682320412
Ni 8.14527991821634 3.9057724266935256 7.787166656301917 -2.434233055598001 -1.0779596829594595 0.11502807011213739
Ni 3.3493534803277214 8.28704235985714 12.127395263183814 -0.4127106512361343 0.25264610970964874 0.35392237745333244
Ni 0.06600467278626196 4.894574997617767 10.159637713583143 -0.28172914311853414 -0.511763686076254 0.20036966890343555
Ni 8.774997006917506 2.507801398394047 5.548784769160039 -0.19519763778419286 0.733032309915886 0.7809954680587259
Ni 3.517901954397509 2.9857885157479687 12.128698220120828 0.6522155955781349 -0.020182645595462016 -0.2248008053626064
Ni 1.2567446707541037 3.8095044437949057 12.395812569762674 0.8344502454437565 -0.8213787569717789 0.1376036414198082
Ni 3.0654015470040052 8.56249872319405 7.659873033534904 1.4188511953707628 -0.2673628470945331 0.7456939645439545
Ni 5.643993304507363 8.138020067500342 3.5204133720920048 2.1939274697315763 -0.8851691119548628 0.24119981554592004
Ni 3.5060717596137434 8.601033174866824 3.5211711587624857 -2.6958083494764797 -0.0667790052977624 0.688040575696544
Ni 3.4491741561299154 4.535934737779027 9.255324721949078 0.07285426495756486 0.005897596431357585 -1.3729423486537904
Ni 7.205479068082308 6.358193612178928 11.193106993061544 0.6760888026513066 -1.888218161648361 -0.6577990032031832
Ni 7.819168150947404 9.017670464893566 2.6699859182191723 0.8901609087424992 0.7268243813329611 0.22332653480992506
Ni 4.528038855085408 0.28371569287488535 1.5537607008981729 1.6900997506729474 1.085173941319712 -0.8339280543916993
Ni 6.292591456772789 5.849022755579317 13.38403907743861 -0.4826639404968203 -1.3884247605601054 1.0611683224337336
Ni 8.206657004056847 8.936812628195613 11.152080204653602 -0.6850187581510848 0.866295157868495 -0.1657767614199145
Ni 0.22762312415130434 4.945112281325375 5.672234941547995 0.055278975077962866 -0.32323009057579816 -0.3999569511148918
Ni 7.338764112078519 6.373267570048565 2.549315205573424 0.4618932836083723 -1.1660603325531338 -1.0179133683998403
P 8.945580783315684 1.6088974044210993 3.510133278099414 -1.2461687079699504 2.094564616960522 -0.31033112312594296
P 2.2903511514162482 3.2887759775447956 1.1532568162923649 -0.6714135086628243 -0.40110392023514146 -0.6952615189250154
P 4.799061166921183 1.1058506271488766 8.00510301343404 -0.5547512453813737 -0.10504241965433521 1.4591781771245835
P 8.917886133775808 1.5354902280324298 12.40279438364274 0.04207404635191464 0.18660886767391735 -0.5694474139409677
P 6.703822474989745 7.986253751468662 1.3235643730888325 -2.473038201390657 0.13678037418756442 -1.6316637180232414
P 2.3736713404847096 3.3252296960336363 6.023050190827762 -3.4490456735853314 1.246009299573951 -1.0026808677208021
P 6.806859655364482 3.836026977261736 5.859638129285826 1.6868100241780821 0.6469324928023246 -0.18913189120608717
P 2.4567280305910124 8.365219776077971 10.05888843109362 0.4808721387037202 0.6960968703421173 0.5042262400486283
