# total energy = -381166.94803413283 ev
CRYSTAL
PRIMVEC
9.28677488964665 0.00000000000000 0.00000000000000

0.00000000000000 9.28677488964665 0.00000000000000

0.00000000000000 0.00000000000000 13.59213377258842

PRIMCOORD
 96 1
Ni 4.076002598080335 2.9760119857030918 4.839900187778754 1.6109249428139933 -1.1684350034328974 -0.4304101253984265
Ni 8.091919763333491 9.423104633861058 9.841819305725904 0.5116898954155252 -0.09741344235416771 0.6989970747080477
Ni 0.5337666672604153 2.2879084083723717 8.95985337618334 -0.1220600372582543 -0.05440042912775147 2.956752951749495
Ni 0.3736468825345488 4.661543034739749 4.0968866972058 -0.5173290959791735 -0.3529224754339083 0.12945761527390606
Ni 6.040229758267472 7.765786806606314 4.158907493897148 1.1050177155185161 -0.4120969289115355 0.21174757172307404
Ni 7.405237062544125 8.856973556492031 6.090594723932331 0.8045498583398982 0.1351721491601801 0.5315269847461105
Ni 0.7786839925032776 8.880171919892694 3.512846074673371 -0.5106971924849527 -0.20620273064544486 0.26741092672364913
Ni 0.43247117134659074 4.608822014313181 10.130719725004747 0.25485083067045144 -0.306662158914788 -1.1124497463165293
Ni 3.216762335102128 0.1215583098065015 8.215520234914136 -0.9902534405907266 0.17980238627504516 0.4031106662525251
Ni 3.3385398127934396 5.040833490308157 4.109839890669068 0.12911720121535183 -0.4894061443166603 -1.727505187904599
Ni 6.615127551028904 2.438140563989877 3.556544993401081 0.3804427923413642 0.17879477094613724 0.8899817028521575
Ni 9.162833483874275 3.0768013523914015 0.4493861029310455 -0.26661491318491504 0.8521101246173648 0.4016266255078309
Ni 0.3782846978597254 2.364236410289926 11.764453787705456 -0.03713907094414249 1.0091284231183588 -0.005022907135888124
Ni 7.562127835678954 1.5203100389240867 1.499429654508534 -2.6259687029755225 0.7010637274290894 -0.3126844538494679
Ni 8.471609550217444 7.800463623635167 2.007707839707516 -0.2729066597308977 -0.42236694337897585 -0.11494245237686657
Ni 5.539254692755552 6.527163220311897 0.7413697314368787 -0.23580512689291003 -0.811319572963564 0.7239313760558822
Ni 2.386571103636041 5.8413070424779585 11.039204968609333 -1.5931807314566948 2.7748831414224595 0.031584202564184316
Ni 7.551995964393877 7.84439935511977 8.246524132517463 0.813062780906916 0.05123308714336337 -1.0457764133586958
Ni 7.421071013544177 2.2465172531775135 10.464297889073121 -0.2168779509711039 0.6764325591439705 0.8779659093382041
Ni 9.264848704833557 3.113948451511759 7.143494887432174 -1.8063969173054955 1.4844624056126692 -3.3746418047524593
Ni 4.315276350289337 6.850129386839065 2.9677606863109824 0.23167182145082682 0.4862539718409238 -0.4282637684793851
Ni 6.880004941306612 4.997129928193057 9.879034198302156 -0.03810734839468276 1.6576696551686998 2.295045871741157
Ni 7.075835161094356 7.905367031551056 12.746716884872983 0.24273553546415616 -1.5590207977455344 0.8764607855475872
Ni 2.6327913633805498 7.045708863707746 7.068018482761955 0.6396940660723562 1.2752314296638618 1.0242753060621264
P 3.7781850176576497 7.313102969950859 8.900985439529832 0.6233675609981909 -0.1985686111389548 0.7756519443586255
Ni 5.276624701974626 4.423151526134855 2.644892959596484 -1.7011786341949282 -0.4519035193855121 -1.4692677001501018
P 4.843907431096362 2.227544372301791 2.527919530498913 -0.6184778370060575 0.7906967545068898 -0.8105520986699202
Ni 4.579095048242115 1.643006907318627 12.786038946646837 -0.542269053753963 0.2661307744596449 -1.741303784350588
P 6.87143324818459 5.925816692976771 2.7063296181541654 -1.9142778348498906 5.148311407028262 -0.9912947373710476
P 4.28338556569451 0.2784639417809791 5.701084172718434 -0.02183843603133013 0.5795482498203954 0.059426935808065386
P 6.405701492963108 5.606685964433781 12.519673815049359 0.22154733142231522 0.20279961850116685 -0.5760309806957563
Ni 0.5987499451066125 9.507892887603276 7.65356727751867 2.2535474953870547 -2.7581658286677784 1.7983789320970252
Ni 2.9350944560220187 5.035196418016643 8.658461316147799 -0.46559670060188846 0.651462262351878 -1.066933507052285
Ni 1.8542438864665396 3.4199198201913625 5.311955307947998 -2.136899373172991 0.3513394472175046 -2.7580778969396627
Ni 0.9620541465685759 5.223142166016092 7.534337162149537 -0.7900367523253878 -0.3989722186041193 -0.24136745147203595
Ni 7.216919843553473 3.4898585210602158 8.414590610422652 0.48187512604693783 -1.9302343581791466 -1.7662817944521645
Ni 9.063790030844622 0.04179977328518215 12.48266230284079 -0.9533349702978227 0.7835819978389795 -1.0811823036618153
Ni 2.400361964184474 1.0799218920774698 4.210883714986353 0.7259178103582917 0.7063959382752802 1.000668979497096
Ni 9.281369877167336 1.0680162468093952 5.7061408215861915 -0.28997184274330057 0.5155226388980542 -1.7424278706527023
Ni 6.206983086218757 8.691093185370077 1.6531972852848191 0.07641858527005549 -0.05535327995932403 0.2547682982589741
Ni 6.1361435681962355 0.06067142831580172 11.332808210636815 -0.5279040432815425 1.0742022727995564 0.6749734580999408
Ni 4.6106793692691985 8.548197581828841 -0.15097602627739054 0.22437965866478776 1.6462896954665325 0.8026266731752564
Ni 6.393433663478611 4.86443120336036 4.5365783359439105 0.3559599767086515 0.4384700195884255 1.7588014269147194
Ni 1.401940807577068 0.7078676914177063 10.396677167189381 -0.49083027835769666 -0.8607017229411177 -0.37536512070814065
Ni 4.659416363315108 6.982475214230118 11.856472724291448 2.730565807562323 -1.162947497955765 -0.9549789336591489
Ni 4.394074634298395 5.306416675469152 10.221366076278242 2.83539559698522 0.21556925946200942 0.7311602897041536
Ni 2.2861903550380553 8.402887416844784 1.7101892934327494 0.4555711980450864 -0.6541909741369508 0.43988978275408763
Ni 2.888567714373771 7.869445786701671 4.70624863985362 0.7176434861646416 1.561453318446427 -0.43218135836623633
Ni 8.341613276845754 5.382326772521603 6.053284177575844 0.9118941866545327 -2.004962957341289 -0.9279370990500083
Ni 2.839078491570674 2.8035472912620527 9.043987840981037 -1.1230781725646528 -1.628127679845525 -0.5724041825764465
Ni 8.7103911033631 7.228546885578146 4.489835212443286 -0.33662270983262027 -0.04015600339359535 0.5770378246937159
Ni 3.5858187648628785 1.1102339249596815 1.1489049838214513 1.226450660715733 -0.45700355961623873 1.3540318849025326
Ni 1.5173847048683586 6.328212644198043 3.0493682196910177 0.24271933751424005 2.4330760591754226 0.5735964031123346
Ni 2.308812938402353 2.7352523495292758 0.053909727598418666 0.07840321980025207 -0.6753547526987594 -0.31771121764009796
Ni 7.907354401353996 4.307679768519224 2.7673585872990007 1.872503064905949 -3.3324934535191835 -2.0396977897193134
Ni 1.7714708628516032 6.030710814117882 5.3105418608264685 -2.225638170571296 -0.7764045062539339 1.4137017899593394
P 0.8352729546257521 8.088836554106502 6.023666795447183 0.2398875244923998 -0.1400821848672878 -1.3714796480653348
Ni 2.077841562846751 0.17946692262522662 13.240382329955494 0.13448437906453614 -0.16167070967134092 -1.5493241392830608
P 3.2547359571779135 1.549247629138845 10.863662637006172 1.04230542409096 3.055923743114401 -0.08119132406835049
Ni 8.390480285738585 7.095727432673307 10.381929768838598 0.3441362446008461 -0.7819868854377178 0.9218860077599219
P 1.8083207851789977 1.6494333554664489 2.1726214575748646 -0.00571633365848693 -0.5771758929334769 -0.10374812632294392
P 0.7002785390674173 5.481333078452136 1.403836238309684 -1.0420627119525345 -0.573390971969748 -1.7063630066093451
P 8.165285284096196 1.2006685377681914 8.005685558758016 -2.9314772079018416 1.5023320868042382 -0.6889168076539103
Ni 4.459165638732041 2.107067043079692 7.267781651669067 -1.2229588455123905 -0.9707115139030572 0.26550522506050406
Ni 9.357075665174625 1.9500648286475015 3.516597931684527 -0.13722003282814432 1.3551955661933306 -0.4989230826681601
Ni 5.685447101343719 3.8252689657927026 6.590227850488528 0.23485047628912456 0.798345015080767 -0.4967571853650929
Ni 4.5991544817671075 9.512350539497717 3.2811549740723116 -0.14610782223607738 -0.14565942184474914 1.0262072329775165
Ni 5.1796057658470325 8.301187946228024 7.364925030578713 -0.24357294376378696 -0.1694549816024501 -0.5985854689575045
Ni 5.549498005337991 5.712248733359057 7.879835830325636 -0.6266110076361531 0.056379921451625487 2.0607690085673154
Ni 4.973030747638725 3.0322155466721927 9.54453200014316 1.579906382945292 0.26379569856856505 0.3266486293390439
Ni 4.5811845725676354 6.086942235411322 5.71528829474458 -1.030175473596645 -0.06181214821079033 0.11750249979455893
Ni 2.7922081392555635 3.743693936124398 11.23622296689145 0.36748186130532196 -2.5056372183726006 0.7391834171189463
Ni 1.1569371153287507 7.016529817348705 9.02741930609588 0.12757171110510288 0.8445263987328357 1.02843380831519
Ni 4.146934983850657 4.787295252036937 13.055679523709253 -0.5649847501839237 0.3568153827304113 0.01808333986427208
Ni 3.5581998966668933 8.867430464894413 10.985189371778421 0.3856220225494585 -1.988917473842652 -0.3137800009064919
Ni 6.657205927557489 6.780079244672851 6.28334452052552 0.5660365884872058 -0.10182725515114721 -0.8314595382465487
Ni 7.941789762238567 5.803862766564638 0.5177014755683388 -0.7758892571804121 -0.15155419006262932 1.785203828167648
Ni 5.901856814044141 3.3172823853218154 0.3854949497989868 0.5002662269596159 -0.28428559099180073 2.4186372580422733
Ni 1.8752319974695413 3.7600665200616956 2.3504334769342794 -0.45608696133924037 0.16428912113079447 0.5268460343306733
Ni 6.2987549945956 1.546220140560536 5.933224753218849 0.22602619312927524 0.24184284844655768 -0.5003431029441383
Ni 5.391957157968555 0.6922872693691504 9.136482260435772 0.6022593182646659 0.16965629897997878 0.2749730553416232
Ni 5.955552945822618 7.558710302559882 9.776441339951552 -1.4436507709129458 -0.31448679716552935 0.2506128813297039
Ni 5.775556677034927 3.6880568684168824 11.796055753604621 0.2973113138275073 -0.3405549550074909 -2.247106110637085
Ni 8.759248825481151 4.91118082760333 12.166807948440216 -0.9442114107299998 -0.40257767656719057 -0.788735517015461
Ni 1.988047737498067 2.037555533850723 6.888398328352857 1.4081453789174845 -1.8989838848052976 1.6756046423805657
Ni 3.044000463868126 5.609351268795667 1.5092708497429945 0.8546586020708313 -0.014608236831478067 -1.438014141452459
Ni 0.19792438750065422 0.7634806135107933 1.1755329531484018 1.7089608492435082 -1.7342437921800131 -0.40422575369357483
Ni 0.3181221848018726 7.178611897585605 13.20152274956569 0.883594568378891 -0.0727460215144747 -0.28841735377198713
P 1.1278787970418513 7.997984036432888 11.122265882242452 -0.3387382135137263 -0.9752919341848881 0.9175881517155164
Ni 2.872037255265212 7.116864132072791 13.036297096065729 -2.229439289484941 -0.20068128660658338 1.2901006334662104
P 8.164616636312031 3.2867196095205413 5.011310833282254 0.12025332306681871 -0.15297215345607848 0.5875785763240396
Ni 7.56795064346607 0.3937035300271078 3.9013908013101393 0.3045145164441659 -1.2375827660731527 -0.8742516937114105
P 8.01494168718133 5.750658833849506 8.09658915369292 0.271413620125139 -0.3982404826444174 1.4773041973013332
P 3.10575751615572 4.282196858522658 6.603751251923294 2.002709385420422 0.9954095308703697 1.1026993517979848
P 6.82892768001612 1.6799218370694824 12.763081110712978 0.7650386876191534 0.03199275085651264 -0.21892789152159714
Ni 1.6195763745484617 4.801550451324376 13.127677102546853 -0.21515608318399077 0.9593325826421544 0.07128460647759982
