# total energy = -340897.1388284734 ev
CRYSTAL
PRIMVEC
9.03964354521293 0.00000000000000 0.00000000000000
0.00000000000000 9.03964354521293 0.00000000000000
0.00000000000000 0.00000000000000 13.23043206959853
PRIMCOORD
 96 1
Ni 6.469564543279181 1.9374939600142196 11.466194169469306 0.1542319940051086 -0.07923882832766997 -0.15726923816953559
Ni 4.628125837561366 0.3878422984646605 6.095154251435923 -0.13526599442556703 -0.20506141795215005 0.2613690914049434
Ni 2.7425375118563826 1.4077889166055366 4.788278493668376 0.16727494323199577 1.0896263206641106 0.4992431850117402
Ni 3.4610535938956875 4.337040269746713 4.864909361513424 -0.1193583220563751 -0.3243618901873962 -0.21722273590503235
Ni 5.025282584927495 4.652397280981829 2.520305102419751 0.25405456002140114 -0.8020751715471606 -0.2999155842195738
Ni 7.347666495763499 6.1906463359278225 2.5137296655690826 0.5626327050119794 -0.6596856787029348 -0.03621630201955698
Ni 5.193383799768068 4.265599965332589 11.667521498811277 0.7324836365012676 0.989067904923058 -0.38431795902605426
Ni 5.260087330866615 7.933869312497283 12.403649518733667 0.4886931774100357 -0.14541825236822054 0.8105788381427975
Ni 1.8115536435397703 6.291610116770711 0.49542671437687763 0.8166121888210709 0.667076057629735 -0.8358579244245605
Ni 2.7742666613557594 1.7169356925967572 0.3124272627015693 0.5269244529770926 -1.3588280207395953 0.6337008246033989
Ni 0.5468604792833032 0.024030988897191758 4.838236988717736 -0.08558353959877518 0.7804174840680689 -0.5925117519595989
Ni 8.713764575476977 2.3532452545371063 1.2497904075998654 -0.24682821747629102 0.2582194900323682 0.9415734588865203
Ni 6.892393878844237 0.5642843925767643 4.8197807481100785 -0.2256382136622372 0.7396544432180939 -0.5317920654820391
Ni 0.9198651065262324 7.425190480409269 2.5391979578196646 -0.8830230121461373 -0.22950926658186926 0.24880693846921664
Ni 7.604636448133522 3.7767179530176915 3.8073081074068345 0.5521024949046169 0.39187108878296384 -0.07051893195616887
Ni 7.593264576318646 3.8089985207847215 12.584098886912173 0.6846983986971885 0.34088508465340006 0.10814676961127181
Ni 7.8632244967315765 8.932858420609852 6.935061901223727 0.31887284204836697 -0.16717544153965402 0.4382774439616452
Ni 7.020693542332743 0.5141469125815099 0.36489787474405705 -0.7613255004336243 1.0154690206244061 -0.13784352534475613
Ni 1.909733214113198 6.647636485156168 9.025297817413449 -0.06352038915114867 -0.7682955039935542 -0.5094142120074711
Ni 0.1695620212676663 4.915197803559003 1.4223111042610206 -0.8489553810384669 -1.0551488557125313 0.022898244754412177
Ni 6.333029764350809 2.0975046937146375 7.210942788281128 0.5370250317462042 -0.4031101520318929 0.026844630996669894
Ni 3.3728537900024054 4.2370527704268826 0.4472562608577099 0.10588959814597892 0.16465138956621966 0.10851983667997439
Ni 6.004990132959675 5.533120730148431 4.565584158437039 0.05868157300160861 -0.28454218708729706 1.583893392617498
Ni 5.233194390763867 2.77359772771959 9.488191757963175 0.8074390069622353 -0.32862966432481466 -0.1443764413672675
P 0.2570142466243102 5.3787868927117195 12.317691546485925 0.07007284555768577 0.6504150520342863 0.4491871488956135
P 4.085349469316187 5.939163447303133 12.566833167384024 -0.25560673499986947 1.2482811263272633 -0.12246112935141491
P 2.5025078518401576 8.38674642382756 1.4640399076567536 -0.10975550885928838 0.48902459260752557 -0.8580061783868256
P 6.361992782868189 7.746143031114503 5.747868314574953 -0.6056850561167633 -0.5363277485688633 -0.5120339090185053
P 4.79278294814004 1.140595127174603 12.578846853903872 -0.21862707245172672 -0.4111425354180661 0.8785266669376804
P 3.9406338128103404 6.228992504639035 8.004332431423975 0.263927596160739 0.28479029854236115 0.8709560536792742
P 4.862261649864315 0.9283985302092557 3.950832338868801 -0.6270545229314749 0.05106442277598302 -1.06447193288567
P 0.2006014459502902 5.49473840286229 3.6184437348781935 0.33459822320342375 0.5575432063042141 -0.1601355039737371
Ni 1.4769421911554603 1.0369646514307698 2.5515813657681536 -0.09654029572059501 0.6058398365270727 0.332103481806028
Ni 1.9872752780464327 6.5845036133317665 4.664600800020051 -1.4589190099259262 -0.5196819124820663 1.4182274457438349
Ni 5.850050639392918 5.798470432258034 9.195454647238684 0.33746243212509625 -0.17715517846018522 0.20875326498144048
Ni 8.614048265469107 2.5856816138184384 10.177854201174258 0.5741052244279532 -0.5448393855843003 0.2930085726870954
Ni 2.4098063053683316 5.099407663530028 6.913270936043328 -0.7578606818134754 0.3837800842447132 0.4152678704403493
Ni 0.5126842982256696 0.06547413955099304 9.233915619425291 -0.3699886868875757 -0.3159980916037332 -0.04172206232913459
Ni 1.455572473372974 1.0699774303400926 11.450476036948075 -0.6266544592795787 0.2056424872666007 0.15531931353201636
Ni 4.080305348113722 6.773359850181048 1.5910649813790445 0.07048910715949795 0.5982697374892987 -0.8180010987487977
Ni 5.674844264578981 7.8885626181124175 7.825959469410713 -0.6683582667762683 -0.02633169591599336 0.5556927833590365
Ni 5.221027030300574 2.8036726224160082 5.11204056564552 0.23072771237000264 -0.3229174444313858 -0.6337352773857602
Ni 0.8542752595354695 7.651443723377902 6.936146658471569 -0.4652534583298568 -0.9827735872739137 0.3961969698518274
Ni 4.919075810720037 4.518592474460525 6.911564251306723 0.5452001113578289 0.29389611749837125 0.5678911251974413
Ni 8.058318087755948 7.153766137711752 9.083591767948102 -0.04771273269493073 0.5136344207364058 0.1072787651840217
Ni 4.4930916394925084 0.30249540613320314 10.431004904067503 0.29394265446559054 -0.0497053376449273 0.7584666908285905
Ni 8.225768448247818 7.215741935138455 4.673517504597311 -0.300977706935501 -0.679314765787772 0.10228311174164322
Ni 7.218996206881981 6.143947536408227 6.926899102933716 0.1586733176059138 0.016639151218577796 -0.7127481057455531
Ni 2.2744828387000497 5.119005611141039 2.74244349956157 -0.11666894814967005 0.03816057023012137 -1.4074529808361502
Ni 2.3670578301596272 5.154215023477242 11.425153282961578 -0.2694050743355425 0.017324350211060484 -0.548499608044707
Ni 1.3126376266823345 3.2913614017582797 3.866541276925243 -1.1212719725938496 -0.5825875508673515 -0.03810991949784404
Ni 3.7501323608018318 2.566092705851159 2.756203645250445 -0.2883245369478647 0.18159727339193885 -0.08320655472616638
Ni 0.696651895744677 3.4729136064720922 7.942585336983693 0.8662254809728244 -0.7178450606524863 0.1994499853026436
Ni 3.520236141409197 2.5908613296768834 7.282003427658506 0.3650079458435327 -0.003126975664755905 -0.026075356930813157
Ni 4.2017168030784315 6.868664814047695 5.841248738291053 0.17615193400665147 0.39921364519096403 0.14627828637567064
Ni 0.869956329517398 7.158584267820917 11.16008109791455 -0.8294656477449714 0.32156478705823327 0.3209448940860473
P 0.20247084427407114 5.6836488775739635 7.750030077919271 0.5484209322879716 0.6321478782939823 0.17511655076360164
P 8.3777790972454 1.6179244747999844 8.15775236087938 0.13504513666401258 0.47335886104581065 -0.5065579735055986
P 1.8907590019196958 3.470147475490095 10.043578429214516 -0.8221020082910486 0.09987578785173122 0.5794065820362085
P 3.8904637900976504 6.1054296144661055 3.6909073269627815 1.1513484802642557 0.7894731665124339 0.6525770926826115
P 6.94146106502162 4.059776317198313 10.343896185172675 -0.48107319897093276 0.3875660336497067 0.2235265666358731
P 6.2884733603957015 7.713365282942212 10.436218066607756 -0.26326322310386274 -0.17171986637722683 -0.6529876978574689
P 2.428373733593893 8.526960337754863 5.835175905631885 0.8522649050276743 0.05651027638190268 0.25762607942274346
P 7.000001797830158 4.140952317911818 1.5587835096476417 0.1248622825937398 -1.0891421819388403 0.560014550662842
Ni 5.315355712644162 2.9625624402936563 0.5715016441324061 0.7834120479200186 -0.8256665857138555 -0.04660278746020361
Ni 1.3789162945254771 1.1341769801248716 7.021893103055981 -0.2093675015266717 0.04724299214736379 0.31124335052756724
Ni 6.842558322949632 0.44714778513292575 9.371433007627333 -0.054915421090957046 0.942578503112267 -0.454174831918192
Ni 2.502634406852406 1.5688572886226007 9.33867424270688 0.6631528113159288 0.5102822164347213 -0.5251434498172698
Ni 6.309147025610822 2.0340011964972238 2.7261703329151943 0.5235840757499498 -0.08295972882268293 -0.5618888848674194
Ni 3.9569503697466293 6.838761672582185 10.39614261405061 0.5152107640845901 0.22694459117848656 0.4550996577253066
Ni 8.249172085870006 7.109155495894252 0.26150062180850986 0.4546152618897203 0.2809575550598323 0.4157077861912453
Ni 7.452643878423402 4.185110977542718 8.184663380269592 -0.2163652730007435 -1.0299286476931617 0.31436904064074245
Ni 2.7127247668281935 8.217451976014361 12.37028238579005 1.0037057094408908 -0.012623088080649228 0.5983597260999437
Ni 0.03831181806503089 5.049572107635423 9.83047605994722 0.6422237744727455 -0.44534283544885883 1.363090395560375
Ni 8.617130783981723 2.3335117122701154 5.730418186314669 -0.3470865854784215 0.2317777509010718 0.617849459393439
Ni 3.6268948978032554 2.653939963638892 11.498568749531149 -1.1511029399123531 -0.1668612527333449 -0.8514809756737981
Ni 1.2157416855188532 3.310082503927285 12.583795154882779 -0.9873051565956803 0.26478865860945366 -0.12902901237691974
Ni 3.189032634711857 8.590807341434093 8.123577987750494 0.10959867156644996 -0.8370475738572873 -1.0927694942787827
Ni 5.660290438170435 7.579714150364354 3.449821836558657 -0.6668767971347354 1.52425742612242 0.2514700871236766
Ni 3.096358207171227 8.374262675833647 3.693487241283899 1.4888358520900165 0.08178087802323335 -1.078662365453439
Ni 3.7565143492766353 4.415522456628078 9.404760366138532 -1.1294730203474033 1.1387307915002454 -0.44336848533130735
Ni 7.308072856217269 6.130686379053359 11.464672797429206 0.08068275986304814 -0.886555450779428 -0.6162959988633901
Ni 0.6224942744247092 0.07030673309012889 0.43582111153670944 -0.02315484084990851 -0.20922300552900744 -0.42494396007753266
Ni 4.567777176006426 0.35459991260454427 1.6293677598003433 0.06746934649656768 -0.2331944287429403 -0.1818916647039061
Ni 6.111486175766557 5.713796089420239 0.3845120937137858 -0.7268194962369547 0.4942408467011424 -0.503003680495437
Ni 8.104103883258611 8.820197340777735 11.490697027769308 -0.015326860165057476 -0.5640838356362092 -0.527489324341627
Ni 9.196843136515922 4.82430418583358 5.6822197098999325 -0.3644757274891465 -0.16930148674372134 0.4377945907879557
Ni 7.950963278794525 8.80407061635982 2.6321417667435085 -0.0010803775483723328 0.26763332714710036 -0.34011632480817555
P 8.503755572294779 1.7139706894526558 3.611074617307854 0.1408550584775703 -0.7654168968941787 -0.4885653935829199
P 1.858921376695535 3.223790064861459 1.6044942761073278 -0.7256815259777695 -0.5433167782921869 0.5002759971516287
P 4.759426662768901 1.0048015990322563 8.41132702306366 0.49637049144963546 0.21285211764116246 -1.5752647704082223
P 8.52542359832042 1.714576345582701 12.38118419613086 0.440110640515642 -0.2231067054896351 -0.10551370286379894
P 6.285445079745476 7.804747041429164 1.2678299206314767 0.29659834692088277 -0.9549185127348587 0.8838105410444391
P 1.810179617692504 3.0997571132144652 6.012715412493056 0.07720817105088638 0.03130729475371383 -0.23763780922627462
P 6.87487504929159 4.003721486416081 6.0499460891677375 0.16284724647794535 0.014457570186226714 -1.0187806014961422
P 2.4299737505344603 8.514042686861812 10.160971762540344 -1.023525315269979 -0.11114673277986019 0.8490620818196603
