# total energy = -340872.2994587625 ev
CRYSTAL
PRIMVEC
9.20201901089018 0.00000000000000 0.00000000000000

0.00000000000000 9.20201901089018 0.00000000000000

0.00000000000000 0.00000000000000 13.46808497677426

PRIMCOORD
 96 1
Ni 6.800706215007468 6.84388208868338 11.16303563992762 -0.8496866027775367 -0.7558768186142273 -0.6890479339151359
Ni 3.985955800795418 0.3063977899855363 1.2031253504808548 0.17256421665539315 -1.0947232755710437 0.07465712249425853
Ni 1.6749147107832396 8.514195789910364 3.2789398269294097 -1.101668339430309 2.1466024593933675 -0.8003093378959895
Ni 7.01609787637407 4.112814836280528 8.255236248853656 -0.16630332334734585 -0.8436735638142372 0.4812032967908938
Ni 1.192903747650675 6.790860054557079 13.09426523147463 0.7321473362077713 -0.49030140243742015 -0.04099264036227779
Ni 6.54073077104074 -0.02634354031530337 7.970964713824159 -0.4492239156708199 -0.04330894720028026 0.48587499123495026
Ni 5.26814673989481 0.7160808828937455 6.071641283145966 0.3490498798523795 2.1842418670126964 -1.0955578556571972
Ni 7.482759871626961 6.886855517938819 13.476839176077375 0.20677402976788256 0.122147454765738 -1.3346244269101981
Ni 2.6961179838135267 2.917960260578 8.832936248131514 -0.15669176839951077 0.010877566144452233 0.4077399374944204
Ni 0.38319876170048434 1.5181583152015736 7.060010831780894 -0.511109597432023 -1.5301989884178357 0.07990911492181721
Ni 8.529305505293111 6.68992310691192 6.012759403248816 0.05338561470999193 0.5096530674911545 0.6568934606697784
Ni 9.325786269576708 2.9626912754839276 2.5123766671844154 0.039327336844712915 0.532643871959373 -1.3269134314191857
Ni 6.422475623425829 5.649009108942628 3.7960334879284314 0.8637497657388222 1.4000494892832276 0.9205950568626403
Ni 6.763842926442739 3.3908704268082888 3.2599772261442532 1.2734969634712585 -0.1973437375929182 -0.4383764314333547
Ni 8.819813248675159 5.170034812117193 3.0087437003344126 -0.4064212186829968 1.4042979801469364 0.35772246792571294
Ni 3.788508076698218 4.828649105062058 1.223924674280869 -1.2172245141317746 0.3056280612233188 0.19598465246186247
Ni 1.9201117120552715 6.348601813990572 2.2968202896757006 -0.6866809763448561 -1.3083359255273146 -1.33228857968817
Ni 6.282779771278763 2.102937427782688 10.843438473727094 1.571109096368636 0.34671274707877064 -0.4249228770316101
Ni 6.44491934804125 8.029764695751208 5.327692085369974 -0.1706078642599707 -0.625059089768001 -0.5582937113169933
Ni 3.0021863415148355 0.15062048923744187 12.23000423481208 -0.8858306567982615 0.24302735567296208 1.6048298856598489
Ni 7.305326539099478 2.0796471174089164 6.63260096925434 -0.20848946979709254 -0.0545958329680092 0.6809047359827113
Ni 6.927445624244115 4.2105862893509824 12.157680965597281 0.11783880008805511 0.05712039916207582 0.269262120999775
Ni 0.26858025203883995 -0.34928011925176 12.335836656625096 -0.05177661835165922 2.4124956639209096 1.0028950406141373
Ni 4.17429352597123 8.095798384902604 6.642984527620899 0.19406326706943353 -1.3484474488362197 -0.209434093098549
P 7.8298416285127415 0.4841265073265314 5.267529284412361 0.11366847076044939 -0.5254746079044434 -0.7268187249060063
P 1.7920840201428727 8.821313177790499 1.036025885416724 1.9032832835115994 -0.14495905334361486 -0.8768927308786835
P 1.8075342102327827 4.027493715069303 1.4839544101603612 -1.2351600155642728 -0.45154330783261587 -0.38245879433012836
P 2.5938467433970533 2.905721575158357 11.180261819706244 -1.6339471147407796 -0.5374901443080808 -0.14799346929456447
P 7.130488175961723 6.781989308132616 2.0810209788624148 1.8232093608771438 0.012656512421745945 0.8935691630930996
P 1.6750895491463773 8.675185114283787 10.5986288774597 -0.09140451715592646 -0.07118073390988387 0.40554704360815963
P 4.4670925721122945 2.598972268042723 4.61393655270596 0.5539727153441363 0.5720786809162277 -0.9733358388997817
P 5.772224144859182 7.431569039304049 9.271429942679092 -0.4248208042361071 -0.6830564922183914 -0.7052266005575274
Ni 5.381478807284526 5.780073467162156 12.944136130057796 0.26221781255848386 -1.172004980172343 -1.2197912464176863
Ni 4.5108205669349575 3.4528460255310662 11.750311260293959 0.5094653769603806 0.26480948454506004 -0.5714292202576868
Ni 7.7748595643154745 0.2378105405304176 10.126545052545714 2.629364358920633 0.875038451278764 -0.048326455019529674
Ni 1.8818773226427785 4.072712436988194 3.7279394666977432 0.27553766959584164 0.0003437564926639241 -0.6020739417267373
Ni 6.716719386567558 8.96900558454634 1.1323020103813954 0.27323678937680684 0.6902671510342177 0.9533722512936613
Ni 5.753562450099005 9.000918186828535 10.673214923174264 -1.9933850226957024 -0.4987973557235733 0.7163054840795082
Ni 4.791850230631116 4.7723787581890385 8.006170718746723 -1.0963842082132345 -0.055466408498420605 -0.6511249336171173
Ni 2.5182061462921927 0.46760152140427985 5.974375020924788 -0.9400235979008972 -0.3083493168092238 2.10549026273409
Ni 2.2568411974394746 1.6513943499316555 2.0599170682297765 -0.02400381911376511 0.468067016519252 2.7633574001710475
Ni 0.7498467718252021 1.2645322644224795 9.391323049696028 -0.6591246639931423 0.8066180537228367 1.1461049724771293
Ni -0.1257897608642357 7.25199163632335 10.916220003493695 0.5386481691719239 -1.3267604507810893 -0.984225489229092
Ni 3.3569333803213395 7.179415311582957 3.9183504067796044 2.848484054738062 -0.11123800694208584 1.4726826393689219
Ni 3.7225756097570595 7.446172643635609 10.95485928174714 0.015500152518128143 0.24543802199698375 -0.5671061674023008
Ni 3.9737631254713377 2.707730931933519 6.726769831842246 0.3129346221870611 0.35994415816738007 0.04890032524512869
Ni 8.987161168255328 2.4831832615499665 4.867998779190987 -0.007030167373904022 -0.9867402852311457 -0.4009661091056966
Ni 6.339280168629596 4.645427702512804 1.3081967653132665 0.7272630115322766 0.08948570286665879 0.8332276858905651
Ni 5.154253349339232 8.188067030543776 12.911880292462703 -0.10745822818467946 -0.11117758601779562 -0.025405841667614313
Ni 6.3697664579493525 6.536957943204609 7.34685433115234 -0.17791828187845488 0.016564075006268247 -0.06968409475969935
Ni 5.146845723953659 2.6811831067939176 8.965502375870205 0.24140807490198427 -0.1717509767254784 -0.5942698723012861
Ni 8.472694683712929 3.3237969094971787 10.504634853234931 0.35339581552590105 -0.622462018464786 -0.2289647069323089
Ni 3.4418128046151635 5.247874691789944 10.194142164744326 1.501127524973176 -1.7457062842936582 -0.46936053851969484
Ni 3.6282457118346847 6.795737124686711 8.460987874997988 1.769723730254178 0.8339419383487702 -0.0003237018880058941
Ni 2.571458230896308 4.997202489145965 12.248724822494578 -0.5658285862414577 -0.6896050919701866 1.0699954338070605
Ni 0.4846335385796309 3.6620999401496217 8.190575500953848 -0.6511249336171173 0.0682771871098437 -0.3136360191294598
P 5.783561032405799 4.45199205874866 10.353725420597357 0.17935835675909112 0.7828749444696258 -1.7736451767957713
P 4.788151018947887 6.182947065927105 5.443557468621364 0.9252927194486257 0.4823957744370983 0.5857278962685462
P 8.891082886701575 5.211278261779478 11.801597793615642 -0.3651750675490163 0.26592071533136785 1.235222493371092
P 0.7132052519210851 8.562340753907034 7.203634105685182 0.48963445827738256 -0.2709181685459592 0.024593887289280227
P 7.855984564811393 2.0781195822362393 8.740383260099765 0.2551290240325026 -0.9562655136810563 0.5075982418446547
P 8.517701759192231 5.531370496608257 8.053753439375619 0.44972090991189645 1.5091318833348912 -1.0593569802566076
P 2.2125150713744977 5.0853670342629576 8.404219698890982 1.5230086413169837 -0.8859792665609838 -2.264425575752139
P 5.202545545641703 8.768870870868286 2.91286418239349 -0.8678876991665957 -0.5831015143892925 -0.21697359600870378
Ni 1.4276748612682295 7.013438492850553 8.89329965310578 -0.7449604288120396 0.9224259394237919 0.8637867896243446
Ni 5.019305739054223 6.763732502213389 1.647402514040647 -0.6313346383640676 1.859725967745939 1.1955444580551797
Ni 6.005992238393473 3.6762066354491045 5.6525150782244955 -0.39058373743010794 1.7984095282246444 0.2364903258853927
Ni 8.003005224172018 2.0792238245297407 12.760620262896941 -0.9395661986485044 -1.0004843742901155 -0.923019607143733
Ni 2.9517408727400367 4.964848189946369 5.652151598469551 2.5944487779903707 -0.40175132401115327 0.9569702530575647
Ni 0.9679603904452849 5.071398369250161 10.133023274000923 -0.3207330351855573 -0.6800141058476418 0.7363503185455255
Ni 4.639179531535407 2.444939670118361 2.284604609303839 -0.18108793785568814 0.3610381625625072 0.5348784177168465
Ni 8.448309333064769 7.683879201350054 8.619156780513425 -1.4085135608901806 -0.5502135054120202 -0.5709453386427328
Ni 6.339666653432321 1.2293345413171155 3.7265922910996716 -0.5592861571372497 -1.2148827533724755 0.7271200581965089
Ni 5.401806067504068 1.4033355207156315 12.801401771199778 0.0798350671507722 -0.4448111313151049 0.824766185386773
Ni 0.76722938592874 1.4317145476586228 0.5097817366122188 -1.9166370791106864 -0.9977304656940624 -0.1341380514687109
Ni 2.0748620674704097 6.904431374443719 6.500250168762881 -0.846957890992464 0.9132897814504788 -0.09765409761006408
Ni 2.470742131709849 9.107431558055877 8.658807360667334 0.2661096914137223 -0.5886707809469539 -2.2402446076305615
Ni 9.178379125413356 7.931707980088265 1.2584994206923157 -1.3079680006649343 -0.033636457107522715 1.593321113689301
Ni 0.8795593534371023 3.176325351200039 12.656659531771409 0.812688942507265 1.7889267855451902 -1.6007444027365658
Ni 0.763406867189402 4.856807283546349 5.7606903341035585 -2.2008992730637194 0.6126483748084739 0.30801353073635984
Ni 8.58063436790271 4.7526772352691475 0.4214497147473801 1.290793802878493 -0.3858608780331419 0.7483018344804467
Ni 1.8069728870669195 2.921125755152705 6.049675143322485 0.8449922826256608 -0.742228117482541 -0.22770383794201426
Ni 8.657820904218472 0.8367543211314238 2.952554331229583 0.20000868601959101 -1.4871065281037357 0.3704460861399685
Ni 3.1725893314403586 2.3534623981208656 13.555493434441583 -1.0860887398244974 0.6685351586737648 -1.2107725878588438
Ni 8.601338910905865 7.790383370558284 3.741407541870818 -1.0052190607616238 -0.8266672590642279 0.19304253911440303
Ni 3.5241616736530457 0.7821430983043904 3.956236959869645 2.422461259774054 -0.8433555183531863 -0.9325026069335037
Ni 4.280678068930998 4.814036298711387 3.703575280693542 -0.09068306560886963 -1.1141070794142942 -0.639791510882169
Ni 3.821791779828179 0.929302708153616 10.202573054655211 0.14403319909523582 1.8273886890658142 0.629833885448825
P 7.250795373838724 8.994495177488 12.3446043404355 0.05311230644394724 -0.023305764605475992 0.1854151044761323
P 8.035966856633042 4.288039684221008 4.929211530529338 -1.4126535512004832 1.945970795077797 -0.09782224775681217
P 1.3037420678608989 6.7071676907287685 4.412333196777549 -1.3085159027486044 -1.093238720605717 0.30987860896955666
P 3.5750948494408075 6.703560499236664 -0.3870645299296513 -2.0849484340269964 1.0646354550467276 0.6795263675779458
P 4.986785803510601 3.369080045549857 0.3351200522414244 1.8438352646576117 -0.5944668188034407 -0.1873084648441032
P 7.715497339020651 1.9369422050120588 1.3436042944543958 -0.2239824232263691 0.4675124295673626 1.302106913898467
P 1.4990641255431083 1.3251735703739427 4.266918289752056 -0.5314740200209879 0.5726301825443234 -0.6578869349312992
P 4.246833042635173 0.9642703807811669 8.014601608657609 0.29407480916808065 -0.5980650776776603 -0.730846872228793
