# total energy = -381173.3763313189 ev
CRYSTAL
PRIMVEC
9.15653643347542 0.00000000000000 0.00000000000000
0.00000000000000 9.15653643347542 0.00000000000000
0.00000000000000 0.00000000000000 13.40151662728619
PRIMCOORD
 96 1
Ni 5.207834977733257 0.10355767894786133 2.2710609114528277 0.7019738979481847 -0.7624439303087837 -0.9820577921538121
Ni 6.182639835580001 5.807276785208317 4.816746491865932 -1.1155019028792919 -0.9338709480359401 -0.2393308806579814
Ni 4.999386428147675 0.05596475005785551 4.5351939875172755 -0.49048446498250364 0.31608679466279754 -0.12943653222798354
Ni 6.63819583114257 4.317783020170465 9.558872706552302 0.5898234064941583 -1.0670206674494527 0.2684265124723571
Ni 0.8446419469342055 7.953889380073068 10.257413875435438 0.14845369676043466 -0.17971136922313566 -0.5081921666749118
Ni 4.364563764287871 3.1479714080727152 9.809695874972594 1.4005981626978459 2.9513459218013103 2.7818287195023577
Ni 1.8661753566412655 8.668172466217243 12.607248468947777 3.1985775453636074 0.18578971420673165 0.7473867788653451
Ni 2.4979214242937005 8.417988424032886 4.447172203762995 1.3681999488727985 1.0432305070083905 -0.1822179376950733
Ni 3.1669254382788274 5.743620544632039 1.5954770104599165 1.217711481070522 -0.343640278801034 0.045768978704998596
Ni 3.914016394098607 4.383087437286405 5.65785218446893 0.7151366605823878 -0.9222770725507535 -0.1395831337436822
Ni 0.7725095006758992 1.2313893189267873 0.9585959572328013 0.6694831244093309 -1.122322268235235 -1.3973079219823483
Ni 7.040158619557132 6.79195238922037 9.709853918468037 -0.016301051152868697 0.6668467152277483 0.8442605466659588
Ni 1.5558969665135673 1.100212779442357 10.768708454608477 -0.1233003374232586 0.8933488195521775 0.8086690227145945
Ni 8.446456095487381 3.945285965670527 11.923570189837857 -2.385309076203789 1.9552475923940327 0.7572222768985282
Ni 4.221676014835509 0.07693962783232045 6.621113396962608 -1.200573535838655 0.031425308388816846 1.4223039298060536
Ni 7.867726373194072 9.043022750554364 10.659740178342357 -0.12120823078092027 0.2529374156978224 0.2741523592125407
Ni 3.74895151365146 1.4419804980139306 0.6307690652258687 -1.80805759283737 -2.187776362528516 0.22914931213928924
Ni 8.54446766037928 7.853039288918419 8.164887109373327 0.34429205345242 -0.039989395908744035 -0.24221617262557643
Ni 6.951953705076222 8.192270646926179 4.2783540590735845 1.6055312826022479 0.15514704962021023 -0.261788181220233
Ni 6.294193917706122 7.7500923509438655 7.5594734089028925 -1.0307256896731605 0.6352131474828673 -0.6514488926154394
Ni 6.24788015694162 1.115531664724882 6.574462675661108 -0.654439342702331 0.982438315421682 -0.08792761435091954
Ni 7.955995383429302 5.476652571352125 0.6520525182747038 -0.27926551206939004 0.9360000785638009 -0.9581786715433691
Ni 5.770824614072794 4.281935180432817 11.821263293752875 0.9530305516835266 -0.39293166883699426 -0.14915869324725925
Ni 8.98134432182568 8.381563722506355 12.51461728480424 -1.1253340584783653 0.06542969035871958 0.9427014018433766
P 0.9746583532654404 3.4280973240609307 8.69542689660782 -2.114228413938036 1.3260356567999227 0.27893949618853897
Ni 4.227435476187995 6.945718103834501 3.8901251595025736 -0.42249575564735625 -0.622385913811212 -0.8996575353790247
P 7.283218876475616 6.056774087167815 11.896754357537558 1.5406515512097272 -0.8125153930438782 0.08825902954840929
Ni 1.0137567634007552 3.0186811150725643 4.08964700181862 0.02691173678917946 -0.2675261121452748 0.5613106437664461
P 0.157051079849857 3.2813272032040315 0.5126158673656674 -0.6305555941061979 0.33995485952964677 0.037168895740813404
P 2.8201857204792744 2.5397942649374463 12.234526163654083 -0.7124493435582117 0.31164572817230846 -0.9385886652265836
P 7.987567120700161 9.151198070774178 6.4343759106725384 1.4507346743429208 -1.3752077476491993 0.3725019402277327
Ni 4.76921857438388 1.332413384271735 8.737051595116982 1.0457296192811603 -1.9729388390262086 -0.6561856359694763
Ni 1.3207204873764664 4.15927421973664 6.300039450500123 1.0462448683546821 1.4316496326870118 0.3378879496982891
Ni 3.1117756199544715 4.941910849595129 8.046096616584457 -0.23338906125224967 -1.9690451603987573 -0.4783887101602341
Ni 7.818271920467882 5.483107929465802 7.879957674425631 0.2715246917817066 -0.21012829095209618 -0.6988471793937447
Ni 2.1247193164962406 2.903537670704513 1.8692565311168003 0.8345734012851821 0.673904136295162 0.8197908436593688
Ni 4.034498099147897 1.0922557493703224 11.206737008325375 -0.08657032899207671 -0.4019793808615593 -0.6868866645977589
Ni 5.743061995915821 1.3299685890712363 12.804599296499635 1.2293076705485537 0.3188903255498637 -0.7512490900342288
Ni 0.8776659108672326 6.3173507980883725 11.921627172828323 0.6804049135281572 -0.3620971999546409 -0.26582018519776157
Ni 4.896421177100459 5.79181139534449 9.616097396009366 -2.1401636457465596 0.13621010350639123 1.7341581744447425
Ni 3.759966826858201 7.367678767596961 8.047141377379877 -0.7349475246607279 -1.1884705819275336 -0.33600358819138265
Ni 4.1586424187297695 3.562615999306342 0.14323020391115823 1.4373549106019052 1.6695589504071182 0.9153240382716881
Ni 0.31070600037437723 7.672838653915376 4.792824125046372 1.038852946765985 0.029621422410858658 0.1114956314788467
Ni 0.6653789412515039 0.5182471372095125 8.628834154830043 -1.3233825354477917 1.368322847603908 -0.2585755878202063
Ni 7.766162072205569 3.0088836211979073 7.705348936160208 -1.2228007226679714 0.46309296034342823 -0.36266567086360124
Ni 8.117699815042805 6.103976031956467 3.3687528964431346 0.34926842362108884 1.8075225462695066 1.1139335299509074
Ni 5.363578504194982 5.86611668767425 0.4175160810271715 0.07575369799254696 -0.546640186238465 -0.007625891976373963
Ni 6.808763789924923 8.281162301631948 12.82170004375226 -0.8342887801652277 -0.4796063846174191 0.9695586312455365
Ni 2.714427725850964 6.32588468994929 6.022212740784736 -0.4680554465550261 0.8079095188407506 -0.9748265645126953
Ni 4.94267084211064 3.129795683454776 7.379129931933079 0.22971958282046243 0.5705241919449142 0.2878280569274204
Ni 6.856936327564709 4.3992304108387605 2.518172020044348 -1.3693165789757449 -0.1771559497911336 0.3198699158543136
Ni 3.279559991692061 7.925577369736208 10.811231409331754 -0.34271699565581626 -0.8016637950413549 1.15506398144263
Ni 2.346408217617108 5.96161936161133 9.804576455509677 -0.330299852938386 0.43042118114202005 1.7545195117099135
Ni 7.866270483917371 6.817453342903473 5.95180080770311 -0.13040635234042058 -0.39547397564287373 1.3804602542973903
Ni 0.48850029762951336 4.987528713598439 2.2834304763829905 1.20047557680821 -2.883576784676137 -0.9708691225268441
Ni 3.5942335192588577 1.9495181503301726 4.377189712235315 -1.4314873960775347 0.3831447646535595 -2.1234170224158397
P 0.8358150459106826 5.467184712785401 4.626565232261603 0.17179545681016864 0.40332509625617635 -0.16968843776949488
Ni 0.45832218518830253 2.191232396407933 6.801456873932421 1.6631095952373487 -1.5110599535955396 0.7376914059544522
P 6.380301985367129 2.0861062027864934 10.553252407768431 -1.2481672264572181 -0.24049353350751485 0.2590936651072054
Ni 1.9456632485346301 4.490484451918046 0.04371147313910187 -0.83123430960962 -0.13683513868489983 -0.7091534464157594
P 6.450157201039802 4.171360847694161 6.26483348395931 0.24367527366960612 0.04625671697469453 0.3393056559814221
P 6.828660943373175 1.1239648346861524 3.5001006631569638 -0.16618993769793314 0.13404292065174334 -1.223933293610518
P 4.580035377239679 3.82539027894645 2.6285998482016995 -1.0601565933397676 1.4663854935063003 0.41894377663003984
Ni 4.420473575127737 8.342868199969626 0.016562342916336556 -0.03106921060097875 -0.3305083694047663 -0.6981630088425267
Ni 0.909646945312107 6.7279848264088224 0.6900146022512847 0.13560486582222453 1.2712112527608752 1.3081235524061923
Ni 8.39014339704893 2.466862453057404 9.93642050649267 1.299622971134349 -0.1099156885862365 -0.09748466191173534
Ni 3.1011357247373206 8.233291929691099 1.9812135008415057 -0.09678866428597524 1.222965787490926 -0.48035071898261134
Ni 1.292847990783516 6.473204202986076 7.909159700093908 -1.1374339270656928 0.22790695509175588 -0.4026103295773389
Ni 5.394573379676959 6.807527657520176 11.612011715931022 -1.499617773196869 0.6797248567419971 -0.16640205370873923
Ni 8.496734636483403 2.6013902848391472 2.4947193835385906 -0.5946367687224017 0.018223979207194423 0.445345149441704
Ni -0.02102615437792107 9.094967781162712 2.8680313697720283 -0.8490062888810604 -0.7402555671372025 -0.21676482243200734
Ni 6.146004533717847 6.86278735428051 2.455385650419558 -0.7763641399343016 0.12062459036330839 -1.1405012531371068
Ni 3.5294418681774795 4.854630745283696 11.508324014167256 -0.11774778303614561 0.21678127749223955 0.5977542313054608
Ni 7.615134161954543 0.8876923181501762 1.0010072022128365 -0.8787986896521447 -1.2159261070353253 0.21636141634600156
Ni 2.739296878527197 2.4307673868388067 8.581312646923424 -0.8690524088986581 -1.0678799301259545 -1.819736571837195
Ni 8.9936049239735 5.467477721948007 10.073008558948992 -0.6645453207880814 0.1839590887558961 -1.644899499987225
Ni 7.007579663289814 0.5850257566748169 8.756805906598464 0.563113758413456 1.1477543351550943 -0.6156105427605914
Ni 5.1293085221546955 8.459174524451772 9.600470851106103 1.1293236392537325 -0.7889877422355831 1.0854973860974015
Ni 5.780384038002833 2.927903213882516 4.406284606428514 0.6339638484567984 0.3469924831027185 0.1027317692432876
Ni 1.9197777203256055 8.633331845476055 6.816976287360605 -1.0167751410303392 -0.1907789398912069 -0.3935932136803931
Ni 2.679394817846816 4.631778964048734 3.696513861388481 0.7123249021652055 0.16865485429865795 -0.4222337602352212
Ni 0.8632910644804808 0.7916375050723096 4.939316802852428 1.0952297828938171 0.09077408266077915 0.027947634252861543
Ni 1.6502184472638894 6.817407560221816 2.9658222621383383 -0.7380842705174966 0.1403081848351648 1.2577929224724402
Ni 5.676072776114893 2.3031802095963068 1.739784938697287 -0.07917737896211526 -0.5974413280507324 1.2434397390745617
Ni 2.8057367061482372 0.029362265054078084 8.922139989213756 0.34564188261209505 0.6517635956423807 0.8123960938571945
Ni 1.2539052417658363 4.073999396881796 11.131419918730987 3.027459831346754 -2.1080487674898856 -1.3893547285735428
Ni 8.66771463940067 1.7260711942336664 12.239672137072363 -0.261324354209937 -1.2775281961178384 0.5941238336417253
Ni 7.017523661745774 3.2827006836537502 0.32286221800801745 0.6335162193964186 0.08346443637324334 -0.7058392944408618
P 7.994718375575028 7.627934999745918 1.497203568628938 0.5253085146402244 0.5915678999890909 -0.6617217352963571
Ni 8.224327680622604 4.220604700084729 4.990242710967084 -0.47162105241909746 0.04721985221891223 0.12972835243678946
P 3.339736748462386 2.046128765163359 6.37711184810925 -0.8029208073769075 0.7178352904604733 1.3840880808579648
Ni 5.230900292752193 5.650727483549424 7.534172067711815 2.0026083410661837 -1.149819188103923 -3.0479929183030987
P 2.000767284177329 0.869766566974086 2.7522295704417443 0.44952087808594837 -0.13471989211410992 0.8930053201698298
P 4.803555585626837 7.238754736050069 5.8983559364436715 -0.021029309866473462 -0.260030575099178 0.4565618440931299
P 3.0899555938766134 6.591003042890249 12.930734247079966 0.07428097010176239 0.4816979770391253 -0.28127585763119944
Ni 8.042213329526286 1.8088279695973604 5.181307576327398 -0.9866250998095202 0.6802871570033704 -1.0441105956204986
