# total energy = -340891.89547399135 ev
CRYSTAL
PRIMVEC
9.03729298859146 0.00000000000000 0.00000000000000

0.00000000000000 9.03729298859146 0.00000000000000

0.00000000000000 0.00000000000000 13.22699179238046

PRIMCOORD
 96 1
Ni 6.198091931657734 1.7961529716696334 11.177972113213507 1.0400353971098604 0.8029395764299849 1.6187927755978444
Ni 4.6037597900970635 0.3498046976026152 6.110645275903643 0.3743011982200006 -0.5185354575824489 -0.273149114759007
Ni 2.8899636706924747 1.528341827148363 4.891262292612441 -1.3958894443682668 0.005919707918544643 0.709178900337056
Ni 3.4402444491867765 4.405029714237485 5.009458338230662 0.2785507453905525 -0.3072992782781546 -0.16564434960710828
Ni 5.555305420716927 4.343169442784152 3.067220234353328 -1.862169287080109 -0.1879656388121279 -1.3159217082943724
Ni 7.060077987390449 6.119639190023491 2.7093777682436873 1.3697693502424475 0.23994434587226418 0.20011230147699083
Ni 5.163466465322677 4.326802904931414 11.678878544438538 -0.0062228409812602505 0.5351697237050203 -0.746306915537605
Ni 5.570460961290666 7.873380145048786 12.41682594454652 -0.06322908316297497 -0.4633166463184601 -0.029464328007704096
Ni 1.592226452262113 6.483372163793218 0.38881507711400465 2.2287147526140907 1.2625396931288062 2.1160976059362913
Ni 2.6786717573865664 1.502007154976703 0.23494883552408125 0.22658309407400978 0.6875680069354998 0.6092856289838281
Ni 0.46464248509489536 0.07440403431341085 4.9877399153882 0.23995720138807064 1.2482836974304243 -0.7199970739984826
Ni 8.62689157137984 2.0378101898817804 1.280222040621201 1.0270068460606765 0.6657671090103243 0.06525177001995859
Ni 6.791281777918351 0.8662534655472163 4.826608593853597 0.6464745793292995 -1.1046515904283492 -0.3172535612773891
Ni 0.6848668589273891 7.54736883279056 2.520059129446418 0.5543103011892132 -0.4819170350284669 0.12648156336471766
Ni 7.642522492123233 3.8067066854808136 3.819995121294544 1.2881049431924203 -0.31021310949083997 -0.5317946365852003
Ni 7.757747979490656 4.047261353931485 12.367091913010803 -0.29678989410639856 -1.6717443880942113 -0.1288238383446491
Ni 7.9101077043163315 0.046843905193748786 6.9500299652554025 0.20910576322485278 -0.33364588659248345 -0.12972295312015078
Ni 6.913746137080386 0.5169530489010797 0.13520603874158973 -0.02786304495885524 0.919092761285501 0.3146199803092839
Ni 1.886336119782536 6.367993042442639 9.215470590687135 1.4653542240283086 0.8527392735609314 0.6131021745164409
Ni 8.896220981146422 4.601175124262783 1.1925837942528215 0.20116748221438258 0.8399241240741341 1.2414299077333844
Ni 6.279219712057526 2.0815326140295127 6.971246818329324 1.163611613902325 0.21281637930722058 0.9888647877733163
Ni 3.371994811492755 4.295172378987416 0.6066789099817633 0.23642861940952184 0.6283380176295889 -0.9717044739439458
Ni 6.065433505848605 5.796104096082023 5.016614066928507 -0.7569754509950447 -0.06410043002433477 -1.8097079839565993
Ni 5.527199439092404 2.9141384298068163 9.19531200463837 -0.4421484968812772 0.3333142142846776 -0.45581391018351175
P 0.32002952793756057 5.639017866951001 12.406270386174352 -1.9787595594730438 -1.1180148991091325 -0.828904890145495
P 4.185269857271712 6.151730617916959 12.695928283100486 -0.897822281942499 -1.2609206694681445 -0.015742350435921273
P 2.480276061372682 8.68928504312766 1.2567033889878694 -1.5901440015129 -1.360082976192619 0.8466215906989677
P 6.550293319397591 7.839038431166731 5.806781657911404 -0.8307715110405886 -0.5012311619760464 -0.4905955366390713
P 4.498990450877415 0.8033520979256686 12.379657365374385 1.4725458566807414 1.2209515852743749 1.0245043913537968
P 4.021541217692451 6.095355983391628 8.144361571998957 -0.4672522339274405 1.37540495126167 0.7696463615944938
P 4.799381037121003 1.0075226242476143 3.870734099825968 -0.019555553534424387 0.5018276579094647 -0.5878842804899165
P 0.21568403776556092 5.419628539003429 3.2813914292494535 -0.5633808960319137 1.4527637889578078 1.0132185340273323
Ni 1.4255426178303687 0.9822905018374304 2.6590355268805324 -0.5978889571111122 1.44566677290171 0.10678279938420965
Ni 1.8480270342177905 6.395394115203269 4.621762078005762 1.0158896531015926 0.23565677424050382 0.0008602911177662603
Ni 5.848195053665225 5.4893512554771275 9.132113310072947 0.6336702284757797 1.0248895426073574 0.8128766330380387
Ni 8.720490816294696 2.390716486485533 10.15330393644562 0.17279921548433466 0.27163164967321607 0.7317071633465592
Ni 2.2862634525253234 5.500313492040005 6.962371292749438 0.17104906556244734 -0.6426030121890353 -0.10493854708661927
Ni 0.49627481849751903 8.947128053330006 9.05858498946353 0.23218372809023885 -0.1714846104379692 0.9082846149264034
Ni 1.6349366995796373 0.9471715807464655 11.390609679466005 -1.0745028347591108 0.851310768644521 -0.33948409054081535
Ni 3.855245986865161 7.024850618781961 1.6594322825999823 0.2819209474143661 -1.2756744307385515 -1.1202484164253417
Ni 5.713765318403232 7.937671448353244 7.994499754993544 -0.6086803912996613 -0.3520015062815357 -0.17653322860547016
Ni 5.42114680424874 2.7952528387230173 4.979037002107036 -1.470111793317952 0.9528940261056622 -0.6888468736479233
Ni 0.8562356261160957 7.504423615851737 6.948245099862849 -0.289106923639844 0.3386371691594877 -0.03623558529326663
Ni 4.905759014517232 4.5184025565139025 7.065197613946813 0.9843275620245949 -0.9616766573942988 -0.9589245485704581
Ni 7.989174981883201 7.237082410573064 8.794891235690855 -1.016096884016392 1.1761511411302326 1.9713609530161276
Ni 4.559549352120481 0.2285965221852137 10.263034749591913 -0.35045447350938996 -0.7879590438607527 -0.7549882453616868
Ni 8.605681044411108 7.058107857488793 4.845139563410216 -2.0401567316336027 -0.7680257952719354 -0.6492215459468174
Ni 7.176912112934451 6.064809932622852 7.002343240249525 0.5327976239284178 -0.5524022855332228 0.14365421848926227
Ni 2.2839227936054676 5.063288071011471 2.5158269650751106 -0.19818680231950384 0.803343496736623 0.05558185103036233
Ni 2.3410927099259626 5.309897725857136 11.49227199730864 0.714621411508866 -0.01760434334532452 0.02885240545531805
Ni 1.1633978560996376 3.474748834345115 3.889807306970199 -0.33536364061453855 -0.9504584200809759 0.46631429549420333
Ni 3.589495345176814 2.7907161175733353 3.058424236952959 0.21938966164936408 0.11350032061370131 -1.4328171706325519
Ni 1.0450725771897036 3.714661854983779 8.10116240712327 0.995680525143569 -1.120003133183755 1.2272394751656153
Ni 3.3294833846240217 2.592690950577652 7.125592036454971 2.1327820085705076 -0.1291943343101904 0.9735628673089234
Ni 4.1084528656934305 6.834217957564047 6.070448299804698 0.1646182223354391 0.6216906875164003 -1.031108784044192
Ni 0.6641642278323858 7.459201001044946 11.283074024820223 1.2909825218505315 -0.8395410297031025 -0.2662112499885932
P 0.21993156553518356 5.789552058565052 8.129494321075965 -0.5454165982440091 -1.8583275447365157 -1.6183600589357998
P 8.720436592535934 1.6519719971237623 8.099165165342235 -1.5437145064057671 1.573254424846413 0.09406303782469606
P 1.9049890927963682 3.416846897281345 10.355385944325949 -1.055856166192201 -0.34212384215650754 0.577353813272238
P 4.011383300217863 5.995936721703077 3.617331111736845 0.38860501643718237 0.042147837012643546 0.566138918393025
P 6.981381238841781 4.065905289652189 10.352145171010658 -0.06962315961477687 -0.268038533005319 0.23789826197651287
P 6.319092249333218 7.745068657233675 10.246249785067402 0.14215500823591648 -0.3561636080790253 -0.16901532296187022
P 2.4235941588810372 8.373955811345377 5.665980630994977 0.6266696287882305 0.48584388088669883 0.31652876729622265
P 6.940198294062696 3.5543222003270882 1.3002459710023773 -1.0603640813648836 1.635393874489635 -0.5279516086900263
Ni 4.978039284945832 2.7016445565150358 0.27425925316728234 1.2360866411436002 -0.9466323614666665 0.34731104278440184
Ni 1.4353209689936275 1.021214123334802 7.160987498715617 0.8831723932398081 0.26993472158676735 -1.6840409460733772
Ni 6.900515539942668 0.6500000783146633 9.22511247872418 0.0378306976945284 0.6210293997833176 -0.950268415557357
Ni 2.5788819666798153 1.5949647520795505 9.31196086567327 0.0519545386904202 -0.41752684167785514 -1.6221138695512773
Ni 6.487429908407177 1.8428034787904675 2.302118479587081 -1.5479401144513407 -0.11906881584041429 1.7344399673512194
Ni 4.064558732976288 6.8447735159362155 10.545510709670134 0.4213518718509001 -0.2960568725951159 -0.9195141650936358
Ni 7.894310515930586 7.163844187073017 0.6533700849216683 2.3085343931458953 -0.20437596184935122 -1.259438171385347
Ni 7.8022024243816634 3.946423237222018 8.26827189806129 -1.215533242472281 -0.5045818236158343 -0.5378192455127254
Ni 3.0558612606221827 8.215224794865266 12.364499113612707 -0.28623217319521027 -0.8257537461110229 0.14879436792930506
Ni 0.10731514469348473 4.9903751900639906 10.277875792364837 -0.11425982448754515 -0.8562596280093641 -0.28813761774803925
Ni 8.641441613314079 2.4992272650597007 5.828209079915182 0.4236447816501349 -0.5948401429824594 0.486796217497639
Ni 3.7309560944915012 2.412523474800638 11.169599964860787 0.16851730027952913 1.2250378395286061 0.6792330047072431
Ni 1.189172216097433 3.4497697561424836 12.64565291770647 -0.012663711510597545 -0.7113615098106717 -0.38672682557786303
Ni 3.2258527443383564 8.346166134980292 7.951617799106609 -0.3552747777161688 -0.11632030656099968 0.5930239157093271
Ni 5.41031108978964 7.832359871545984 3.5183140095924403 0.7532326961231609 -0.20390467863988754 1.3692358463364804
Ni 3.111151419972291 8.598848850807205 3.4248385755934243 -0.7213049941766287 -1.1764352480295546 1.5710342772666428
Ni 3.522384406416777 4.282700914472354 9.308283591099952 0.19034596611884638 0.1224115070604021 -0.3502138182534936
Ni 7.412189002199037 6.271284968692147 11.543632741607192 -0.6747651987438766 0.4881519601945851 -0.7475893817944544
Ni 0.5811666314846471 8.962346854955634 0.12820304029758853 -0.2968965948875919 -0.4032309938804733 0.8012819862219039
Ni 4.576394866508942 0.3152587408958929 1.7398786510980095 0.6641467997980819 1.290493498029255 -1.5029357818265083
Ni 6.152381303022093 5.449569091132704 0.42294622206620414 -0.9325455443562971 0.26656246268042477 0.5910835041535046
Ni 8.100378873809172 8.956535875475064 11.180828801570906 -1.1836155678280775 0.7554073351769766 0.4367340107339253
Ni 0.119711599675594 4.913476862847568 5.916922764165657 -0.29402492976675165 -0.11443594505409324 -0.01762465506029868
Ni 7.78823980650067 -0.053151032066982046 2.522519984364861 0.8184109325927066 -1.0954424131252554 0.25839175394417435
P 8.5513669127187 1.679978568523891 3.688148244408207 0.01916885961896699 -0.12752183170377393 -0.0800150443720622
P 1.7740929391469764 3.0461009840451774 1.6644850331872079 0.32975529328882563 0.027775113230739265 -0.3589398852725818
P 4.787768115452992 1.1043572201018832 8.234133523274588 -0.39926815257798337 -0.5459567870181953 -0.2990588926462333
P 8.715339559212387 1.7227701514795573 12.349302001490587 -0.6622539536507432 -0.5614427984689363 -0.5418941869130474
P 6.168946661323622 7.828672655950227 1.458659778493735 -0.7418046567918773 -0.16429014957205898 0.35506780391168524
P 1.7616485865112945 3.3558180567956817 6.112245780516409 -0.6603814192183788 0.0863525565543158 -2.0336145596397106
P 7.014484843565457 4.026737661240393 5.884054129063279 -0.5678150205438672 0.547032022360245 1.6487936928353089
P 2.302485393688031 8.387294856000617 10.063849194158742 1.0927589527558212 0.004856042540720668 0.47577235558330966
