# total energy = -340858.94335671753 ev
CRYSTAL
PRIMVEC
9.34508890836751 0.00000000000000 0.00000000000000

0.00000000000000 9.34508890836751 0.00000000000000

0.00000000000000 0.00000000000000 13.67748223346173

PRIMCOORD
 96 1
Ni 8.969734203309356 7.376527351514777 7.988881132682574 0.7619273956836813 -0.2655373638500201 0.11201139477300064
Ni 1.5135773479987162 6.865752819303707 2.5415362090003155 -0.5881064238030517 0.3724469186200811 0.43037644394701363
Ni 6.967875952443151 2.2582314238665258 11.589327137618403 0.5531034253653055 1.415006367703376 0.48081891686828154
Ni 2.7985644727430468 9.06308229783076 2.683289995783404 -0.8360528140441861 -0.3245812052870539 0.4315354972521213
Ni 6.969072123841563 7.9849113388540935 6.955779669176707 -0.7681502366649415 0.1557008652411512 1.250211767691073
Ni -0.063413905276138 9.129880994360843 4.143825552842683 0.6806872206552665 0.4768090243779401 1.7518723038950537
Ni 3.6009992342075967 2.524145932786993 9.493814273309951 1.393590363921445 -0.33462213446282374 0.35276718080296665
Ni 2.5974955367411923 3.1845727210462913 11.891640768388994 -0.016987535696932034 -1.27011313460069 1.1501724576782837
Ni 4.212149367905742 6.313205739038711 13.024149682156347 0.13940007119859862 0.14846809493813787 -0.3607165175570304
Ni 6.406628594272515 7.479416781956328 9.44268729111688 0.3145528745167744 0.42039644991616626 0.8808697132485603
Ni 6.7998605964114835 6.734276761457913 3.4357836668553383 0.2635401309143332 1.820354150816536 -0.7308111338948511
Ni 8.218874988312283 2.010278176100342 9.404910703140771 -1.713580350293391 0.9316700837298794 0.8095894776463347
Ni 3.1315954112213 2.171462272036389 1.0307502391008625 0.06807586973231503 -1.7950778927482505 2.3772072730322606
Ni 4.054647237055432 2.2493442441798845 7.106054308155673 -0.7904085338425096 -0.5517032025836692 -1.2814907803100122
Ni 0.08014628722033397 8.843472705153516 -0.08567110386675042 -0.786190124885788 1.4375402871398342 1.988616654772782
Ni 1.3555145118054013 2.7594926554245975 9.89727260639644 -2.3135233617200543 0.21047821809234718 0.09283199363107238
Ni 6.559112412302924 2.970701013045806 1.42632879310031 -1.935769171954447 -0.20031104775135825 -1.4003173982326336
Ni 8.541028243136225 8.693605512057134 9.813046253296834 0.21065536710015978 0.9404349744067029 0.911144967193334
Ni 3.149780954512786 7.324129437210891 1.1705789375396314 1.9210408646053367 1.3951510235403455 -1.5296641989602882
Ni 1.8751014629907106 7.6223031935322885 5.04781152799681 0.21278732584149804 0.4621737909632686 -0.6304080127847401
Ni 7.543140944188929 8.924214274546342 2.7249784380358797 0.20603895137407097 0.6201161439404288 -2.0419685880313607
Ni 5.293815390187144 4.534050305325331 2.2813493051586518 -0.38297532895523073 1.257852314955466 0.26131072736318217
Ni 2.231364292847501 3.9897175583353683 7.868614509152369 0.44898017509113003 -0.056503077293051075 0.7633659279024209
Ni 1.2036007442070489 3.886893543517168 1.2894251075342207 -0.48621103441813035 -0.34756532488705305 1.5893086500957985
P 1.388960585515693 8.228416324232432 10.115988808560495 -2.6811538327880986 -0.6813387381963363 1.4946797124653033
P 4.022116982072049 8.38007777442643 5.0983637872133025 -0.7339697341284909 0.16195481657066302 -0.7547249643979712
P 2.7981813240919933 4.529368415711233 10.283292068806544 1.1654733497014123 -0.09552316730999033 -1.6363539244100593
P 6.591184757922852 0.4306217034284003 9.470630976394474 -0.36597673751470516 -0.08242828179924513 0.08027421157071982
P 5.967241197315126 0.8532533557189689 1.4652819277878228 -0.4998581928879197 -0.41266925647523767 0.5984252892305565
P 6.092250453538254 5.527975286515387 10.381427652448313 -1.0104612829971695 -0.7680543345170256 -6.167417253074308
P 7.507096935722711 6.291459716819139 5.585418614397419 1.0452058855672064 -0.3352353425667904 -0.0987028505895526
P 7.504601796946336 3.5929718027135644 7.868628526785946 0.522386713007739 0.4499983319429992 0.6856023985686966
Ni 5.369529301671018 6.624920529393696 5.616330299957325 -0.6307983062446233 0.06598170620744766 -0.6344245901433009
Ni 0.3910555308992009 4.684431478319468 6.336831993175163 -2.0178202729199315 -0.5868216435533571 -0.13737969833446018
Ni 4.824701264961401 6.706278874663828 7.931585457207533 1.0968092115657948 -2.285670344063528 0.9199080580979448
Ni 4.719569013147827 4.414386440038858 4.83782083547883 -1.4290705591059258 0.5446216131465395 -1.4281724727716887
Ni 0.9703847018728659 1.6580150443569923 0.6281114703240682 -1.5347824940234602 -0.9184831527259602 -2.10587412843607
Ni 4.956074526827644 1.0393327688844702 11.182627927649344 -1.352983131923044 -1.1870708733665298 -2.6853568151258527
Ni 1.9977370665951135 5.380958345579285 4.7756161847257745 2.5041768317769906 -0.3128698303873967 0.5975688547675322
Ni 6.669926478258956 5.523751306264744 0.4604633762920702 1.1616056392158898 -1.3444856359749942 2.6333660238808583
Ni 8.912785230638075 6.582353648770511 10.923466180076476 0.4731359464017271 -0.5802542747484846 -0.4419998871185549
Ni 0.28415799176406364 0.8247527031339877 8.30165752515365 1.326400239228193 -1.7741097751370154 -1.1451096984433957
Ni 2.955169475044547 6.685803784555069 9.960093098517897 0.1162352030463611 0.042853604830416524 0.004827246185314268
Ni 9.111088020281102 5.3761175894513356 13.502150987068731 1.4561285916649824 1.279696664524067 -1.6462590993389132
Ni 7.038412684593272 4.688720874193462 3.924083259900928 0.9134795288637817 -1.5156635138058219 1.875781478546905
Ni 6.520218151676426 2.5438921059498445 3.6430792356912716 -0.8137590356429921 -1.539976893740206 2.0813614880066864
Ni 8.589744192354374 6.9749688750321726 1.3881279380813294 -0.04614744509033988 0.9982968797204936 1.2052290323327954
Ni 6.474511321132409 6.12319204338312 12.129820922026587 1.0378836408741803 2.7823177433236337 0.6597283590154123
Ni 4.579925347472249 9.048120810261558 13.540749008372341 -1.8014418872930653 -1.0630490843962144 0.11494656614192462
Ni 5.213223342219122 8.598463160438111 2.9805423263244615 -0.011901893643908534 -2.090317154538077 -1.637582911721154
Ni 7.745863960952651 4.199253145016609 10.395255580715737 1.4599613351475116 0.45526857920300307 -0.6379806829256753
Ni 1.4844860857857691 1.7525593102768084 2.7590356805700478 0.6463686498790545 0.4635089648349243 2.2568750170983907
Ni 4.45571042381838 1.0866469547451036 3.7739459937309987 -0.36091526383139777 2.789093371484571 1.4704673768851577
Ni 8.409524150023282 3.329169283918419 0.30157163070001164 0.1265818363880078 -0.9453375539146429 0.4684125727841288
Ni 1.8860445622683724 5.47047495359015 11.996109518880012 -0.7609349498634249 0.9513467362232003 0.8598067219306741
Ni 5.234016165355583 3.990951110089981 8.34268994215481 0.29928257862126517 1.399106665753984 0.30789757398378587
P 3.6638449580694887 3.5397328303951703 2.9914022543095773 -1.801321559665117 -1.3833195781230563 0.6987623329894224
P 2.1917784956312967 1.5996923435953463 8.099668097880361 1.2625137249868772 0.1699674024624944 0.62996372615847
P 0.047376797957269116 3.4135928183969813 12.169375880448927 0.37407674091402027 0.14508632295009852 -1.789370557950828
P 0.5403451974922865 9.263048513324703 2.114142299329818 -0.07328106808233831 -0.8606091632273114 -0.9738143211980972
P 8.209071989898733 4.842671871204734 2.1197502872687806 1.0225079297490585 -0.16461256590848425 -0.5914812538125556
P 2.032323241169517 5.65452648243178 0.6185009807449501 -0.6865611629375402 1.2938166488652167 -1.0214982575376215
P 0.4069627414802735 5.203924978614276 9.084980645001849 0.07939258029671488 0.45331402657979347 -0.654901112830098
P 3.7744440869773688 5.110296531421369 6.6664865509796165 -0.3372130351184515 0.22178258736157289 0.33193687432117674
Ni 3.903256794443885 6.380901564117602 3.2121024188789677 -0.25727795205470533 0.24239692117781483 1.6992155969312863
Ni 5.078308291602893 3.8219732098861545 11.071238204207825 -0.7446909772007367 -0.24810477019586952 0.35278620696636015
Ni 6.93166373237403 0.0053986579442401655 11.66267954509932 0.635622467106144 -2.649579143305611 0.42560421936935094
Ni 0.7197606276561648 3.712000201944631 3.922236670304629 -1.5329621529852695 -1.5292831614717857 -0.04541725179253468
Ni 1.0765449134819505 2.3381225901557916 6.424504815116443 -1.556971114305357 -0.6919093146233309 -0.5792672282448669
Ni 6.526675608210042 8.129993846356825 0.5079803505850907 1.2765033543977498 -0.44942343327613565 -0.31008609699467243
Ni 6.17906633081364 3.3417758090469976 6.058646447823015 1.2451891176655006 -0.19701592193985423 -0.30207248266157655
Ni 4.740959921983495 1.8641770538911488 13.16898080676363 0.9341501698392558 2.429179552334494 0.921711944075903
Ni 3.0495735646286115 8.984976043550063 9.259956223358026 -0.3042880022556566 1.8649360511919688 1.0877247327660233
Ni 6.275077775714321 1.8481035007249846 7.749497331575327 0.766297499726919 -2.1767900387203416 1.8158441787613242
Ni 2.313302033638738 0.7262096736096356 4.916890568440593 -0.05637709323814807 -0.9464629257683378 0.6930187456374258
Ni 1.6535387467019964 6.237454447198637 7.324866764736943 0.3885721063167179 0.2085838292831117 0.13581955293619188
Ni 3.4657290702074643 4.143332132140838 0.26807135547322924 1.69120866746641 1.0850919231288667 -0.5968923975257978
Ni 8.299261444321205 1.9372276149957455 2.3382207135908177 2.651130546953131 -1.0834955251760243 0.9998685950829875
Ni 8.151515586439196 0.6142620483518267 6.385414307619894 0.19970298185371413 0.6191344967534499 -0.03405657536407684
Ni 9.379572428690343 5.882397133829309 3.8360684077004135 -3.0105969941531443 0.8513161679611596 0.8076128135359381
Ni 3.2277470324577324 7.8997028168953225 7.2576550152708466 -3.4657730136423406 -0.09811586773783101 -3.0890639773117963
Ni 7.156058010644924 5.791179719611327 7.766580154358902 0.12734005471027102 -1.6177571352444784 0.3181789013051359
Ni 7.531581069033961 1.2152914506087182 13.695399952553466 0.3479985557697297 -1.2199084887218408 0.13309135537175143
Ni 1.8723540068099827 8.375367849545183 12.432312109489128 1.8367035387088366 -0.482033506001673 -1.4694152814715595
Ni 6.724613939380115 8.726126421951466 4.867118624159784 -0.13960524523086926 0.07446737508095562 -0.5195019352607763
Ni 4.74143652152505 9.10126633168945 7.997921571829636 4.859725131778578 2.7424286204381803 -0.2541951993643235
Ni 2.6865448902995523 2.986615699698118 5.015136424133152 1.5234213033743698 0.9129887052702921 -1.2894604287790503
Ni 0.4914965480096273 1.1726498092731328 11.909025437548886 -0.36699617991815503 0.7724144112579343 -0.8613982347875101
P 2.6432210574633093 1.105159576153343 12.454291758934952 0.630761796579733 -0.8363628890854369 1.0091502774952297
P 8.598930414890617 2.1849565806247266 4.89417265695981 0.06423824115377968 0.40042412055929744 -1.2247766154474198
P 4.7602762210500424 7.969463906654285 11.66114788500401 0.07543693808307653 0.17627714673060607 -0.6554297316400582
P 5.687168878483764 3.811282428012845 13.207222780174432 -0.2088064868168791 0.38497770409724025 -0.25179456034263087
P 0.6297178911317797 8.66387878378878 6.465413876942141 0.0621996134571961 -0.004945516930733419 0.01913363550565737
P 5.76605077515562 1.0411830965163893 5.798773538973434 -0.47479893592644684 1.0426610076581657 0.06474989068287558
P 8.263656655040341 7.400796547777874 12.810699437672021 -1.1329938890164681 -1.1371721887638737 -0.3496512608818043
P 5.406676030645148 6.67820622715734 1.7012734615698841 -1.7597439933336467 0.902385475833149 -0.09708279848762635
