# total energy = -340857.60223046615 ev
CRYSTAL
PRIMVEC
9.41176914923416 0.00000000000000 0.00000000000000
0.00000000000000 9.41176914923416 0.00000000000000
0.00000000000000 0.00000000000000 13.77507550610450
PRIMCOORD
 96 1
Ni 5.3350801280034545 4.190072536722985 7.625276016530777 -0.6123303293474228 1.058607246574777 1.0481256303171624
Ni 6.3319464739239795 1.815643197260312 10.443601091827746 -0.28830782477731637 -0.3026023870231176 -0.5174951892433927
Ni 3.5595404788040517 0.5683099113370329 13.464626496679516 -0.0019905480674675398 -0.3369214720199617 -0.7801858276732371
Ni 5.716143834619297 3.286505057718159 0.9317378450459216 -0.513139226267542 0.4877444403435213 1.1765082673593352
Ni 0.850500160209559 0.09648192721943119 3.69424077673715 -1.5956250792321294 -0.1631634921667835 -0.4202606956692504
Ni 3.790627645088847 2.794749534921993 13.20436002270797 0.3944861578083077 1.5503590083054781 0.3666344257033621
Ni 2.1343445219349237 0.30559825975783195 7.639711787949651 0.6041621917143336 0.7068003728025505 0.06251225960160847
Ni 7.532605855789794 4.088105430482222 8.959928872471586 -0.7633057640884467 1.6570086245459332 0.9319662748140594
Ni 3.5518792987708245 2.0322644744651686 10.961901568144444 0.8626853290300497 -0.485244556739803 -0.3692379247644802
Ni 2.4625046745375365 7.28679868265983 10.128138356894452 0.9833502857129903 -0.7602127269854198 -0.9568594385113134
Ni 4.44188441852764 8.340446231455612 1.170525720794091 0.5609077519010728 0.25210874914894005 0.29420876364278364
Ni 7.448803463878426 5.173442405779079 0.3946486541096513 0.4883283378714493 -3.2135079414211947 -1.3365897781666853
Ni 7.654187088798673 8.435015687197462 7.74529771940267 -0.13341480014944118 -2.6981655368547464 -1.642331739260049
Ni 1.3433041540815256 1.6255913441756025 1.8789204031563709 0.5943166663788216 -1.236408286149077 -1.5657311198861743
Ni 9.345773757781386 3.9575830168448842 10.559931498865447 -0.3633159028530904 -0.460439067660349 0.19972072246552702
Ni 2.5655729577609634 8.20190499055991 2.740689274488513 0.9098820413205104 1.0399130125993832 0.23101413326216988
Ni 7.428295219047465 4.404180871582791 2.800996126062107 -0.5477807276008114 -0.22103671033448385 -0.28143963690257334
Ni 4.765028098209234 4.547230349869054 3.2471572747145814 -0.5301802409102289 -0.5387906082870592 -1.9764314255604993
Ni 6.787579626981172 8.70400404757784 2.9540371384064454 -2.301769563618236 -1.2465170924483049 -2.118546581697416
Ni -0.29118695893857244 0.541651075410601 7.891189551951874 -0.01347412322703486 2.308803330536566 0.5763246006767753
Ni 5.942760410589863 6.891880851954417 0.05671061460713698 -1.0257909713757043 0.3065258904472398 -2.266122503838588
Ni 6.793753747499349 7.956747229496645 11.15180471527765 -0.4548109228402941 1.266118668729316 0.9963096740871357
Ni 0.4578684482143064 1.373666521141956 6.044516693203176 0.6115263453888887 1.67983616396341 -1.9661241300972203
Ni 8.430469802730572 3.0225708173351302 1.396696178910142 0.5090475726966717 -0.5116492719855769 -0.850579289795135
P 8.462441582304125 8.159693206224501 12.879296342133529 0.24447848629719188 0.6786298239056054 0.2920811757768195
P 4.672444525743811 9.456569103421618 3.952661602791599 -0.7912865655720888 -0.603934906194876 0.1311655991039483
P 2.6989094903539943 7.206233939312872 0.776700596479166 1.7349158785463734 -4.168388401829266 0.7455978052857224
P 7.131739787024184 4.113921913075762 12.088427268477435 1.011068320453549 0.18354154160250327 -0.3401829163800528
P 2.912631942681414 5.984793371312703 4.899780160872286 -0.35542390169952337 -1.1947782693131166 -0.025826731255116808
P 3.4226368857287195 7.960606054820506 8.351580354280314 0.9975355760744369 0.08814024458235788 -0.43131258260803784
P 1.4816383360574115 1.9790409203031307 9.929955676499295 -0.1634781951937249 -0.778688160081788 1.0657289452212226
P 1.3278217939406676 5.153818867241882 7.8219970491874085 0.43252588618984866 0.5742741459056497 -0.2594633897417983
Ni 2.6742224200503646 5.650656745342646 2.786477531075306 -0.48231067092245966 0.23658648514362482 -0.5849007723815604
Ni 6.466440654114169 9.026423021040076 13.896296344475529 0.5264796521301901 0.4310626713807608 -0.4774371448802422
Ni 5.575372004451021 6.663814863545133 9.533302315575051 -1.1086763953170262 -0.04652951102010696 -0.5080011337100283
Ni 7.841509528849431 0.4958891717772392 4.33592578101895 1.5224152307073586 2.2890320614469095 1.9709565184888571
Ni 8.729378177024499 5.8609533137240035 7.164568037584253 -0.11728112781237222 -0.4473791491525973 -0.25477781134067085
Ni 3.0831449631506698 6.733151366376561 12.338872561411298 -0.36734173618303184 -0.31247156650771346 0.8670142954227068
Ni 4.103785437773814 5.526506099374221 0.383187001720875 -0.46847993568695445 -1.4495897621052 1.183258441598975
Ni 1.0245934176378315 7.7724083202450664 11.75447887788903 -2.0653118907429917 0.29723315229140423 1.0535264896177596
Ni 4.3432020196967 8.381895662495332 11.667172484348214 1.2454971358242226 1.369535122744454 -0.5929023025297983
Ni 1.6383348795134272 2.6833800713677234 3.75350103958876 0.13772216927554345 3.690463518679328 0.6288275556714977
Ni 2.4821752719201466 3.960434782876909 9.79620032018209 -0.3628739302196654 1.3537745174760878 0.19013590699056931
Ni 7.133273905384646 7.703768288325748 5.379442501574235 0.28720816395523435 -0.3483058025975034 -0.17074413272751884
Ni 2.2559257549438017 4.636199803006763 12.806935837895862 -0.889896599337519 -1.3328573077074466 -0.2352500257203884
Ni 8.327947402113935 2.7832860001794 7.553259983041535 0.1727367376775154 -0.8130884919385287 -2.1906845373142465
Ni 5.342571896193195 5.6579602781507345 11.887104821916324 1.2596289472399143 1.5567209459677642 0.7101842016731189
Ni 0.6721556066866813 7.158073916917267 1.85787192278007 0.24103629338486232 -1.172095225893304 0.9465130622799827
Ni 8.347994470259849 0.9966875223079565 11.25407111577524 1.2073833596716368 -0.19867325503761912 0.9024088728719167
Ni 0.5553866112097307 8.661020498177658 9.413941318892757 -0.30274276925572374 0.4724792866543347 3.3648872964688565
Ni 3.840745315453631 1.1095816924536055 2.1143642773494964 -1.3496445544681144 0.7336591448666074 0.8144321504506168
Ni 3.070006133511376 8.09184376290812 5.102040019634021 0.11894514577835645 1.2611520687526603 0.36880803631591325
Ni 4.365329088809866 0.8816587629343764 6.59299883061392 0.32835969849287966 0.4841603225366888 -0.9529631887807007
Ni 1.3604900444263324 4.225319611937279 1.3389069755661402 0.5207052115402581 -1.038274705665012 -2.708707574036651
Ni 1.3732429915332398 7.484916421848318 7.799434215165719 -0.056863545956263355 -2.362027222857713 -2.090069557303645
Ni 4.181969003542877 2.3662599238989865 8.6216407151592 -1.2587059212050127 1.4167853139806696 -0.5550044990427603
P 2.6608294726458412 2.2322269203938436 6.490167723971375 -0.7558901883506659 1.324436430633603 0.9441898134634449
P 8.738272298807544 7.784587149437935 3.4184364131871603 -0.1932777950536607 0.4076808021217108 0.7887959379397512
P 3.912566525322864 4.300359646832757 11.326734678977363 -1.9593449023918579 -0.822560435984706 1.7607068714675485
P 4.2763784592103224 3.6341193370144826 5.076225419394298 1.1754708272337564 -0.6724494061265064 1.2272991247589573
P 7.826158933475729 -0.2481591742237026 9.609355056823818 -0.09803976308425696 0.44582003219559346 1.7304447301488972
P 6.564191287805933 5.9646521854759635 7.6643696817691245 -0.02134272734183421 0.8924625602924824 0.020942663689938128
P 6.033329864471612 6.012303972341109 1.916223008738302 0.10517997367346402 -0.6992385012948925 1.3701879258371046
P 1.727586685723614 2.033883298747374 13.688155071214084 -0.5479905296187723 -0.1336459423236408 -2.74145700055353
Ni 1.1852146688012868 3.0267967016532125 8.105529416331112 -0.06483396575624963 -1.165111081265987 -1.5077270325675647
Ni 2.739031861953069 1.2156052711689649 4.6837593545348986 2.4746896209511506 -3.131008697174698 0.17306069667583743
Ni 4.535324461979579 0.25088011666547894 9.179283327418029 -0.5366897598939725 -1.1623764559436434 1.6934709811380253
Ni 6.258214674930982 1.463577151187924 8.026295497132432 1.389849151711458 0.38241071470101234 0.1585851287674817
Ni 9.084041871363683 2.8583825056893737 12.952001317119617 1.0381039844151025 0.5883622485675996 -0.7945485241528123
Ni 9.054865387207657 0.011296946429830972 1.0685407321920701 -1.7580822893605077 0.17874540576544057 0.22708471630077665
Ni 5.596868485035652 4.043766586334147 10.25586076922972 1.122508158993796 -0.6800434164236805 -1.6278697981984482
Ni 7.123156253620865 1.7314455110474751 13.568298074301136 0.010836171383555531 1.1166951518564443 -0.8604135022767375
Ni 0.49402846502961145 6.4725394804796865 5.004994327446544 -0.010538694747794754 0.7542912192946623 -0.29501660425605963
Ni 5.439569588358351 8.452549812998324 7.418497567432491 -1.249844871269957 -2.689396532412865 0.46378073043907225
Ni 8.3174250442796 6.258139380778321 11.81361490538875 -0.5822113984748554 -1.6492948008414434 -0.5567888446366926
Ni 1.6142878095074136 0.667994663575269 11.71260215253296 -0.3207821432559379 0.5766444459100392 0.30069000049175315
Ni 4.748548090545621 6.674431339070292 5.9040253337535615 0.7980012585881031 -1.5350511743038144 0.7103986316767701
Ni 0.360429344079176 5.9921910218116174 -0.2363784628630266 0.933712568081205 -0.18239405826162133 0.6828749723352047
Ni 7.934874278148709 7.171372746630965 1.0977689810780487 0.714975195303859 1.7592277158188605 1.115012364837383
Ni 3.4702698490556996 5.646619096406216 8.152392496947137 -0.3432191321032153 1.0098030805878802 0.04842364271902628
Ni 6.0486992833834785 2.4203681843547877 3.720881730302325 -0.3173155248635761 -0.5286578907284315 -0.8649278452073232
Ni 6.340850007476108 3.1412061666211586 6.044255046022681 1.136420912420146 -0.9112974336107983 -1.6379467228184759
Ni 4.685526884768609 7.092643298255112 3.2102264340114126 0.6176329725072589 0.23759898556853917 1.4247943003280752
Ni 0.3442759248027294 4.716425722666747 3.12597792424553 -1.2148133335871207 0.4928982166303189 2.488624742975005
Ni 6.487155957864946 5.493367260434427 4.4372133575319515 -0.2727667917189238 0.8199867617202589 1.9792403557642044
Ni 1.3874077040025352 4.173752529133777 5.71589912862315 -0.23073414012790586 0.3335193883169482 0.5793217356318862
Ni 7.960709584280415 6.685791344352977 9.432359209810473 0.6122652804374423 -0.09875195865993315 -0.24938877911461566
Ni 1.631021934936256 8.700229928175723 0.3226109735515189 -1.2441668470485734 3.4483787294252934 -2.232376003515762
P 9.160126612627327 2.2214222094870326 3.163087588561268 -2.1984060743282203 -1.0584712352175447 1.4502595344787153
P 3.3645097998746527 3.4347404207689283 1.5880600326049643 0.9240999846921052 0.4750478187124593 0.5200500944547624
P 1.2137605644287774 5.619616730908269 11.092351511159846 -0.33001600314938 0.6542984462490925 0.6457510708997137
P 5.500435499015451 0.9572898569282411 12.175390132446736 -1.0844892565478612 -0.6911819495390031 0.503591691788423
P 5.859061548138404 1.1433417081528505 1.661742890398733 2.0549012369326287 0.10552013062170215 -0.13456434037285211
P 8.398827435074908 4.50878327316668 5.152015572285658 0.12573182968288668 0.4479206234783641 0.13485487503007745
P 1.110852281279755 8.777622905341847 5.7157475991409195 -0.14457338786942198 -0.7492785965714193 0.8426867744209358
P 6.630205436151209 0.32542415133030456 6.272742681686865 1.0232080411398765 1.1191443847278852 -2.1747868922473836
