# total energy = -340890.78733514616 ev
CRYSTAL
PRIMVEC
9.07242027931434 0.00000000000000 0.00000000000000
0.00000000000000 9.07242027931434 0.00000000000000
0.00000000000000 0.00000000000000 13.27840413307374
PRIMCOORD
 96 1
Ni 6.576896966195749 1.836058303629112 11.36567702008885 0.4428306105499664 0.6155120695095141 -0.19354544689275055
Ni 4.502841857187086 0.6061293167799432 6.162361745975365 -1.7515871685544675 -0.807962483565873 -0.38476044588011155
Ni 2.3479696269067047 1.9156869378233068 4.476349482262799 1.5838579113938722 -1.0385984075530177 0.12245932957920201
Ni 3.586001192450056 4.6393092054323954 5.131957058391595 0.26417699316738374 -0.294827371063389 -0.1039738691805048
Ni 5.143028133053458 4.455193505040805 2.837661685286838 -0.6550744051831686 0.00819127756154073 -0.23758792982494564
Ni 7.000379407453196 6.032678753734433 2.681932681207224 1.2691746819468206 0.5349987453447946 -0.6445873896089157
Ni 5.201853707180741 4.682620940608775 11.447192717734382 -0.557625224495059 -0.6392379523715442 0.10612588252650111
Ni 5.597057413929438 7.640411452172102 12.560135564747172 0.2711130581655847 0.7740792005548669 0.48324372425969037
Ni 1.945480766545391 6.243549022001001 0.2929185169918769 -0.6361667696453883 2.0481302367573826 0.5922497565474638
Ni 2.804121854165439 1.4221200486736236 0.1625950118679431 0.19796260212383968 0.7686685710622568 1.0502480759768043
Ni 0.7413192682274232 0.08961646185562663 4.818958553241804 0.09879001098672019 -1.2798835837238924 0.6911066162163775
Ni 8.763731333683165 2.395463747905521 1.5048949982761064 -1.109597878690031 -0.1990164973096508 -1.0429181179742941
Ni 6.464317300966655 0.9209141815141976 4.879693871871522 1.3505192437635836 -1.3883944215428023 -0.8120168561409048
Ni 1.0253831028707148 6.9997715552837745 2.3472501839658824 -0.3637681598991606 0.37052604744828443 0.13615662456063649
Ni 7.413591868773555 3.785630731792548 3.951387482183526 0.006492549702879141 0.056388148981741604 -0.6389762140697254
Ni 7.38513168585602 3.8818618953903408 12.66749133028742 1.1193703846957626 -0.8056001539812835 0.2895962045714367
Ni 7.922654452033262 9.005520410806268 6.99923265350969 0.6550139842588784 -0.753353023751109 -0.8031334376083459
Ni 6.8872553969977535 0.870266487170742 0.5174246331784486 0.1920565210520499 -0.5950435172425171 -0.6767963702412925
Ni 2.159789482158387 6.518416144045152 9.436630035926887 -1.3473223340928409 -0.5978910139936413 -0.43235130828519736
Ni 0.11435423066698706 4.837341998777602 1.2560584649558908 -0.49795917609299406 -0.2983292135690604 1.1888775875579654
Ni 6.317598117625134 1.8309686757627632 6.946902932416821 -0.22191088540932105 1.6067201607040265 2.409791634726185
Ni 3.3648881615077166 4.4624968034943 0.71961622405295 0.8848739493119471 -1.6853797194894586 -0.6579339861191508
Ni 6.032651536473116 5.592239958676262 4.853801183938261 -0.5433124074168126 1.3023709661931313 0.5845207633343223
Ni 5.336343267770321 2.9378221141768153 9.305452816039633 0.5511522151762056 -0.8794808033208337 0.17640827299183168
P 0.28856194069700936 5.613115598106687 12.524044568998294 -1.6488636268412957 -0.4905554274297552 -1.8768788253761417
P 3.964275762659346 6.126514798336297 12.80360848310378 1.3978182859598638 0.5762631513112204 -1.2125990995446212
P 2.380358167874379 8.393467710721621 1.4407865537271218 1.2307053222270288 0.536296895330928 -1.0508520281093903
P 6.5251750972722995 7.8233931000088015 5.748420769293745 -1.6655665414182732 0.8998904773254373 -0.8840082588775421
P 4.96232366274698 0.9760654253636346 12.504406407715765 -1.1484426194713706 0.7932056369716726 2.1157597629808977
P 4.068454366561811 6.261603138674859 8.349805780116291 0.8792710013028727 -0.1349536053914708 -1.2214899742763479
P 4.37059318444597 1.0571275019872108 3.8288145458407365 1.273023880489582 0.2387341276142469 -0.29306667961854044
P 0.1593361984462096 5.446282858651629 3.4993105861860467 -0.8804223412984966 -0.8834361884241559 0.8635880433499771
Ni 1.2927291883708318 0.8949099028095354 2.4236009526554216 1.2291940277888251 0.48766113660109567 -0.21467425845156574
Ni 1.7613832109946792 6.449456676287368 4.65013713922649 0.7709270280791304 -0.18990270793384068 0.25757440024920153
Ni 6.306411823223694 5.8135616552887015 9.022901353883544 -1.348408110957852 0.8001113629525703 1.1370140659194548
Ni 8.725191691657765 2.4561491682228236 10.1051712546337 -0.2106700223881791 0.3850088144454918 -0.06882174675940406
Ni 2.2314978933092258 5.286472172616454 6.924953118406403 0.00036226843542518257 1.2326099954489094 1.1631889245426097
Ni 0.7744481187029298 9.256318401425423 8.870000223254804 -0.9855015277280382 0.039234005799958234 -0.3671892697655676
Ni 1.2902524175909509 1.1517709920081565 11.333529805504856 0.6062149604783044 0.36308913155426503 -0.07610722467722376
Ni 3.7962454637063234 6.668746150721443 1.6836615995767887 1.2940876431384165 1.1651797297203934 1.1333998662056353
Ni 5.641104015161386 8.100637196208003 7.811393009493972 -0.08690045863798582 0.08351405866425617 1.2017824685450917
Ni 5.111084140687302 2.915168280340321 4.845449113682004 -0.0733034366798415 -0.010049670926518177 0.10667378461017113
Ni 0.7363747990881004 7.424814452856751 6.538724757198133 -0.5557912566101137 -0.23387037176404235 1.9851217542456454
Ni 5.20776892530705 4.425671848931895 7.235296126093662 -0.2057599866810714 1.786567541284394 0.7084474214876703
Ni 8.34716207680033 7.265003766821575 9.43928553338942 0.7146496936436402 0.36722449387887723 -0.5007315966318086
Ni 4.6452697856609 0.2332238049865263 10.603801461630457 -0.30147598672815823 0.027099170209637202 -2.1699740442397726
Ni 8.263278477420187 7.026553340420069 4.77494098375526 0.3053874059674225 0.03452348769816635 -1.1540417108257028
Ni 7.516645492541568 6.469007742333681 6.997493470511509 0.2833633362878475 -1.5688146439075046 1.3206527952214546
Ni 2.451431509594479 4.80254926639356 2.870140043216859 -0.2906814672158155 0.6128139538520607 0.17739531949544932
Ni 2.4796830268419123 5.3344562043189825 11.477135334151669 -0.6893757495681999 -0.920306321977628 -0.56496906645464
Ni 0.6657804811671859 3.243245148259937 3.5403142976027135 -0.006758401769756103 0.3562024317367607 0.3785476322011803
Ni 3.5877340247539284 2.6280261734420347 2.467658440791897 0.6041781325539336 -0.6450910687182116 0.2603576194212935
Ni 1.2166206533070174 3.3704949173390952 8.00764760843311 -1.5611586700241435 -0.01663478034320361 0.3863380747798766
Ni 3.608782040172697 2.9317980270052364 7.08033737050933 -0.21823703610215964 -0.8866225565719376 0.2505820280917685
Ni 4.199079076044324 7.000551783441539 6.104122250208451 0.05654884292932196 -0.2264637948873261 -0.14598980860097438
Ni 0.8688158071425259 7.4957879979520206 11.426425040107182 -0.08536473871974976 -0.9044315597289003 0.17688778373141148
P 0.4148581983880158 5.883918275794111 8.136621137395704 -0.4437826900505905 -0.734554145877051 -0.7130383832924623
P 8.462572337206431 1.7366427204571873 7.9580931407525695 0.6484185904295477 1.2580595458702655 -0.000681342337740762
P 1.5761062407868813 3.5607980084701683 10.323852876898354 2.2467037329923434 -1.1525756678031378 -0.035565555809435524
P 3.984951808840111 6.325382254361903 3.9046472793232017 0.4724551182846186 -0.526631347216706 -0.621730025394768
P 7.017399268196993 3.997680414716202 10.404466775952235 -0.6062607261145753 0.03322430927076858 0.3648894179877974
P 6.492224066237401 7.824890049381258 10.393299533633718 -1.5152696208015128 -0.6426194672492674 -0.49557216391805625
P 2.4866415733187206 8.39388504206182 5.905596824433399 0.38416009329195133 0.4958241320278623 -0.7595861491450144
P 6.994046857986686 3.8198519016889256 1.6967540095124891 -0.8266996549640602 0.12728169066850983 -0.28929795660472757
Ni 5.138882036912778 2.8500101567465297 0.474919436179107 0.609533483328576 -0.2647904583816666 -0.33378292639097995
Ni 1.9888106465626492 1.2357634604335699 6.81603054585632 -0.9997043015909816 -0.04287648764855197 0.07043897064785287
Ni 7.342101195713254 0.47463365493527454 9.337560111973692 -1.0827136527046772 0.14312174302455996 0.4951517885511859
Ni 2.6549803345666736 1.8189386462604844 9.18770005667615 0.9172690778132009 -0.5576262529363235 0.7231104228164836
Ni 6.35670024971776 1.8613159221316344 2.6801662809477267 0.5760638908162208 0.6434041679340918 0.050221358049397376
Ni 4.29371349364483 6.841348949575785 10.497959883061501 0.6286486068914722 0.2681935705259446 0.15862318109426873
Ni 8.27877417153021 7.141419255599823 0.3955811194389643 0.2273996764380342 -0.1694992045768242 0.25252218253727476
Ni 7.5877097618412295 3.985051605464941 8.308563464042075 1.0930098924243625 -0.794004221613568 -1.3575774361619457
Ni 3.1771072032587204 8.387516202913556 12.463070645711024 0.11513117134890494 -0.6835673704165389 -0.23484199164869235
Ni -0.014911430233744818 5.042678090576304 10.239189956602488 0.40539740540417274 -0.0012192171190817712 0.03512126918316532
Ni 8.338307394451745 2.2569188153796524 5.732699171914787 1.1711629438870217 0.07101952574167124 -0.032499001068969836
Ni 3.5063271961536655 2.917173285257368 11.58069429173814 -0.19203646644739183 -0.34438024229085207 -0.24856062678636545
Ni 1.0470480428793438 3.47602531188699 12.592388926650305 -0.19981045396585587 -0.6153482902381403 -0.12473809831104969
Ni 2.841382284908923 8.270237023896994 8.035625138583283 1.6156657999330886 0.43808229723170355 0.032061399310918975
Ni 5.586633202844884 8.053859796423879 3.6412041490959957 0.06876106872479772 -0.6440142907142651 -0.19458520101117457
Ni 3.027584642001511 8.359573147961052 3.6776135868022894 0.049955505982520416 0.24312068671771675 -0.31310200100286073
Ni 3.561823191979789 4.41421338191728 9.395426731260562 -0.7101914007619704 -0.04363342041923453 -0.2452207637798551
Ni 7.202032096553613 6.042377171183858 11.48169059645415 0.7901982176039164 0.33228371613763413 0.4828459746006394
Ni 0.8135375494069411 8.973358680349573 0.07622375480339123 -0.5662399627472635 0.15918419580406135 0.8304678637572407
Ni 4.76545213921798 0.4230886982103894 1.6506779078283083 -0.922291984949089 -1.204064836821365 -0.615027930784244
Ni 5.881105825457983 5.402998340736567 0.5352247220800106 -0.16782027421250453 0.6632427999265739 -0.1619177926851405
Ni 7.955904872942653 8.648212204231795 11.761639181186258 -0.4061463677550554 1.0110122704046332 -0.10194706855846314
Ni 9.003225088435169 4.749920155426199 5.766213600258955 0.3755870069109596 -0.007961420938921772 0.24596869768947313
Ni 8.296020842784985 8.506283258882133 2.7493997358027724 -1.3834288500074108 -1.1578500288281994 -1.2001351627496557
P 8.603240216115056 1.2188887584167984 3.6301693641158885 -2.2068562619781025 3.5673711835018174 0.2561122138813783
P 1.7920117023971633 3.1362178043395867 1.4640373528285098 -0.7218210145810988 -0.6978094821578498 -0.0963171239661954
P 4.645941144773395 1.0370683803963068 8.359154002136766 -0.04983672101646901 0.5562653680330549 -0.18967002309774433
P 8.567313431176123 1.6596178709290215 12.509080518726002 -0.2307660218071058 0.08745761669303648 0.07254881790200408
P 6.545116277397495 7.869036447238036 1.3737440884081245 -1.1086529982782583 -0.15211186233831223 1.1110628932713316
P 1.8463736456683966 3.4214728477865353 5.823496862911587 -0.8734338257958055 0.1775832671365393 0.2251633309083477
P 6.83932579981786 4.011706376715089 6.092808941920862 1.303902315235993 -0.715119434191207 -0.456352299185485
P 2.273584851726324 8.576440286137881 10.253318436952338 1.6282276957584993 0.3798414113119394 0.3913157305001261
