# total energy = -340869.6037554007 ev
CRYSTAL
PRIMVEC
9.21959231258899 0.00000000000000 0.00000000000000
0.00000000000000 9.21959231258899 0.00000000000000
0.00000000000000 0.00000000000000 13.49380528014342
PRIMCOORD
 96 1
Ni 4.627709681937033 7.330377767759028 11.112715397758189 3.160952535921982 0.889488822376139 0.2521370312837141
Ni 0.3670033779490884 4.7076066664625 11.922113523557135 0.12400559102039933 0.2317826359970782 0.5345477738503052
Ni 1.0749122346900717 8.974286344126194 13.059250628771013 0.5196016940634341 -0.04555866246640541 -0.6828448904282175
Ni 0.05905886262095944 8.218454969976381 1.903476970358626 -1.5799395501760725 1.7362266269379967 2.8918187129699553
Ni 5.424743412865558 0.6383378152882748 10.190548754012688 -1.2578893388409884 -0.4971909304684018 -0.9278915905240537
Ni 8.882892528340255 6.153506064817498 9.9480246198057 1.3142124389127494 -0.32399216555280325 1.8004622969886155
Ni 2.231344102102758 5.466978363951545 6.986336705717986 -0.4552816918291256 0.15645034181266607 0.5811281927130056
Ni 9.063827021914255 1.7249026923441138 0.6104135149500872 -0.34313762813300264 -0.34088894130814196 -0.1247578958053916
Ni 3.123155239091956 3.5634460760407434 8.557717517468664 -0.01912206554143158 0.06922746683825497 -0.46534833203650827
Ni 2.6456172503450057 1.455275723448744 9.87859832594785 2.1171658992998057 0.42449221725209474 0.6835838254767711
Ni 6.668733745780016 7.922128062564308 9.84284013826241 -1.5069328188010434 0.3683241547009592 1.2406158964725214
Ni 7.117128604122512 7.641059579960641 3.800935391040559 2.13606196487336 1.3730984146156804 -0.05104333973006048
Ni 6.217102810635254 8.975955090283488 12.15119825846309 -0.3509524961917311 -2.572400025720447 1.1505997750236894
Ni 6.25432230365733 7.434946380554763 6.087797110465842 -0.08418691636156468 -0.3314897594814291 0.8833431144897173
Ni 8.811874010938954 2.2893722143348474 6.818109575837898 0.17857725561869245 0.1306405798384137 1.9673747146748697
Ni 5.300361896798968 4.799341607153521 8.376954508306408 -0.189997324530176 -0.20631405941232855 -0.5729055476928973
Ni 0.8921430423022514 0.2599113628149477 9.248073192945162 -1.5078633010351128 -2.10469064965093 -0.2762724908793371
Ni 2.5877182124013256 7.230400511793858 11.944230402876101 -1.8371424260184683 -0.12907477801319062 0.5165497946109877
Ni 1.7188269811968389 2.20788945998035 12.341730347339537 0.40237404519681674 -1.721798881548441 1.9470090065343246
Ni 5.714478311976718 2.128499553016492 6.005040208492903 0.24588513683673136 0.10626755031068796 -0.02541972562468526
Ni 7.508066964938732 4.782294581491441 13.079072751633896 0.8832176446554466 0.40785332314383305 1.5711242658772877
Ni 7.390517166565815 6.7789447488976515 11.952704129910183 -0.34644535234999685 -0.5434162799845287 -0.8535095760680527
Ni 2.395913819824842 8.522673848165491 7.468578530318259 1.0062477591364543 0.05800820108366784 2.0954876429954234
Ni 5.75175312255097 4.020221543537827 12.002928779448716 -0.8616324622855033 0.08522461359745967 -0.5615078473789168
P 0.10577269151475527 2.0782251176810003 3.3809267345969154 -0.04387767521955668 -0.2118316467964481 -0.24736609225763204
P 6.331195261997203 5.432893532219414 10.365980995063632 -0.9811617627021038 1.5130397030297298 -0.7077300837056715
P 2.916811549885348 0.8242979084774182 0.5761461352957769 0.8209630095905991 1.800399304961164 -0.39971835274152445
P 8.222566908021426 8.278714223479549 8.595270759722197 1.6645473561251398 1.4612517718241607 0.47378437861900347
P 4.891952409087321 9.146296272615881 6.620910799965102 0.404934092614509 -0.6416807574850819 0.6627609751941489
P 3.2329790193443633 2.905545208425606 4.007322412329705 0.6580594559534215 0.5932470874637267 0.0991499654293002
P 5.410111920315141 8.37461641976779 2.457505304376236 0.5889433178820502 0.9848716074535231 -1.5813400300680247
P 3.2305081686805246 8.602921177188069 10.124226696791087 -0.07922622992217969 0.2895992898952303 -0.5041712184409769
Ni 5.385071508363702 2.908016059089445 9.84462136344246 -0.8366343975792687 0.2847332200521806 0.20511669667011773
Ni 1.0398501262028401 0.21561122311440908 3.8361136663873587 -0.3673517634853609 -0.7540585344585659 0.481877440039783
Ni 7.361005252480192 0.5931986927130747 2.3066847642473705 -0.540839777506604 0.6612918468477902 -0.14382159730506197
Ni 4.62848412766749 7.239140685037586 8.365281582838177 -0.41535323106530403 0.47412453556724155 -0.43210885325708803
Ni 4.706721585627692 2.250198167802571 2.3553439270593373 0.577389808716496 0.5956595535599613 0.2659132591322001
Ni 2.0407198173060177 2.1564717952332315 2.252912415695982 -0.3709574785587482 -0.004735200692140232 -0.6499622807675839
Ni 2.2123978404826525 3.6720713093293478 10.825877294462616 0.45448259296659793 1.6429506037909705 -0.8259756323138421
Ni 7.210311020762126 6.257696674340035 8.470762935244808 -2.0965430808431313 -0.7459647017068378 -2.1865358052531954
Ni 6.707658863327502 6.545477019940994 1.722997002671668 -1.1327761165787071 -0.04417489474500134 -1.4782367364179316
Ni 5.112558807163178 4.220683133029774 4.376432467057477 -0.3933119349945484 -0.7669384757450275 -1.1830710081785174
Ni 0.5605724004399704 2.5454279437631633 9.360396404596697 1.4976516506094335 2.6173660489081763 -0.0702420241456984
Ni 5.30902831330646 0.7653644323080565 0.4771286388608519 0.041156676743967835 0.8377034622737315 1.5517833994568306
Ni 4.021410870909599 5.370569090101694 12.734184409085366 -0.5414010493267127 0.6503389473807123 -1.6545611914467053
Ni 3.66087872460584 5.547456182774854 10.256020764849193 -0.16045946297205912 -1.383499041123714 -1.4024933228380299
Ni 6.745403873095246 2.8264042304465375 0.5340485561310256 -0.8542765361410642 -0.6265341316516306 0.8599607310100351
Ni 6.650561929890367 1.868995696169237 11.905246279939627 1.5100109435057347 0.6710471264623411 -0.7594516804496791
Ni 8.072075507328003 3.350123155667994 4.893271732706707 1.4390811492643925 0.9838027998693766 0.5451080658646548
Ni 4.2934349337325735 1.7305358630739844 7.959928389884226 0.5166446683176392 -1.3867432590926247 -0.16038207276690444
Ni 1.908851992511678 7.100367385813339 9.241515297134756 0.5501469138401428 -0.5072460007115587 0.9188238238948304
Ni 8.309148096768098 8.773142504824081 11.304300364044375 2.162652827988011 1.880712340189619 -1.1659461755727727
Ni 3.627577558196195 3.5859050022239924 6.092088830555458 -0.3009393974983978 -0.2104676765693859 0.8725192844013361
Ni 7.933726309337102 0.8861042095230937 4.945992125807558 0.7280587679606945 -1.096445400468473 -0.38366129927866177
Ni 1.6944595994635354 6.379837829543518 2.3287878141782903 -1.747967569524009 -1.442999253371876 0.4603400801886395
Ni 6.722705237519237 4.883774630957379 6.1014669995676085 0.10328172820948664 0.5431501708073355 0.9811242245959488
P 4.022222195008173 2.798616380070383 11.678982740194623 -0.5875294682536591 -0.2942409024322997 -0.03775125060684466
P 2.138041830766764 5.327061835315671 0.1419789513728167 -2.806416950364683 2.3432298876455517 0.7323039163902937
P 0.44323649660213177 7.119848383771141 11.801681680715877 0.33475917426132024 -0.3677253447746957 -0.2743639610027146
P 1.6072422588668456 4.890458835178583 9.08649892067338 -1.3038645200195222 0.9322706934283559 0.3021272471589119
P 6.4362893915386055 2.542929434323237 7.9700349066666885 0.7641136047017226 0.7743347682090987 0.6240000523758673
P 5.495291731073367 4.2271645062263365 1.7564207896553024 0.010851340892207118 0.580335007387749 0.3928283104899105
P 2.7857089512294353 7.78103142614869 3.802702786832566 -0.6736778792169688 -0.47982004329012196 -0.854218172099303
P 1.810580361071919 1.6883101315800269 7.589671417908017 -0.026460251074057656 0.21327275011834884 -0.42411040843264375
Ni 3.422957932699056 0.6358254764603047 3.5047864217546505 -0.7636772884952525 -0.6883308532434532 -0.706685444491241
Ni 3.358688156663165 7.363522201104176 5.8456380721032115 1.2106586879887988 1.0135736033739058 0.5161031939918724
Ni 7.874057109723807 1.5899370846279461 9.375198459599655 -1.9079277242621462 -2.083298557128399 0.2016225674739302
Ni 3.869748582028463 6.007025186656799 1.7733562582538287 1.5426292437613884 -0.8215960151889076 -0.2300448273703651
Ni 7.967018256154718 3.4605462094023016 2.4630785477579162 -0.6798351570676162 -0.3204867235027062 -0.07330780755521567
Ni 5.479092907877978 0.21764783099367005 4.447693459729146 0.9927088441097549 0.09280088328282082 0.15900987500972616
Ni 0.1534435140611871 6.7486676086736 7.716324641450614 1.1526173196743503 0.8317716701703288 -2.498223185296717
Ni 2.8097352080576568 5.488118888474611 4.565898771095343 1.092682333881615 -0.576992316167761 -0.8654754901806773
Ni 2.206672473832489 8.434202643052823 1.6115109299763875 1.3038670911226835 0.38238886032414143 1.101860143726141
Ni 7.558581109666984 3.7254250884026088 10.273481750193387 1.7781080976631312 0.41790222273940286 0.7198731468261086
Ni 7.1459582683979725 0.40181840136993624 7.345001884635821 -1.179351136124769 -0.3157646354366884 -0.8139480117253465
Ni 6.9629217078413035 5.346598150825648 3.651329071181945 0.5873543761283755 -0.5279469807043359 0.3184115861412323
Ni 3.8352857470231325 0.6270484248484602 12.076496514046104 -0.6235166849815454 0.1558438185769187 -0.5162255785023496
Ni 4.931089577251481 6.979221946549014 3.9972564617521713 -1.1145181988097839 -1.33935885627139 0.06256136767198903
Ni 0.9561823285374108 4.271123521021792 3.8681204020760975 -0.789209371328086 0.6149929637812505 -0.966672310836677
Ni 0.5337664366149307 3.9355856887093257 1.0290401545485464 1.0280869664987327 1.5700816835453864 -0.5191064995945706
Ni 0.4122614332614659 -0.046645603912779394 6.785764481121687 -1.0710801822308067 0.423244975108555 -0.5032062834245463
Ni 3.205772003266051 3.713605571421112 0.4846121817109928 1.2341649986408552 -4.0194099429136125 1.4069734700965706
Ni 1.5108975221611995 2.4043866248997214 5.16085379608999 -1.1594281719485968 -0.44006436065873894 1.0812380966004154
Ni 8.840934165015145 6.837876381148607 0.4174631270843679 0.19789703899322691 -2.5802436901345818 -2.091041434298612
Ni 8.803318229535812 4.530774891341515 8.063438593515004 0.41359382517203613 -1.4190144604215045 -0.4331959156736798
Ni 4.122531356286396 7.988204878637932 0.22873070257202957 0.8173583229584762 -0.8347965730395815 0.06708419524300704
Ni 3.123256654604278 0.8373279578923549 5.8948900546826595 0.1464970872546961 0.8593603784218747 -0.428469713842604
Ni 1.005811392430855 7.142491701794975 5.011045567165936 0.3452603309029602 -1.3203247224580748 0.1338809411525823
P 9.185276707715545 5.118569981166248 5.912027432346627 0.25834495986663897 -0.43899632440554076 -0.05024861174290701
P 6.556466773639858 2.277552697353351 4.028804983717056 -2.25903345820229 -0.3909346930116235 -2.069218424886249
P 5.670519297181262 6.42911654893985 13.154354408389521 1.4996306287126755 1.0138443405367894 0.8559315552459839
P 8.799233950266855 5.639163464689788 2.444064983115998 0.26830438507219595 0.03689790146761387 -0.3613253547856229
P 8.908983973783029 2.4589205117527255 11.857303479428332 -1.523855562698311 0.4548024381998619 -0.5657313985419612
P 4.580588347075545 5.664793930531099 6.348861844243649 0.3875418652799906 -0.8718433413802339 0.14512823193162747
P 8.201961119836056 8.965453974962175 0.03665709790829167 -1.638745050350055 0.7385090167597411 0.8013704321706522
P 8.391405296853051 7.915241027318459 5.587137306868739 -1.8616087865909485 0.7994901844288038 -0.3555064341110007
