# total energy = -340891.6239622045 ev
CRYSTAL
PRIMVEC
9.07670484235233 0.00000000000000 0.00000000000000

0.00000000000000 9.07670484235233 0.00000000000000

0.00000000000000 0.00000000000000 13.28467502417207

PRIMCOORD
 96 1
Ni 6.099327689131963 2.2294383514589375 11.280907047302048 0.6750475058709858 -1.2219563723898053 0.24496648167720395
Ni 4.641699688135347 0.5696131391527688 6.108319980436449 -0.1697622284302238 -0.2799504539515566 -0.02702795065206958
Ni 2.721268670046662 1.8290558322985806 4.722462390839548 0.4198130666088705 -0.49455349284555467 0.18376548468785128
Ni 3.432310482824991 4.343475479898565 4.956684939193229 0.6208741051523758 0.1827496418288272 -0.7029673722097055
Ni 5.079405616848591 4.592848863667051 2.9457972978258082 0.7755748112637868 -0.1828583994925496 -0.5516751775592112
Ni 7.58500270752119 6.157200758030116 2.6073959640917255 -0.47292434461155325 -0.28378833964040806 -0.21165038402357744
Ni 5.026443045170309 4.462135239890027 11.63044005162846 0.3585951003386534 -0.014853520073064742 -0.49401201851978793
Ni 5.836139560874301 7.7758222695421875 12.423893804347314 -1.3464458450251586 -1.0231406782370507 -0.5507220696173225
Ni 1.9715056351981441 6.527611998410407 0.5528085281493119 0.839177989936729 -0.5323062861142962 -0.6188529609572889
Ni 2.6681608710938556 1.4058363242191907 0.3357218905190985 0.586595386475164 -0.10425051988065916 0.6525806922270374
Ni 0.48094371902115507 0.1507114194790959 4.659904834667503 0.888644729208289 -0.12061970526730195 0.01526001148286404
Ni 8.485729494238292 2.409701705962909 1.4082416509535087 0.7888589299672027 -0.5006130687760733 -0.16368696877042133
Ni 6.981329234140016 0.6438142920598441 4.899042418593384 -2.244967209917211 0.2350988448545048 -0.11957018095686504
Ni 1.0165909216739584 7.432777293705173 2.601325464016587 -0.9160210643387128 -0.03420621356806367 0.33200166612084114
Ni 7.873088236655207 3.8422507719900145 3.6950792673274617 -0.5421052744825888 0.8199124568388975 0.55513999617936
Ni 7.281958769111116 3.688482318382171 12.826034481199885 1.3608517360378434 -0.12625530628652448 0.02013996528298467
Ni 8.14882944745461 8.73827064793235 6.711470635629335 -0.2939357124870551 1.7753045667760652 1.5596394051661397
Ni 6.595632823115984 0.5715101704262496 0.2848569452872352 1.2537331505807698 2.1559926423590157 -0.08367423839120428
Ni 1.7238205184960103 6.614984357446421 9.396755617730602 0.687086696423707 -0.47823624374276996 -0.6044630107842041
Ni 0.2392864418822684 4.840379676390002 1.4027420756013456 -0.11871323227320846 -0.8009513423553625 0.07352480866202821
Ni 6.451794284403777 2.060057965839672 7.105773578009895 0.2192297390327321 0.39130518897716476 0.43547699839837256
Ni 3.5069573019307647 4.2232091431826735 0.30069488724463594 -0.7289236870641511 -0.43210165416823654 0.5020636851796708
Ni 6.062675955723754 5.90460514410811 4.967724027398049 -0.09187862857886757 -0.49889300076117304 -0.4483481979340859
Ni 5.23835686881604 3.4009504682322813 9.266830759588341 0.2680436752116416 -1.8466557648255422 -0.4300985076952787
P 0.3696369974729802 5.5499329096044505 12.644871625264326 -0.07789825513937552 -1.2837746912481827 -1.6572924743349393
P 3.9058693949365573 6.0458749754021595 12.5712341357165 0.46518018188976007 1.29485048944637 0.7248772849089193
P 2.6116493078943726 8.46804807356489 1.5030550924679893 -0.8069785223860488 1.124903912919482 -0.5725221962115495
P 6.268581000886019 7.957020524625913 5.976496275679776 -0.5977444611134479 -0.5361896803291023 -0.6980411385526817
P 4.600182841030556 0.9224473409632236 12.576641128681153 0.3274716394609715 -0.013699094753647374 0.18151114143603578
P 4.074251343043465 6.447591770147214 8.168241795706253 -0.404648185942974 -1.3022799491412218 -0.34730307236460184
P 4.598948409197094 1.1047711074245166 3.8948938436643417 0.9109266805349409 -0.017548550406724615 -0.4016060566825406
P 0.42179537311858045 5.5089334346651535 3.5427839628855793 -0.4544144587328239 0.7701335856435575 0.2214077205206574
Ni 1.3563955139481367 1.2025362932937147 2.5799897620479553 -0.07751978875403423 -0.26638582789324444 -0.23088814920726686
Ni 1.7866676215466395 6.547081529901395 4.8743201981169255 0.8531539925008469 0.580165314579104 -0.6713942253891148
Ni 5.938179874637325 5.657392016048183 9.37987022405569 0.8478855450130559 1.2641733720774875 -0.5770486233269934
Ni 8.633380248906775 2.4683826015756067 10.081460464273848 0.8176185185983982 -0.6597946934769733 0.732044749191636
Ni 2.346491534725968 5.389275237161335 6.877794894790318 0.10968608907393368 0.026781124748586137 1.451087172586333
Ni 0.5026787959947305 -0.014618032851392054 9.328657641035432 -0.3862637698985154 0.22021935663951106 -0.038774806775352576
Ni 1.4330029012599956 0.9521100117849245 11.608746727496309 -0.5093273087206196 0.3479162804685686 -1.3518950410651878
Ni 4.3061429936410205 7.026640143791769 1.63097309121041 -0.7028017931661187 -1.0765234647335653 0.22205743828951438
Ni 5.7295608947823755 7.998673522300572 8.106441236702668 -1.3694194231021963 -0.10315214461015783 0.22605087571962357
Ni 5.557793335838109 2.8602874785855756 4.778191542097528 -0.12743158598281282 0.6529501597513141 0.9264661709314366
Ni 0.8704541613423953 7.540427010946718 7.184166353127943 -0.09958371053260913 -1.4585927369347589 0.6103089280420199
Ni 4.898661196997756 4.618862699216315 7.063249216688086 0.8917333954359417 0.9561701257537726 -0.22372814112371792
Ni 8.302416366969299 7.111053497109339 9.062114762736247 -0.8006155562824986 0.6749207504851344 1.302206158480493
Ni 4.69399966037361 -0.04058376186596967 10.554408514161945 -0.35729257947714593 0.4638519499966398 -1.1489025898269245
Ni 8.031004744291668 7.484450973322047 4.667503851807016 0.7045951376211156 -1.708779843580954 0.05382655890215247
Ni 7.23574926569824 6.377791911328708 7.13648733123097 0.41648631622848276 -1.086359734097697 -1.122232536734906
Ni 2.5795450035197227 5.112472051916968 2.423164274311363 -0.02375879298249457 0.25005058106833067 1.171157544570383
Ni 2.2499153971669412 4.8732918074791955 11.410153875606369 0.1331594896055255 1.4757137128857616 0.9169296921959113
Ni 1.2532841490354925 3.4804079408066904 3.8083574491273113 -0.6132006477675181 0.09519895120135217 -0.2916608004099493
Ni 3.8350620219010345 2.6389974190283336 2.3993451859483557 -0.4820731009903569 -0.3651077046461906 0.5494126067772797
Ni 1.1176055678106502 3.5279426430996055 8.11466473112264 -1.01871169593142 -1.2787741527097978 0.09392934046030921
Ni 3.556625029818264 2.714769749511675 7.194142559217335 0.21160384705635818 -0.37226102786152016 -0.5087107581825432
Ni 4.10286111612486 7.0575009396283 5.961245596513734 -0.22434700565463941 0.5123097883877112 0.04090162331036827
Ni 1.0481960072924292 7.431243330618004 11.717933130836421 -0.7303023125792326 -1.0749021270800583 -1.7229507357646971
P 0.3018675974864241 5.538105963435334 8.082980678173644 0.19083061906474877 0.48273798826786546 -1.0492355755518896
P 8.614083174804286 1.4760809415659297 8.124748042326992 -0.6829413067967657 0.5682168839679762 -1.4303967341165174
P 1.777654453821441 3.1845890593042263 10.29914344140008 -1.1246712280833855 -1.6252596142691105 0.30707739207533563
P 4.084989084653646 6.281433614681468 3.804093213279076 -0.4596584807405826 0.2896656243567915 0.2832262964893509
P 7.098845329344593 3.9585142819518158 10.325845291162404 -1.1805158458568312 0.46764407004922043 0.7895474713937951
P 6.599835337372547 7.721897567170179 10.337788419151142 -0.7127213662726758 -0.7319313635422233 -0.16883637418184472
P 2.1578957653461326 8.52267168219555 5.891580980594629 1.694711795523662 -0.07893929480938018 -1.481033068216146
P 6.858938948534197 3.9465784153268046 1.7305545256816344 -0.2844575977932907 0.7639408265692843 -0.595001094040356
Ni 5.320737040290262 2.7526922215719765 0.43810711905911864 -0.3979250082865276 -0.6289373417764845 0.14356422987861728
Ni 1.5130503596371623 1.242700711404494 6.779581319711023 -1.0441748731995306 0.4597939778771823 1.4237558317612318
Ni 6.828677215205082 0.5978062914903712 9.26289873113058 0.9751968033679205 0.8933722165909452 0.5716979005380413
Ni 2.632198967239639 1.415058256151519 9.075505625117904 0.13266712335013928 0.6783410890205931 1.375091276675993
Ni 6.509685506711246 1.9590796265216115 2.6831855403139167 -1.646440876332416 -0.5822661629721908 -0.42038385151067603
Ni 4.016614268466414 6.492094853084423 10.360491980511705 -0.6017885492758346 0.9198538078212417 0.9034301150475794
Ni 8.09247218823431 6.9896798024251945 13.445684770119726 0.3116886655951019 0.33453805938944964 0.6819771431112835
Ni 7.581235875088202 4.208486728227716 8.177620754629162 0.8077010023743703 -0.8271711952838399 0.34025465015825274
Ni 3.1087441151836224 8.212021465282236 12.397670296920454 1.3898496659320903 0.3400785295917046 0.20225017375560006
Ni 0.03430449758370142 5.112290517823811 10.27791484454641 0.3556295899524262 -1.4072629763125313 0.1501107727478834
Ni 8.538501455118759 2.303032272824406 5.6727289239084735 0.689064131865052 1.44515872291704 1.8847206900180637
Ni 3.5872589080383497 2.500259988333812 11.357799443140161 -0.12744212750577405 0.000888059031908148 -0.04326806666001581
Ni 0.8347727276621052 3.146448746332137 12.650610825619454 0.23627846698490274 0.8091850431190645 0.013346596510235077
Ni 3.056879824768935 8.528734920906963 7.8856903334021 0.9318693442248789 -0.8471067578655024 0.2668936207675984
Ni 6.006091778887008 7.9345375271885334 3.4170570806475524 -1.4724712946890641 -0.472439948775967 0.9648956785522286
Ni 2.937149013627853 8.572784168611282 3.7541958447637347 1.0095444276098549 -0.4278194818531148 0.25897745124431526
Ni 3.143653121297534 4.315274158526771 9.090636491782462 0.5997103265905671 1.3151755741569673 0.03189993403239022
Ni 7.232154890653749 5.725022542453475 11.5855112712428 -0.31518819410792814 1.1564395216339178 -0.11824169195342862
Ni 0.6137195700964319 -0.3324043549666714 0.28288276202416296 0.3093427910707447 1.2801594630930984 1.5169341529881293
Ni 4.770924732348491 0.19561206208031676 1.8557631280837008 -0.9396196775942591 1.9490473771205918 -0.45649062453556216
Ni 5.884963155228625 5.629617299795305 0.5655594828525938 0.4217071983077899 -0.7425687886514115 -0.410102524189326
Ni 8.113248765196023 8.705766968552757 11.571775494084147 -0.214672715789669 0.4451674862132592 -0.6204321325189509
Ni 9.20577539803716 5.0455132016563535 5.775007955003996 -1.1615675868891029 -0.7415251778782455 0.3485559709350965
Ni 8.070524716371741 8.779896415493036 2.5446133056441673 0.45749361187877985 1.0777236556892535 -0.6199392520429323
P 8.353863128969726 1.6894561146615672 3.701761537296537 1.793261665475118 -0.18666697460536238 -2.4404502401523063
P 1.8208867981065577 3.13680928598555 1.5865752980472312 0.05408212655638428 -0.15652361825276268 -0.8058937739623024
P 4.8029110395625905 1.2408853704729332 8.515130755965847 0.04603817320598523 0.029507779651129825 -0.7335596431742657
P 8.4242075900677 1.5128415954300327 12.547401432296507 0.10425463364571723 0.3420415668553464 0.19769135074032407
P 6.489444455324345 7.812918761478629 1.2916504719535609 -0.7991374290750753 -1.3050369430610687 1.219326648076442
P 1.6990411147802076 3.3587074847548646 5.998203214868912 0.5938340703154482 -0.2096690919274905 -0.2898443160265008
P 6.981873836419484 4.221085194292747 6.120263108425186 -0.5830889159838022 -0.6813204833638911 -1.1277956326449803
P 2.3844956971281897 8.465669976944547 10.133589794464543 1.0021100828189966 0.9134116517403237 1.5086459448374083
