# total energy = -340888.3987076253 ev
CRYSTAL
PRIMVEC
9.06520017604545 0.00000000000000 0.00000000000000

0.00000000000000 9.06520017604545 0.00000000000000

0.00000000000000 0.00000000000000 13.26783678212304

PRIMCOORD
 96 1
Ni 6.392815544302424 2.5421631980310275 11.291500235093384 -0.02351736639564982 -1.0964942514285374 -0.01761694175081482
Ni 4.642116858018289 0.7490357480507809 5.868961185868804 0.690951578695752 0.2596950461366302 0.7919303698036748
Ni 2.847905210076745 1.8093052065164577 4.668925374999425 -0.36774951314441184 1.2215362541332513 0.5327649709182696
Ni 3.6040154404769926 4.761822828577891 4.600197558581582 0.3418109389017791 0.04636521752810079 0.22764418834867245
Ni 3.5659325338264147 2.799152562619756 2.638985883359005 0.9490594828509203 1.0899379383672585 -0.43721840656951155
Ni 5.110198477847524 4.863307746443453 2.309997071547817 1.0257295220101497 -1.2596508016167856 0.5174052006327476
Ni 5.257915917474083 2.777541124996576 0.810623812676671 1.560311234422184 -0.14405659613400354 -0.7972862347989494
Ni 6.106935386213245 8.074908794373377 12.440508033219105 -0.5099811402545346 -1.2969269123594245 -1.0793750752497475
Ni 2.2078295440962545 6.83115424179875 13.30180268974583 0.4796266963323933 -1.4185886857379955 0.009037427611919918
Ni 0.6844643259912547 0.5505259908895418 0.4223494971272976 -0.4605133725417101 -1.1302710907686662 -0.7119469500004965
Ni 8.23898892062319 -0.02468635358030351 6.537487983132998 -0.5769437223180128 1.2895905265990113 0.8347790895380849
Ni 8.754363690653822 2.53141187042151 1.0975301514449372 0.38106114265165336 0.8940844121666216 0.6292124498147421
Ni 6.944985962534601 1.0576097286843678 4.789981153890442 -0.13017675282811775 -0.533725535059326 -0.37235795845070063
Ni 1.1879945052507255 7.759974669177531 2.1054598626769923 -0.1541674593157603 -0.7322918322054356 1.0965646996551566
Ni 7.467150567623857 3.7421509633385766 3.9429759726680036 0.8851755397127659 -0.07541045572051527 -1.5317241668131103
Ni 8.0459726748712 3.9381315296034787 12.38532725219727 -0.4063060332613712 -0.2591682270988827 0.010819202102691043
Ni 8.130659776496932 7.608649279813545 8.755286528048973 1.5905582062321832 -0.6117631439900432 0.9964544271951161
Ni 7.086720369933266 0.6820493566192685 0.49030405195568744 0.2963466359213928 0.7179702733764409 -1.3072164672108906
Ni 2.0700022380464107 6.4876284747138495 9.403486426578915 0.060715572712501886 2.122022713171474 -3.6194763888374895
Ni -0.12012387629551993 5.179193717675553 1.2127044283519268 0.915709960856197 -0.632169475560537 0.46074939981191615
Ni 6.837073817624226 2.1319900780075285 6.868387739176974 -0.7556970985032533 0.20261295641165747 0.40126409996208956
Ni 3.405233727305395 3.935511686703689 0.2579375845448458 0.500572702456441 2.8059698355249356 -0.8147429968228161
Ni 5.997237396834847 5.764569964772542 4.8230573503903145 0.1822423631751055 1.4111083182005506 -1.5054909441481943
Ni 5.556568942849779 3.2542437503541852 8.934481969354529 0.7196448328653865 -0.5906284188939569 0.32011262799273904
P 0.40702386942354424 5.686645502604398 12.433914006487939 0.575088671387145 -0.3504706714593061 0.2417312625693579
P 4.358512065215779 6.105067954942114 12.37386339984061 -0.43411482794352335 0.32017690557177114 0.9580506306059373
P 2.872435642211109 8.592277908479971 1.0705249196163074 -0.47451585746838926 1.300888982330966 1.5301943604321453
P 6.50588578820927 8.053623703962627 5.513476606488393 0.1352989045460315 0.24281523966215596 0.5233999847636018
P 5.009901101227196 1.108538024224227 12.44935748179618 1.5843711035848649 2.0124919187284824 0.8567213981371311
P 4.043514483617517 6.670473565678421 8.089240876119286 0.24058300789752757 0.08294455931403134 -0.14959655211562622
P 4.889769066251365 1.3908011673756338 3.5784814906644047 0.19014079208657575 -0.6309145201075134 1.2940768445051392
P 0.5183581274642675 6.004398905107629 3.4366355813014917 0.25037016919127847 -1.039572341430513 -1.327097522405534
Ni 0.9255116292527494 0.25031556409452294 4.532824083095325 -0.2153921104541968 -0.28954683939074005 -0.00769042666572224
Ni 2.0205787657638705 6.981328350718884 4.582366309502389 0.7933326494678401 -0.36115000555002313 0.014743733968077835
Ni 6.372826777541051 5.883351284896924 8.96774400246148 -0.3510170308810794 0.12180344116275799 0.3977902824808762
Ni -0.10621423288570145 2.41996429737647 10.173949588685867 0.23706908120699816 1.073649742730196 -0.2900456334040295
Ni 2.5365337086166004 5.797694206834244 6.663983788751225 -0.4014314787778893 -0.5777875583755469 0.732066603568507
Ni 0.939236342575524 -0.0435546615789976 8.803449030963483 0.20608908788571603 1.2120175160095386 0.9799759699241187
Ni 1.5160641057469006 0.9386833653544611 11.542805719065614 -0.38329903084323663 0.705871690340694 -0.5422168603597888
Ni 4.483312678369435 6.945665852560499 1.3723453259926504 0.49235082876728115 1.3163770506642363 -1.181198987966785
Ni 5.960867813049529 8.294050947520503 8.013906341689792 -1.5026714724215282 -0.5401710335743536 -0.8744494115445133
Ni 5.273979452485944 3.0363072688529815 4.9273434151625715 -0.5020868251081225 0.11269736509643172 0.0076323197342771775
Ni 0.8682830194729111 7.616934872929144 6.904343949826547 1.2481978225848374 -0.2146760582237787 -0.517167887810961
Ni 5.157890496864113 5.176927417589229 6.9691963930967775 -0.039689862390454224 0.1067707151993516 -0.01618072352492052
Ni 1.0040887858457543 7.424816082011337 11.248312714128371 -0.1251183644686039 0.6921620540640854 0.0808154287861705
Ni 4.5355101019576365 0.5660746225217894 10.296518349514512 1.0735301864331963 -0.1380507562595558 -0.9251731631516261
Ni 8.48399409035544 7.395082224878774 4.674073502275518 -0.48516382410053865 1.2170244823058265 0.5524408520806421
Ni 7.3985179358096405 6.522819582454279 6.892601795819288 -0.5372708292084231 -0.6597054761972768 -1.659821154294064
Ni 2.7288700643426944 5.447641495500733 2.1287311384833956 -1.1531515949112658 0.3248426864785567 0.5541136117973747
Ni 2.7079385167454118 5.383323899050874 11.198664424877267 -0.27812497070704356 -1.037953060659535 2.2023601738799616
Ni 1.6317904533549186 3.8593368082021873 3.6547316103287724 -1.9410864704023023 -0.13001862998369867 0.8168893537418576
Ni 1.7421320719578322 1.2018551965786795 2.320425678025043 -0.5663039832159794 0.5409004555412104 1.6016432604017512
Ni 1.43252828456502 3.7139853858657492 7.998754765832668 -0.5280670512219681 0.869478183582167 0.4083526313777548
Ni 4.022338175610911 3.207485446973161 7.166038153394482 -1.2545060241910524 -1.4191075343559432 -0.896092700845902
Ni 4.396830667075334 7.4324943067038 5.835419944591218 -0.29067298257538327 -0.8640282162111893 0.08238225905265813
Ni 8.761461742524187 7.501480481331485 0.08236006469709588 -1.5766027724933558 0.09853778576659802 0.5108254905327009
P 0.2414742741977581 5.755613546831391 7.653883723016526 1.3769013333015383 0.6775489321366008 1.2262660555087526
P 8.92273165666696 2.001451193035301 7.876172407203505 0.32269221579445717 -1.8661791795704508 -0.5215516187009533
P 1.9435880192312918 3.562061693278974 10.113740341032495 0.9647360130459127 0.34565653790011436 1.32504629630346
P 4.261106487505599 6.516120399399107 3.5440382619524615 -0.7382498495610834 0.4855587455461121 0.16931202826668262
P 7.3568089490209445 4.12804747683738 9.955269760756348 -0.35278723540762474 0.33252128606973697 1.2187113830899463
P 6.500646102409691 7.921045148912707 10.123532570445482 -0.2071383550858368 -0.32369391758609417 0.6409078838747995
P 2.5676998674037197 8.767644209159677 5.856370529109226 0.34046059552147173 0.26838151816703454 -0.302557392717795
P 7.096864329119651 3.9653724566410857 1.5536103525370377 -0.9555196366539673 0.24379894373166394 0.14121141337572451
Ni 2.841024723014667 1.7198135487077193 0.26353081315789195 0.5194165746358216 -1.338437115788069 0.2456269980793383
Ni 1.9102008863595754 1.5115224403739085 6.918115802191116 -0.6744864911611933 -0.14413784299390014 -0.34677831020938343
Ni 7.36425147850443 0.9363173480643394 9.01387680701868 -0.6817038348452388 0.2583153921802841 0.17787714422787432
Ni 2.7381528294962756 1.9016705328346541 9.0450955439678 0.7095239423813007 -0.37414718914063955 1.0908979882876824
Ni 6.802798295118672 1.7739055991680863 2.5505693583112183 -0.7981786647062318 1.8463788570150719 -0.8400904744486692
Ni 4.361503581329726 7.014099049967119 10.321116770651466 0.6907394626849458 1.0584460384065644 -0.05385638369882337
Ni 7.564664927738181 6.102647546449921 11.311440956292927 -1.2481901092753536 1.5108776623814044 -0.15328891336554892
Ni 8.057322305703506 4.01504068933295 7.801554930121323 -0.7040418362208068 0.5468031941788905 0.20784155180044853
Ni 3.678032801296315 8.595205968191502 12.345231871070034 -0.905748478768111 -1.3056421807452352 -0.22923698675708903
Ni 0.3122018738117733 5.274976624523925 10.31312942262723 0.4637827873216012 -2.4343549258878463 -1.896146415356502
Ni 0.07001507486687507 2.5335149969016175 5.626265829184535 -0.16975940021674635 0.5670007521726881 -0.28476792994485794
Ni 3.523090396994557 2.5074706763095893 11.397735317939881 0.5561573817002808 1.0574070556190884 -0.6357430518444084
Ni 1.375462848391397 3.574345039746847 12.293155014646427 -0.47165859052525216 -0.6554256178750002 0.0292817796832528
Ni 3.3621105692628332 8.857507540182572 8.00268181062225 0.3553925342409557 -1.059659599098691 0.04309580274820965
Ni 5.87166624165184 8.096873774810023 3.3613400272334837 0.041603791583715445 -0.13697474958655764 0.38916346004381364
Ni 3.3998852591016715 8.763419825798769 3.6116773478088353 0.34231513223170723 -0.7335665851528012 -0.5003976103311576
Ni 3.7049383159211464 4.781204226916128 9.139761618133633 0.2032935274184499 -1.000808590398754 -0.6826266037698243
Ni 5.465028549763005 4.803268924556574 10.925612431796713 -1.0070340024831754 -0.549321332615054 0.3167956478043641
Ni 8.247419556944314 8.994809064612388 2.5178503307049507 0.30028119508910867 -1.627819661686803 -0.15156267470306156
Ni 4.878011501403519 0.5229224558381228 1.6417621737347414 -0.7773162194349258 -0.8765428037384323 -1.4460151573800644
Ni 6.187461560880488 5.41732746554607 -0.07074573001470573 0.2163246495707952 -0.053460176701669214 1.628538799241015
Ni 8.249613335427874 8.813559448908588 11.047955469136761 -0.30113197312517814 0.8513161679611596 0.5649639242483173
Ni -0.10292356516035987 5.182584102604693 5.453226565433468 0.6992737254082021 -0.9190678215848366 0.24774095909854751
Ni 7.519928164034157 6.236567751150943 2.8314754409709346 -0.9654093849638534 -0.4477115927913515 -1.0731764026382034
P 8.727440045628299 1.6972683954489742 3.5386118330257688 0.6990662373830864 1.3874708812872687 0.4001258725925883
P 1.7798795661956346 3.4349766496383034 1.5255626226686991 -0.7415316056361487 -0.4612782757321927 -0.8427986174084517
P 5.1176682029320455 1.2298576004452915 8.106475635015757 -0.32349260020856546 1.3630515719026397 -0.010618656056110745
P 8.499232692135879 1.6668818438915503 12.184823150960064 -0.2924239038282189 -0.06805504379670861 0.7176596841145575
P 6.691269135270524 7.700108086097212 1.2594636382529856 0.6048311927569003 -0.2027991042805346 0.3997965142776276
P 2.1183106906864806 3.7339378918257404 5.952774402181251 0.5677679693560157 -1.1849787667241913 -1.3911167055699718
P 6.861441076152375 4.209489236739498 5.904811333674337 0.8057199673885994 -0.8083579192320789 1.3659975419048411
P 2.5603479899236867 8.646351828539649 10.344853091235583 0.3549230508037049 -0.6061607102016012 -1.7782901317669504
