# total energy = -340886.46244772815 ev
CRYSTAL
PRIMVEC
9.13566866096622 0.00000000000000 0.00000000000000

0.00000000000000 9.13566866096622 0.00000000000000

0.00000000000000 0.00000000000000 13.37097453286924

PRIMCOORD
 96 1
Ni 6.770553744149942 2.2460315710182748 11.719873551699187 -0.9985480764993512 -0.6392230399732088 -1.5235930530655437
Ni 4.549873653933511 0.6184610221386462 5.7939242605422185 1.4904232511817943 -0.9141318177357999 1.5897508798395397
Ni 3.3034121443397195 2.0573069258274677 4.607865052071869 -1.8715671833552414 0.12771260755834135 -0.8997148709795214
Ni 3.7051623136160745 4.426103613607968 5.010893301407387 -1.0914913988973074 1.4626054576385779 -1.0552812675253376
Ni 4.097055096303172 3.030328733842885 2.3647240066484425 -0.6642028498469981 -0.15912068955597758 0.27157174296955805
Ni 5.4629106608877 4.967519886847779 2.0649598755455596 -0.08033591804659068 -0.6318390888043118 1.6720626906655782
Ni 5.652987385054606 3.3085281188438755 0.3347546560106821 -0.5955685365080517 -1.4636889205107435 -0.8247756984684698
Ni 5.924161440781139 8.234699968895566 12.446598643581405 0.7133469156718166 -1.2311560366112022 -0.6095810487370599
Ni 2.1028299632456973 6.825413435038256 0.5710797896951567 0.2901240520504487 0.15111273164983652 -1.2881648498960783
Ni 1.0182707753709246 0.09015808783323837 0.27361693355226796 -0.23419895874805471 0.8731026677086319 0.39661246012269114
Ni 8.034089818651353 8.985003308273813 7.296941842283794 1.129404886113629 0.13249794476212665 -0.42609427163189195
Ni 9.079941178000933 2.450277717427941 0.9397131597258597 0.12258042853809856 0.7581635577658749 0.6852588991863487
Ni 7.122688096404743 0.7782950284509845 4.875445135709233 0.5829876145192476 1.1636272976316089 -0.09719129904103262
Ni 0.7618919351970347 7.746617729861581 2.274750459324104 0.4699351800762423 -0.5388777686842268 0.7454836483053613
Ni 7.75480328906823 4.3884281156523635 3.6025815434064943 0.048862530028657786 -0.7935815322538526 0.4783701982174729
Ni 8.239761129387176 3.96364692543855 12.244323060922714 -0.3331812882512391 0.10423740725453662 0.11401428413564235
Ni 8.700874874249255 7.155841438325424 9.095445321449152 -1.408980216113954 0.20621712882314805 0.7042151285738776
Ni 7.4238271456556175 0.9027511575002093 0.3340228889432127 -0.9315880655390344 -1.2395085223409557 0.5850933480083408
Ni 1.9891091585533185 6.559254861459547 9.504984561908083 1.131938194058444 1.3883663965183444 -1.7810658947398748
Ni 0.293873451888098 4.9323110194566775 0.697741269182423 -0.11712917561554022 0.9466243910468666 2.5891070540624828
Ni 6.573159349308342 2.2390062417438177 6.819357400218962 0.06778867750919938 -0.2819651703887402 1.3217959076869623
Ni 3.672082057045452 4.887272172482591 0.3207432808374252 0.0005437883186119667 -1.1952122715267417 -0.04830537197360713
Ni 6.254068710949134 6.117709719075865 5.002749766277022 0.021341956010885826 -0.8575405516043166 -0.47866304686754335
Ni 5.201466092387821 3.0306393465806374 9.638841294108696 1.0647622104325791 -0.3963880028167109 0.007820781595999434
P 0.42438287505599004 5.977532017661995 12.21966680451331 0.9209385562449881 0.7814623803928155 0.5289193719199342
P 4.4716906007075 6.673916640033941 12.817737013985392 -1.4456875988373168 -0.9390926014461956 -2.1212269567430564
P 2.8206285931850386 8.988611897432992 1.7515845115609943 -0.6652883696016929 -1.269661391775252 -2.1170136899926573
P 6.804593245940094 8.09454053881921 5.8484240060814905 -0.612404377118468 -0.974721920614031 -0.6182166129248708
P 5.331229131418231 1.054283581612679 12.938985609733885 -0.9961762338330651 2.6213895682452724 -0.9356804904408532
P 3.932823179051011 6.6047870345465345 8.104201508530183 -1.1362900432692367 -0.5490657649608222 0.34142938719264426
P 5.274999090216304 1.177304497100113 3.737133499999546 -0.8808673992557151 0.21997073096381473 1.0387868694147402
P 0.5146049125705304 5.735354574571516 3.3756634078415364 -0.15359461753142578 0.022149539513845722 -0.6079280865146692
Ni 0.5266566867953204 0.08238454728754867 4.508197646629031 0.6456888502032107 0.3405996922024973 0.36598547926545355
Ni 2.0415478972209162 6.761408939723763 4.556494273082014 -0.20243632162447717 0.21413458389801188 -0.42139660904590653
Ni 6.452732963748016 5.987435082595039 8.808343227244055 -0.5750976702482096 0.16543094804472155 1.442704862059909
Ni 0.044910947611482635 2.585028831599903 10.242687986936096 -1.6692637877642023 0.09661999991859489 -1.5531350283887186
Ni 2.3087753440442436 5.530715594405281 6.632230583493828 0.1237893612445352 -0.6255612262154001 1.4116305092526076
Ni 0.7535949208315448 9.075565192666128 9.178198036187625 0.7160938822893345 1.7147095788018274 -0.3017552085314738
Ni 1.7058668843982314 1.5932332242879854 11.429442419798884 1.8609996922520402 -1.747915633240151 0.18633093142218232
Ni 4.525709810070132 6.975165317309904 1.5459524842008276 -0.4538665566491539 2.0994093466473327 0.8624490446495277
Ni 5.551608868853504 7.874827705203229 7.604848594950167 0.7866832624721226 1.4524647696601503 0.8337359929855512
Ni 5.439404585174856 3.0568861229207087 4.755534001866825 1.9743580879712384 0.4897504150299566 0.12229760719035711
Ni 1.0601760879612157 7.630110546198188 6.985799235743543 -0.4689841290168826 -0.08183127164519456 -0.2597950620496042
Ni 5.05547810564423 5.110959022008049 6.969259107458232 0.42057642713745624 -0.6675136593877858 -0.1686545971883418
Ni 1.1203527380663492 8.035551525652542 11.447145518717017 0.24715500468809048 -0.9307318881863262 0.6671279939135929
Ni 4.744947588910726 0.6927321820027289 10.832454787074557 -0.24524261815672607 0.24792402164363112 -0.791858893135791
Ni 8.291414200541636 7.222824161654836 4.317594707941698 0.7492572564151806 0.20209873577940032 1.5305669132802155
Ni 7.953504084542141 6.329529334885434 6.787213549695975 -1.3116796451885668 0.8037546161321124 1.339386881295848
Ni 2.6610375956616474 5.314465179248364 2.5170996529872225 -0.3695636835350151 -0.1859745765240281 0.27562791531680275
Ni 2.817915299564085 5.6017271476567165 11.441663203895688 -0.5740517454821984 0.12011885437148344 0.7331215271955827
Ni 1.207717138393568 3.5773725790372666 3.7173584314072317 0.0599162167396581 0.005336324611248874 0.10305058603528705
Ni 1.7492339039897098 1.5365738066544592 2.4994632444510207 -0.17929382206974284 -0.8704510890183977 0.4894423968712345
Ni 1.2671537993293505 3.493013813731239 7.970558550978494 -0.2272680359561763 0.0587911019962794 0.6366375386342197
Ni 3.8812980072591547 2.896619085909268 6.946502156583495 0.22176767496323743 -0.0417760554955216 -0.054430253924422384
Ni 4.117994049095181 7.164931428739058 5.7231246548059564 0.12354176401010336 -0.09094428969005627 0.2857711743983917
Ni 8.4332454580006 7.509665889300346 0.027682903468737724 0.08069612959948683 -0.09177861266589354 -0.0925154908319181
P 0.5294695592057305 5.609894435525851 8.01827963029976 0.36667170669920074 0.1651355282914898 -0.524046102988033
P 8.676866336754752 2.0218605310486732 8.054942896157042 -0.2126348594240338 -1.4396174813838367 -0.546474350084562
P 2.1053057294789586 3.5322058327005763 10.174897670488528 -0.3321068242401377 -0.362361252249305 0.8888830704713402
P 4.502651382126401 6.168083796604286 3.7060192393455202 -1.138909997390587 0.14515651406640162 0.06486173367039151
P 6.988951041464853 4.161534646393051 10.307617925495714 0.5178183769107663 0.02969752706443272 0.8139127876120369
P 6.648044426112923 7.874407464440388 10.139665050358655 -1.15088465325396 -0.1743688739642997 -1.10696404061161
P 2.4880811147461492 8.738395065835984 5.541105590483096 -0.6422800816319778 0.23387165731562307 0.28821269396034876
P 7.331885775280931 4.096342514140093 1.3984571121122624 1.3970541541003294 0.2287291938827351 -0.08410515528103579
Ni 3.35148403334127 1.9456233752679934 0.1628597398047963 -0.2978813273983644 0.2015240942228529 0.8781065486811265
Ni 1.23066593831221 1.0855915184443614 6.829586608526646 -0.11155476685155628 0.6541760617386153 0.19929417645106967
Ni 7.200240788486491 0.800923166396241 9.202225758586518 -1.6333457337113548 0.5448175312074294 0.2688268332345693
Ni 3.0228100784555276 1.8229222081870693 8.910631656053397 -0.49719298735093087 -0.51596255464895 1.335383930784042
Ni 6.677963741293478 2.295144926258171 2.60986688781758 1.665869417370673 0.5162214647372916 -0.5623442272372831
Ni 4.319590851565195 7.201894344531584 10.40963776564359 0.45440263165828193 1.344940721234542 -0.6768598764893762
Ni 7.548136190437848 6.183614433491902 11.208847994147813 0.05005912143992024 0.67651560577608 -0.03885836762809437
Ni 7.784823096605116 4.059781567772893 8.313256670973756 0.9782571874607993 -0.11388444342599742 -0.630919662313836
Ni 3.1823371262976163 8.8111698031576 12.731828839258105 1.3120231445709145 -0.8295142415947199 -0.3215964116271171
Ni 0.37117582664589327 5.028244677078358 10.328476484402659 0.15927624129723536 -0.869297949250561 -1.05934952405744
Ni 8.811544365576655 2.726631697339932 5.622387462551624 -0.4685375283977673 -1.070368500875763 -0.059503811792587846
Ni 3.7309797135245466 3.302754376189185 11.588797717068333 0.9714561053785656 -0.46566843438008826 -0.2835957640136277
Ni 1.5723216785022482 3.728248148566078 12.456440499533773 -0.2327807382442894 0.19689636564285443 0.5415069787769577
Ni 3.063600839457413 8.845191033610238 7.676022763105484 1.0383361550305665 -0.5701215571898569 0.9917786189860016
Ni 6.068139580398098 8.190127041028108 3.4181826373723263 -2.3581919082720226 -1.6326525642990721 1.235842643453594
Ni 3.6957160321209006 8.725047853781392 3.700016191405019 -0.7491351290150196 -0.4384566498519868 -0.347883113237788
Ni 3.572713387970982 4.530195423430025 9.032748140333846 0.03602912570941537 1.261001402107409 -0.7545020497538877
Ni 5.297929618797431 5.1732003332523595 11.199715979657896 -0.47114694099615634 -0.5308397288710986 0.46461968140059984
Ni 7.930125908191901 8.974113591114966 2.738054937554211 2.131793162294677 1.7644344568307806 -1.913104126256763
Ni 5.0858450685938985 0.6658322053465022 1.6768675310615493 -0.944095968198058 -1.2015001614179823 -0.7155570359492579
Ni 6.5727391085455 5.548137314725683 13.319469769276717 0.03160168606568106 1.269553148332162 0.1839107520164639
Ni 8.122934197317274 9.040045712537275 11.16516488041733 0.43625964220066804 -0.3193536383395274 0.7736282290603773
Ni 0.09042941719533376 5.073119082014811 5.489747601429502 1.3555274956114525 -0.29064392910966075 -0.6021778142944532
Ni 7.481126060102163 6.375618783766623 2.3682138321137773 0.4716812162330715 -0.13351584450367976 -1.8249399704150056
P 8.820579541977745 1.8170753801823196 3.3278354411958095 -0.5434386485820317 0.22714333745285398 0.7376281568166845
P 1.964077426157984 3.35672790720803 1.4718905311512898 1.1243984340379731 1.3917720797657835 -0.9743498819865929
P 5.094670124613567 1.2705614037758686 8.375899038076517 -0.10296779651349364 -0.30929291166941575 -1.3246796569926607
P 8.850727248877234 1.6232347604873567 12.24412207621005 0.3831159682981531 0.5748786122588679 0.572229347561479
P 6.605115918621801 8.018458689407405 1.1794257993855861 0.5757255336401956 -0.39297537759073614 0.6063478865117429
P 1.8431851214910293 3.1166059895879705 5.915826970173744 0.8007227712843242 0.7570811233349736 -1.0012122535950756
P 7.088895257671042 4.264859060039484 6.099316877166549 -0.42717182096678685 0.3290060738276269 -0.8722647451883688
P 2.6834382554548446 9.005567698646768 10.231964538948635 0.48452490496495904 -0.41328657834426247 0.10018971954772422
