# total energy = -340891.3435600505 ev
CRYSTAL
PRIMVEC
9.05928393258344 0.00000000000000 0.00000000000000

0.00000000000000 9.05928393258344 0.00000000000000

0.00000000000000 0.00000000000000 13.25917776179299

PRIMCOORD
 96 1
Ni 6.3862517645448165 2.1257791429823394 11.43405227621676 0.21208567178878315 -0.6023719325831304 0.5939191738300869
Ni 4.743323407159087 0.478566650124863 6.230673054224457 -0.524668052842748 -0.49454963619081277 -0.8812157837340694
Ni 2.624365905137258 1.675061638244867 4.726366239098153 -0.13396733021880153 -1.026752049737393 0.7693964503672169
Ni 3.166074859818113 4.040132712609575 4.596824817336364 0.5540351931509555 0.4558385927738601 -0.45632298860944637
Ni 4.839958791124246 4.378741576063757 2.446755921706852 0.4111289085713113 0.03154692156834567 0.6158252298745588
Ni 7.260807877964203 6.003053104533353 2.5266425011463918 0.028944450948492087 0.17497822541352445 0.5000759653256807
Ni 5.341770658434466 4.50714786952229 11.671272349315371 -0.8253361989576301 0.034426814219302 -0.1666671344446678
Ni 5.48796938595202 7.644577272876746 12.35612161718673 0.21439889330299206 0.6354376047888477 1.0182992909843496
Ni 1.8661944151171774 6.53675365203082 0.33964433963185386 -0.04500536106609669 -0.25409801166482693 -0.3927043833175366
Ni 2.6521235517547934 1.6095630138829935 0.30376776256437243 -0.15237000109570534 0.0746039006588199 1.3359853118134668
Ni 0.7222931010957704 0.03900655973926946 4.918611496063359 -0.053230062968734136 0.17781672330358408 -0.3304484627011083
Ni 8.567365015079345 2.2013516913124564 1.1904651285936882 0.657504611891216 1.4638262174195564 0.8637999022504673
Ni 6.857189591491929 0.7395229536094422 4.850353413751192 -0.034345824469721495 -0.2573787392986277 -0.542093190297731
Ni 0.483592740968012 7.540712580164591 2.372862058728637 0.7513419068583511 -0.12820265982088244 -0.04921245716890879
Ni 7.639902682258389 3.943316142961533 3.9260428058839696 -0.8107210201476168 -0.5445964163355589 -0.37879240122213476
Ni 7.646796797492051 3.905593283785483 12.62113285625421 0.5514046975066439 -0.30612274147155016 0.35951709793229053
Ni 8.268281808345888 8.93396706653881 6.926992281750666 -0.8563660716802411 -0.5591198067627144 0.011786194001650669
Ni 6.705147625701429 0.8764341030224603 0.2723537888662767 0.267430724217991 -1.1541072739563156 0.6218398114997549
Ni 1.758434230223058 6.349335181657591 9.27215648513712 1.7081270404883033 1.2138607398658643 -2.0530546706421933
Ni 0.11714741512424026 4.863141499249009 1.3611737493631157 -0.8240794437323936 -0.4546990798527782 -0.4994581292360237
Ni 6.478384684290356 1.8122735558914693 7.18082617604115 0.03765946222398676 0.4403176143201255 0.7431722265633653
Ni 3.353774167999808 4.360795134174287 0.34386053047252 -0.277422031102748 -1.1537596608089098 0.5694872660399677
Ni 6.070300170735038 5.8045188925153095 4.706133233890711 0.26479405792609234 -2.1651614533424777 1.0007617963212183
Ni 5.393734712285048 2.933142545904906 9.460542487056939 0.25447802071206493 0.2298710207966622 -0.7038497748146588
P 0.18399043725309872 5.492807043684972 12.369420646310274 0.2083498588954347 1.0445780221752203 0.42242402186915634
P 4.077058354780943 6.056040857492218 12.691618616537413 -0.16459302552445848 0.8692750664324255 -0.19986573268382354
P 2.3524605508361147 8.277486041036298 1.4370959860611956 0.34163533255586326 1.6310348261899912 0.03464330110548227
P 6.393200235483344 7.958563002027254 5.848902137394105 0.26147913462024647 -1.1497741937986006 0.619622749243778
P 4.668520897981218 1.1012828176938834 12.712701382597572 0.020709721743525623 -2.2012461148801767 -1.0975221784724196
P 4.132301869491691 6.250806407306314 8.226577393788505 -0.07848575221172933 0.34084728943692916 -1.4669418802304028
P 4.537759190645218 1.0388009349519967 3.936039725936989 1.3453698383521604 -1.536759672354489 0.2983006743239701
P 0.1929781530524645 5.731102453811489 3.4597170604946204 -0.2648097416553762 -0.7504713313279399 1.2311568079421507
Ni 1.432499305286477 1.0221046742744124 2.6446759142599254 -0.1990931161838571 -0.1262015702304536 -0.8807496427309284
Ni 1.7848511027872658 6.733965208563824 4.7811142109662175 -0.23825435976435094 -1.1661420936336626 0.2386251128402084
Ni 6.221617393794011 5.55173768704237 9.021876548016367 -1.0672196708341364 0.7896647136979497 0.10000408589947939
Ni 8.796646437482478 2.42546932175345 10.235727312699645 -0.40517474787040547 1.142703402994748 0.08107973819115069
Ni 2.5416818187540193 5.176176003564385 6.7265402192793164 -0.8877864949730517 0.885389969716417 0.9343496874445715
Ni 0.2799735527598827 0.07293267293052529 9.6182211394419 0.654161406450596 0.6447187729804574 -1.3532307291574759
Ni 1.3903011597432395 1.215755932138784 11.52235855433983 0.8857231846861197 -0.11809488196291919 -0.8634648875085517
Ni 4.21079150731621 6.819847222249932 1.6557526800201234 0.00307323960868503 -0.3570539811037786 -0.4888865243677645
Ni 6.008878224238011 8.190073008329836 8.08869508911524 -0.9709706811017149 -1.191002090100136 -0.8988337539261488
Ni 5.465339294160048 2.759829380944048 5.086684771075267 -1.3218519577358783 0.5365010409219341 0.1334834486038475
Ni 1.1280711209079994 7.52428809801133 7.111984675830103 -0.5594743618886558 -0.3865190804424311 -0.11205176109263283
Ni 4.79162751021545 4.405430227152289 6.929856827397033 1.769152174021424 1.35412238773381 -0.29393314138389376
Ni 8.291527931459658 7.069720397512613 9.189684386002853 -0.5591159501079725 -0.1761287940781999 -1.0120569096190635
Ni 4.375761071580347 0.18443162439091657 10.656427785354044 1.8003828499009316 0.6988086128463256 -1.1563870711294277
Ni 8.137058077518539 7.510771646068326 4.564949726075334 -0.2673008835083461 -0.6997259824542723 -0.21763231263862517
Ni 7.4166638023793725 6.112181241333232 6.846429879713977 0.3041573902150633 0.2804723878932976 0.20984726937656764
Ni 2.220330891594355 5.38031791246763 2.5495008868987954 0.22915933944161823 -0.0016254514185649425 0.0834981178246562
Ni 2.259929022588234 5.417678400277916 11.432977845117268 -0.3260277079255933 -0.7494976545607608 0.9229733272868298
Ni 0.860896524786907 3.4142901860824244 3.547281383246288 0.8662041408165857 -0.46485982243586393 -0.1473643203509978
Ni 3.5759621709181078 2.256577087454916 2.5704504814820366 -0.6044979777871976 1.3989202607747908 -1.0214419503783894
Ni 1.0209632044722554 3.468546238821464 8.09511268600292 1.2868641288067837 -0.860918466937614 0.7097401721571648
Ni 3.786880424361142 2.4852243599679618 7.446195256832324 -0.7741995281828151 -0.23266889525677345 0.04208613053677268
Ni 4.343519079311481 6.950092550389718 6.006089776578457 -0.5985649001322143 0.21288142821720113 0.3398998379219953
Ni 0.6547443607320862 7.479172862973692 11.166044225954408 0.7381477767655803 -1.0008116757225474 1.5766341399519233
P 0.41780784322718495 5.505526278623294 7.656896993384313 -0.6437810916575364 1.0421611852036117 0.5390487470444523
P 8.492671217311205 1.640998729863035 8.191838662809522 0.5380395890536476 -0.05603282252485189 -0.333123181319794
P 2.0792959560389406 3.480631323869699 10.394387085557414 -1.2273538892562927 -1.139807826614508 -0.8180283524423074
P 4.015464281885179 5.905330606470901 3.7469108627173537 0.02233774426525185 1.2100825037703546 0.9308668711022937
P 7.063333602191021 4.102134453291824 10.436259096871465 0.6242985574528926 -0.572429122277111 -0.7827476748631422
P 6.0341989234207825 7.533936235624801 10.22577025349686 1.1959476070308694 0.7042130716913484 -0.21695996916194896
P 2.667388445537609 8.562119689559907 5.82622856103824 -0.6427513648414415 0.04567307655708263 -0.4563744106726721
P 6.883452456225688 3.7447456938069132 1.6186802774456202 0.3879876945681576 0.8475178772609919 0.08817212626155782
Ni 5.148409297662706 2.6944938236967686 0.6439728718847464 0.13867193478332246 1.6427821965339062 0.20496885823834377
Ni 1.4488603724507292 1.0683523198300646 7.061188363705696 -0.2988694023432466 0.9253464555046966 0.4085673184917222
Ni 6.9594054944898565 0.659165291394409 9.497668339407891 -0.4880133777341918 0.34176800147898556 0.6067512925977486
Ni 2.536264366835845 1.3583128274304077 9.422250704836637 0.20231573688621288 1.3766817610915645 -0.3565032508066312
Ni 6.147285967391635 2.090203334148442 2.895233971403902 0.8140143461869078 -0.13415784896305283 -1.1668995406249776
Ni 3.8211063998575674 6.693859757657874 10.47388864542083 2.3879264592219775 1.135758596245799 -0.14178965447669772
Ni 8.184882038515264 7.153772435801613 0.2769713059945266 -0.49927635224252076 -0.24521305047037123 0.4039709573702913
Ni 7.764413483534956 3.80135716042342 8.077623737962728 -0.6220069332052385 0.23656900164212807 0.3790281713820247
Ni 2.945753069433499 8.565362913283497 12.285741850528012 -0.28941442757793384 -1.096493480097589 1.6445009789972258
Ni 0.2816205306172809 4.938107075541471 10.07546404654837 -1.9643914636768298 -1.4948517192667934 0.6203830244485703
Ni 8.519441401957032 2.265047518129653 5.843293534580489 0.6988134979423319 0.9428875497122536 0.33343119947851607
Ni 3.676085379278747 2.6882429176373366 11.63406677526395 0.13335566477673164 0.491842778782611 -0.8606608424008532
Ni 1.163329854796853 3.4634005654276128 12.470986092706656 -0.4358513510186558 -0.09771040476929624 0.6744193853686836
Ni 3.1250272433611768 8.639839288232178 7.9223457958759536 1.4891816654652092 -1.1958203374243856 1.260969777538525
Ni 5.546510480091221 7.724896886098374 3.7200745452972743 -0.3654067239438481 1.8964873436356888 -0.9303624206620494
Ni 3.064882655928469 8.23407395141775 3.603115563283231 0.7703415878893055 0.7760707770635988 -0.5114392128572999
Ni 3.6760038457214503 4.508651710690212 9.310860464785977 -0.456730251350194 -0.7225319246051943 0.22694433406817044
Ni 7.352179817841639 6.194638845612868 11.321641054843056 0.1652769389653605 -0.9552144467087228 0.5365982286214307
Ni 0.6393173057630912 0.03266234305315329 0.0843147575291778 -0.2636889977873717 -0.8078370137316022 1.5217683411519793
Ni 4.5763789189515345 0.13298938530703527 1.5345376463151803 -0.1743678455230352 0.32636786487383146 0.03522796996435869
Ni 6.113295533282957 5.517094984475315 0.5181222024832651 -0.4890492751978739 0.4321178521181525 -0.6167986495314217
Ni 7.78115504063326 8.668013661920343 11.699607072332887 -0.6065638591772908 0.9292378201393029 -0.679848783914371
Ni 0.21931892762986185 4.79815925408335 5.477764102363686 0.3046893514591333 0.17375412319843625 1.2075489387152236
Ni 8.006196718056954 9.273355028429386 2.3360550931795565 -0.6520325330330512 -0.708674707007128 -0.08147877340178225
P 8.62408519310558 1.6098982073963255 3.763988519257405 -0.0076030091582385195 0.6472119717159563 0.28587376141452703
P 1.7341281708644265 3.354979052790974 1.5330265577199436 0.49059013732243256 -1.0325712275223313 -0.23587248979573572
P 4.818796303363619 1.0511306206721225 8.620733257972262 0.3337479593879865 -0.853290260968395 -0.40476774223997386
P 8.558206078809654 1.6912686975786693 12.384483518056678 -1.2808947985972263 -0.2789351253131648 -0.5841906336884133
P 6.462059854262681 7.867218240002251 1.6513245019304852 -0.5095296545394128 -0.2921176854417098 -1.0182578962234528
P 2.077148905696788 3.106609718696213 6.24787029331521 -0.48308431586369055 -0.01582951083308887 -0.7548555764385645
P 6.868921364458544 4.017158368020127 6.081003714951298 0.3663117522566207 0.4860169161294533 -0.2677253726402744
P 2.4106120957571195 8.330827106076784 10.120160742658552 -1.4661582079868427 0.5969471620231331 -0.008408021558037134
