# total energy = -340860.9714997979 ev
CRYSTAL
PRIMVEC
9.31683835796606 0.00000000000000 0.00000000000000
0.00000000000000 9.31683835796606 0.00000000000000
0.00000000000000 0.00000000000000 13.63613469733947
PRIMCOORD
 96 1
Ni 0.6255250764132465 8.256563552548531 5.048560873959183 0.789199344025757 0.10813982763273634 0.7621348837087971
Ni 1.0870887040044805 6.511556988396807 8.464684951998247 -1.0837678050008044 0.0007975562006308845 -2.6683872771510493
Ni 5.698662838376315 5.84120114899137 12.834848623332705 -0.306332286379195 -0.9242043714804534 -0.6773085339910206
Ni 3.6822754054360884 1.4475664983705874 11.52851980493714 1.6717708704567724 0.1984634530196582 -1.2072612322714757
Ni 1.0349516763424211 0.9228365698245233 9.8033851253995 -0.4014101386216506 -0.2651995208946271 -0.6611553212699258
Ni -0.179408766882001 1.5819805259046347 0.6450037904470327 0.15150970997793908 -1.6358705570157375 -0.12145891333914564
Ni 7.1629344279903036 0.6814242434194694 2.1630586930675917 -1.0560785666156522 -0.652947845758469 -0.4445743327139505
Ni 1.2009591028761186 2.585534456853714 2.4229640120041718 -0.5173877171312509 -0.342574556540681 1.7148278495472469
Ni 1.3476620402540287 6.414466215475734 3.273053775951618 -0.7233719040079865 0.3021879251935183 0.510647827304256
Ni 5.371995850548024 0.061906664403738175 7.41222134620736 1.030496861491806 0.0614604212983264 2.156440528529712
Ni 1.3481185653354155 1.5346975710467092 12.054683594912294 -0.7509562413841583 1.4639686565346917 0.7290280738524993
Ni 7.360488669331673 7.868824689036751 0.9641269342263664 0.16487173310714187 1.1549192283346499 0.4711631389460724
Ni 2.0102196859223063 0.8993162112947041 4.2863009455675325 1.5350640298196208 -0.3669933517046777 -0.244100791242799
Ni 2.221255392422182 4.263897675961351 9.55932588520624 -0.0827337288548059 1.1030181685899842 -1.4204072270039731
Ni 3.482177667212706 0.021976558407659996 6.2561218885224585 1.8352814615503295 -2.779266100981504 -5.151757199485018
Ni 2.530034050530825 6.80615541846727 10.16629740963839 0.22349417073604091 -1.858158109038187 -0.6364359641463749
Ni 7.903231773231887 0.3554914224567548 4.857573140319067 -1.1361961980038497 -2.724150905174915 -1.0761439699069595
Ni 5.984792262345133 7.177217141250835 8.62455537708073 -0.5186179899939262 0.2775942950145541 0.21591404439593778
Ni 2.156009573137443 6.095858292859679 0.262401299942775 2.5506502927481813 -1.2502233376552985 3.567400494077856
Ni 8.462223443294116 3.9089354499254694 4.053695826497886 0.7981606669841028 0.5166469823104844 1.7212820898130228
Ni 1.1353406100555534 6.461218110545107 12.12600119777948 -1.622704966168057 0.8989381407144971 -2.7317870815639336
Ni 7.49897415524462 4.548266217473391 11.840487616828614 -0.09823336715230178 -1.4875559569363284 -0.6012252205731967
Ni 3.062053473437646 7.828054204217384 7.987965623388808 1.0551588830148604 -0.34310446090222196 1.039234755585436
Ni 8.108090415875447 7.675761163802084 7.581990912085223 0.09690179282507183 -0.5638766047214095 -0.38725724416003626
P 3.0186556401907065 1.3720442063354459 13.45797834059443 -2.8673695787886553 0.17382971363137806 2.582209298501385
P 6.498373662066961 6.782499965780714 10.785296040755483 1.2177397632052964 -0.329434162503981 -0.3522298202422579
P 0.2043406264287613 9.197741250438732 7.097471526370946 0.37284441116881595 0.6985255343882679 -0.5341312551381769
P 2.80216026639098 2.799197511781163 8.164935241978828 -0.40277796550345474 -0.29947438291709716 -1.8357069791235223
P 3.13954161837427 7.856628947576844 4.682416578480841 -1.1525381296969828 0.8939504576919184 -0.8262787653765575
P 4.769988337613077 5.553851219192722 1.1232426953988015 0.011973370311792284 1.6405867315444842 2.056289118419091
P 3.4374009418832108 6.66855503220191 12.085146861414554 -0.07859888075082593 0.09179095396106772 1.1056257814161603
P 7.131415563697819 0.7572670346954213 13.500659708968744 0.9033444973123088 -0.625814994097419 -0.21895488810479063
Ni 8.931587127990188 1.9189333033217244 7.833564182444572 -0.2907370030440993 -1.5330683395458307 1.2982983387856544
Ni 0.18690230000362257 8.826148467866613 11.749152786668377 -1.1640942099656986 0.9854971568526641 2.8837616469934337
Ni 7.498377877587298 2.9781646605232104 2.0688337796370218 0.6214171221400395 1.818610428652552 -1.043671451200551
Ni 7.899486404196836 3.1253893408512767 9.723286402344415 2.5684410410726994 1.2079749705090486 0.8293818297819135
Ni 5.567416535896789 4.64015819456969 4.229533449222835 1.2723260830916088 -0.0827470985912446 -0.684797386168898
Ni 4.239142836344109 2.562093291450258 9.689960071403172 0.5101240935903021 -1.7743802551895826 -1.0561929807063293
Ni 4.804181134525114 4.6907299933812805 9.820608232857698 0.5838931570526525 0.7538253354018372 2.2163968544786856
Ni 2.032691900132615 3.22980314875133 0.3837382131046875 -1.185737242156771 0.16295497570040324 -1.0370773429228008
Ni 3.158212562519153 7.5061667544860615 2.1642456582791976 0.9513454506716197 0.1263540366479179 0.9132591853228593
Ni 3.092193445647575 4.27720212119034 2.312606992891533 0.6442143225402132 0.6266115218567854 0.08826520019599637
Ni 6.300772836533613 8.046142757382768 12.422082868522532 0.9285256245636266 1.4237314062811997 0.20955390650586492
Ni 0.27912968328216514 1.6674532013463306 5.526084245722165 -0.9574194247798414 0.12200578698155116 0.44416475598035765
Ni 9.043892298011357 8.677488994425616 2.7415998851354133 -0.10546613745531513 0.2945484063703895 0.04705967249196412
Ni 4.165530496180075 4.032691014334892 13.406215849835876 -1.0289865954948667 0.08691845636011483 0.605624378082157
Ni 9.19012007663109 4.811588021049656 2.0371565290918103 2.3686724960883723 0.8763229744181424 0.6272036469148294
Ni 2.60402838106908 8.859875422858869 11.213388926410344 -0.9731275795437176 -0.4078610364533169 0.03650118024982746
Ni 1.6818197661524237 0.037057724718699184 2.1610956352176283 1.180670626267141 0.8163674198001165 -0.7136132819593258
Ni 0.1082970661433603 5.972577887208434 5.94200002359391 0.4706018671259637 -1.5350691720259433 0.2605067434046481
Ni 2.9081672536566896 3.7034805296245885 11.564519136814095 -0.7861279041892848 0.23628438052217374 0.9802130256355893
Ni 0.20682449554504165 5.379961747376304 10.187897567774867 -1.5553297220471924 -0.26063786966587377 0.5090989947598974
Ni 6.205722451221189 3.2024768617368875 0.20128563511882752 0.8795759341378013 -0.3711145729619028 -0.9737796113054197
Ni 4.471271864971736 7.68371774379197 0.1974825016857231 -0.31825114930396803 0.2341477937951451 0.3705360747506135
Ni 4.583036658365957 7.858660018347096 10.459161044399584 1.7358952117405073 -1.2484742161746756 1.483124403527536
Ni 6.0734047123261625 3.136448428026914 7.9802205356305045 -0.2949875507903371 -0.16279942395914543 2.4308667102289294
P 8.999246008419401 3.6249861661412344 0.3455168152703716 -0.8125218208017814 0.5341430822127188 -1.067278806206846
P 0.5227128330334057 7.8252125685067115 10.091707733126654 0.8246036916669798 -1.3009481177036755 -1.7110786669174596
P 8.578991378906801 5.12081388740129 7.76821960467284 1.142167585095936 0.21470922545455925 1.0489396415780257
P 3.9381157877806463 0.12844752422547281 9.424096634312574 -1.0974877256900584 2.0823536767166266 -1.1224505662829831
P 4.224496766386146 5.76685277859408 8.249915988353234 -1.2024692101994712 1.801791300212684 -2.727518021874935
P 0.39487463003900836 7.374799333107393 0.4659956476160447 -1.3997347862562861 -0.37173909391977916 0.23229685662933544
P 1.7344133188958695 4.5279089255788945 4.352067576118588 -0.014495108292381487 -0.4012155061123413 0.09973514850880888
P 5.231134570844186 3.262141894822632 2.336115239531438 0.08368143748005588 -0.42529388721778366 0.37846587112065144
Ni 7.85541775858541 8.680451749035434 10.07177156232764 -1.2460388672603058 0.08513153966302113 -0.7330441369904278
Ni 2.2140348426655527 0.7716382579207121 7.558672728948588 -3.7728684034398055 1.9919989409814534 2.9770865211005244
Ni 2.3086939207653603 6.4697523345155235 6.192509311008477 0.6338437779391665 -0.228167150731678 -0.03676189011038185
Ni 4.239450292011165 4.341441721928349 6.345370678565913 -0.6229870377303206 1.9873910098957968 0.2817810794023921
Ni 6.1367592134165845 0.763522359994261 11.349928124782437 -0.3387472123747908 1.28374563778246 -1.1902446431088212
Ni 4.877588504244443 6.9251407616181195 6.295162236451753 -1.609304633601751 -1.6084374005054494 0.2829928403223062
Ni 1.8556626537768628 8.758256666477509 13.530386945237746 1.0520619892570915 0.12402924516948317 -0.1303176492813562
Ni 7.073176006886609 1.5529399406253925 6.504068113694383 -0.8408260670631131 0.5450697564275516 0.15854681933037856
Ni 7.225273393695599 5.545121341615998 1.3996947193260567 -2.587796819891491 -0.4257852250319054 -0.053680006021959166
Ni 4.98034391491007 0.9928861509860599 13.442597172087051 1.919389702155159 -0.8593367242727911 1.634423797266882
Ni 8.093798385776518 6.401562394297759 12.900233263509541 0.9877167902118021 1.0164540102454946 0.05737853791946892
Ni 7.112660768007374 5.194612564333237 9.500922352039268 0.031380056973178215 0.6320943993482275 -0.6298331141178765
Ni 5.679796240625124 6.994141266776307 3.0382806285873047 0.09725891905417443 -0.05891605760991789 -0.21590658819677014
Ni 4.079442909404266 2.6850755582728425 4.329650331254814 -0.8056371778668061 0.19609341012558487 -0.46116437586214776
Ni 4.971017759676025 0.21840812072235372 4.197979180944446 -0.9378060214242881 0.7994115086720684 0.06549139683459043
Ni 3.711725931604739 5.8822045547706265 4.255210655841247 -0.9754030058414557 -0.3744924882952002 -0.53039467091388
Ni 6.607427255488049 5.342834146369637 7.070499279215539 -0.03925663150777755 1.4246495472200948 -0.3138455640371046
Ni 6.449190072176323 2.3071939097836607 4.0515548170345665 0.016462259321081325 -0.18712360252680676 1.262213420137639
Ni 2.170441355812305 2.75137418029629 5.7878985848460145 1.2431216936135108 1.2377511733302167 -0.7537479451966825
Ni 0.9161964590999434 3.694135740713751 7.365530942271398 -0.2523625170309589 1.7828201584268197 0.6242877588196152
Ni 7.7263050120984875 7.119434109521012 5.170426983541969 -1.791307627072541 0.4618320913531337 -0.9148761521009922
Ni 8.101419559584162 2.0735182859823547 11.93435849040015 0.9935133422889211 -0.18950830070889943 0.5237290859682464
Ni 3.650551570698899 1.5749463129159185 2.234880336891981 -0.04948010900799866 -0.19342949014017655 -0.9823352141849145
Ni 4.266683410641651 2.099195492600767 6.600420993014518 1.160692640483317 -0.19438105542016848 1.112483427767942
P 6.285623657302286 3.6051133498433123 5.991731443582212 0.17205616667072304 -1.7302261863801878 -2.418730589087028
P 0.7227686454840073 3.5618832196874943 11.125777104873006 -0.5898568308352551 -1.142073225609917 0.2409061955649012
P 5.094857175631009 9.033494706361811 2.1710087512706 -0.5088956204998397 -0.5013617740166397 -2.073861580085216
P 5.997733350876691 8.443179825613408 5.637396240770358 2.999796303993214 1.2451243258658362 -0.43207645735725586
P 8.085990875200965 6.902640596892625 3.0060862935111348 -0.6371802985115671 -2.2182835299784376 0.0009834469591918549
P 5.2988493523037725 3.3284964178764542 11.620700604023705 0.6145916145777738 0.03320116934231702 0.6297888911435023
P 8.622258776416201 1.7989790089777264 3.458151404358003 1.3612623412127007 -0.25897050926577986 0.2010911204504924
P 6.960628599067153 1.4467000323997918 9.270840232807164 -0.8659611715678441 -2.342078033429295 -0.87379480867965
