# total energy = -340872.9992856227 ev
CRYSTAL
PRIMVEC
9.15948693461999 0.00000000000000 0.00000000000000

0.00000000000000 9.15948693461999 0.00000000000000

0.00000000000000 0.00000000000000 13.40583498394238

PRIMCOORD
 96 1
Ni 0.24035593088288396 5.986741472962086 11.241610622382515 -0.6677430017897725 0.23333558230649493 0.0823172101426776
Ni 2.2295382148680485 4.346488015242384 5.208958136663492 -1.572014381791725 -0.6315668089795315 1.0251016586181636
Ni 8.646519112301226 0.4368617335891328 3.1255842678714543 -2.630568406531063 1.000177384572658 0.6511994956087946
Ni 4.599821107340261 4.607359365160659 5.575500656475279 0.4157324687815937 0.6316549978179637 0.3813552768533045
Ni 1.2951697841067313 4.896524370494738 9.414341506461685 -1.4098371647976105 -0.7211869805415256 -1.6901383172203668
Ni 6.64256074384964 8.529964639926307 13.091790363195399 0.30194418461382844 -0.7240661018615336 2.7266168502169044
Ni 3.2367703649018584 0.14256008793223568 5.189639862582083 -0.24666778063902675 -0.9308912965823258 0.19164900120098605
Ni 8.11572683928539 7.711564474370401 10.043678868466698 -0.6160350318925197 0.5139735492433793 -0.8608593315649046
Ni 1.0460592155267199 3.2359185326086664 11.633195179716742 -0.7297340987805884 -0.2127778127598013 -2.3082248323252763
Ni 3.341472461068278 7.999685298183793 2.8511660366453215 -1.1072841429551898 -1.84987427176284 0.17537263263846573
Ni 8.196421919963035 6.417035854355319 7.256391094323748 -0.18742030783161917 -0.15565098583982226 -0.14519250951065962
Ni 1.3129117104713848 0.21311195267997976 8.537787757793138 0.9844550887413949 2.244382541058335 -0.11991110923605157
Ni 1.1658561463079815 2.1980753769420884 0.8595848830086841 -0.5279037861712264 0.6243911171666988 -0.08263628404499317
Ni 1.692554128624281 1.037018801834457 2.9560806329106875 2.21890830804663 -0.03854777836621104 -0.7472114296297454
Ni 4.574888983662106 0.445556834620607 12.394672797215975 -0.3960373043455115 -1.0103476402374405 -0.14215063736054226
Ni 8.627870396721239 3.0765251394245157 9.56490240630901 0.5340217261435061 -0.010917675353768294 -0.10731373218701518
Ni 7.484409196185884 1.0660360567251244 9.519376092007061 -0.6118724158743978 -0.7664491948134349 0.07016180572706626
Ni 3.0716980897630948 4.014951222937274 10.552524094625358 1.510626979823179 -1.9734211779792659 0.05734974156406252
Ni 0.436572293799188 8.764823046697645 1.0361962798997406 -0.16488047485789023 1.0055700163431391 0.41962486185746445
Ni 2.8927217133225525 0.49421752538202074 0.9417628846354446 0.48319153086551625 -0.18781394372561203 -0.30515600668290666
Ni 8.351162293739213 4.16822607878968 6.375359272449376 0.8776208672939595 0.35322380872441106 -0.8001512150515704
Ni 6.551735270523928 4.275511150296746 7.944257578409366 -1.7984390959109995 0.7744412118799759 -0.3616827381250416
Ni 5.522859252653423 1.595619277453848 1.0303781737423694 -0.08000681684194608 1.269702786536149 -1.3645471826115596
Ni 2.453048017217184 7.655966388137335 12.857697689539231 0.25015213964320143 1.7565596820683942 -1.634527926944914
P 4.748058245329704 8.537044923395527 1.0468432676159376 -0.8991435718570837 -1.012915143854301 -0.4818270464178218
P 0.9548215652849472 8.220575487244187 3.030750603024228 1.857106270734905 -2.9995409934492985 1.0127907024612945
P 5.142758860149349 2.4361854016067928 11.955042150699619 -0.36193084958010574 0.7456605402028577 0.28490625529493513
P 1.006279563383359 8.854750890295048 6.304750618882085 1.538709339881692 0.7429940491142881 0.7075297947694072
P 7.259094974893105 0.11252704593065464 11.376446514907776 0.8580115777034641 0.8136914156298501 -1.688675873742227
P 4.188157122552967 6.784587749637103 11.598661165791778 0.15673290605009138 0.35032926078543536 0.06751485502252244
P 8.504043291649607 2.3988696514727725 4.327068070855013 -0.8304848330381052 2.0087892730659145 -0.5770319111564449
P 1.630489444552576 2.5246843652285187 9.238363030123958 -0.0450117888239999 -0.30602195422762785 1.299297726584446
Ni 5.457680342993704 6.668930906990496 2.4246059781115967 -0.6166490113274349 0.17767505551939725 0.5841854914820906
Ni 0.5872064695427 6.439650627816511 0.434216473736726 2.2748097471999404 -0.5172457922367479 -0.2460131777741634
Ni 0.4942330965099608 2.4540464013027528 7.299075219802282 0.6181191681150581 -1.947448408064588 -0.22510522397690264
Ni 5.495912041830083 6.22264406125411 9.510863264767357 -0.48112127860004883 -0.6589179472989749 -0.7287825335005964
Ni 3.3079121006139207 5.803240309931899 7.5285157899991795 0.11727418583383675 -1.7653235443039532 -0.3759654732963009
Ni 6.699780059285876 3.5229585369532783 13.169959257351943 -0.5261366669684745 -1.7689205176265923 -2.087359357461334
Ni 1.1631907355841227 1.5816785382039757 5.061601225377014 0.29683437419108877 0.3998623345185565 1.611983723095811
Ni 9.068258532814447 4.277727746156451 13.295799617671356 -0.3436881013198339 -0.11142004104590489 0.7520623299641436
Ni 3.869892426945009 1.6113827546214106 10.24331813168371 -0.3005596455614759 0.5468875263625808 -0.25379205038863384
Ni 6.5287541175817925 4.373471864013819 3.6949966019734664 0.08846908867668636 1.142877466678767 -0.06891250670099744
Ni 1.3498061242023216 7.258151547729677 7.969366480187076 -0.24293171063536229 -1.6302557819321213 -0.6137436647551817
Ni 5.641373855251385 2.3412198401464277 8.828681158328564 -0.5450535584776355 -0.044010087032362914 -0.3830352356588887
Ni 2.134490218024471 6.856269895083556 5.264243884389054 0.20464927011539596 0.4198436627364899 0.46439933785967763
Ni 2.154311347943475 5.203138198608717 12.130002092080325 1.0160824858386888 1.3430404188880354 2.3289139852435117
Ni 3.689395575658554 7.979140568789926 7.401481948520596 -0.9127789032523311 1.5520271400365206 0.23493378003155022
Ni 3.0878279464115996 8.58427123848905 10.404389542890579 0.24056552439603088 1.096977618822859 0.7946819644068829
Ni 3.540224169992706 4.857953770638488 3.460327796583517 1.3554364785595432 0.5050916733727172 -1.2533937649634803
Ni 6.390464182499945 8.010548449793745 4.87672064360108 -1.1363476359800495 -1.671126037783922 -0.8102813615070367
Ni 7.866790300958827 7.0414564037260785 3.056919257450566 0.14099055561417007 -0.20107183717678273 -0.6558341661673286
Ni 2.957277777864668 6.40348897304746 9.898372766324796 0.3222062772969741 -0.953759202319435 -0.2919531348393875
Ni 0.4947918252183985 1.0614471537263162 10.598612801430553 0.8326324755087273 -0.8358918629862895 0.7213222205678093
Ni 7.138739315403407 5.060396752833414 1.1565052260056194 -0.12776377251125093 3.42539692381814 1.9373611990319153
Ni 5.6890673041831095 6.502704536486761 6.6948073737807805 -0.5967435306527593 -0.14366193179874612 0.12989033193595048
Ni 8.828215856387768 7.668688915613073 5.246185955722088 -0.015962951087159605 0.017426680116879662 -0.9416593337321072
P 5.056678001101845 4.627574353021675 1.8704487696473393 -0.0010436107731659448 -1.0160745154188888 -1.101676052739793
P 1.5086957456001764 4.694154664196001 1.3371339739052135 1.0502344491300493 -1.7998244062943003 -0.6513586468944782
P 4.141837596674778 4.227991731618469 8.80227160939351 2.301878064171642 0.673042559625815 -0.9368487997173413
P 3.1694389757916013 2.573128892096176 4.01775585786389 -1.0322534391715963 0.4001243299306915 0.07958104215843714
P 1.7413192375377633 0.7312384870396231 12.534308260941586 -1.0154746770513607 -0.7790913090574776 -0.43526025440187616
P 7.128013556098806 5.949947813588408 5.112717574609447 0.844336908429849 -0.6655663058534279 0.20958090308905838
P 1.1194450255595563 7.8066399496750485 10.115239192735737 -0.13724342986691201 -0.503375719122875 0.30746768553521886
P 8.003651356064998 4.0400756958429245 11.40227901616035 -0.18549969377013859 0.7166191586651852 -0.23169907514433644
Ni 8.203831944965103 -0.018437131429742435 7.579940813944306 0.5150138175824357 -0.2387233289809695 -0.5383213819601246
Ni 0.18969480815552275 8.247632611911811 12.298030133681596 -1.5777533411580311 0.27628174685071777 -2.3283414005694936
Ni 5.4764389724179745 6.335241635234846 13.30171206654507 -1.2273554319181894 0.6482923492643287 1.1437791525574303
Ni 1.0456195601495886 3.348241321978696 3.079575248603364 0.6015147267891576 0.9955727959211111 1.261623351962124
Ni 8.138387410181702 3.3116216928584663 2.0057545438569084 0.36586129498276343 -2.1527605085749633 0.2267245047478805
Ni 4.228495503404766 4.205239565851924 13.11246149351019 1.1886924681303528 0.6562807667864439 0.34601854922522346
Ni 7.567073566573597 0.6325825682574617 5.350214829592274 1.493536085779163 2.222430719377592 0.6218027876142324
Ni 2.4920949103986594 3.3861341197952015 7.402273328199432 1.5224684525427974 1.0182470975901756 0.555199645772702
Ni 6.4516037583822685 2.095617355096443 3.2930764794818455 0.6803907724607701 0.03360380409737438 0.1753088692800658
Ni 7.889972962615481 5.247506753750886 9.375303772767234 0.5467386594895421 1.4868447898019166 1.5922085973514128
Ni 8.673191538513858 1.8136608660499127 12.717888195560175 -1.9551552897905426 -1.1173042461953533 -0.2262542499796813
Ni 6.331907581958267 3.0979766580337147 5.943504114467327 0.7928060875404088 -1.6073827339886897 -1.0585280565974093
Ni 6.882420230535846 6.175225396933092 11.678533724534706 1.3676219648821415 -0.12870813870239126 -1.2114027652436752
Ni 6.26306487748912 9.057459497613658 2.392941631471118 1.884594963073477 -1.5099860038050705 1.1230452624441882
Ni 5.622477833521762 0.03633110527898722 7.200770109373123 1.200763283251958 1.0610580221081145 -1.1165617116023738
Ni 3.2257972994476227 2.9302939290932333 1.7156387837697824 0.9178907705575998 1.1896869708331381 0.29257842712821225
Ni 2.950710425668769 2.4386401441291095 12.520165097028492 0.821552820655798 -0.6616484588562606 0.28136610335216056
Ni 5.608216512226064 8.515227025305386 9.948456841369673 -0.13533258599744435 1.3560196047565227 0.44618821416828963
Ni 5.8219165039729575 4.207941614523876 10.704559671883477 -0.22105650782882574 -1.2891449544211604 0.10224223120137876
Ni 3.265503675694795 6.187618182875981 0.8340766275967463 0.08454275703908666 -1.4125239676011543 2.3004428743870124
Ni 0.03220200852876222 5.336710997873427 4.458110103855111 -0.5419111561939118 -0.3274595552761135 0.4470798727446236
Ni 1.5466892977739415 6.086286777934236 2.916050926771583 0.0016347073899455717 0.9684777394765322 0.013562826286099222
Ni 4.196904432660476 0.9005177145683124 2.961470075075356 0.14535654589234967 1.7850606177215647 0.7304059280366324
Ni 4.176799358643741 2.179536575206384 5.996202307108729 -0.0717746587401409 0.04247256734191396 -0.3027057453702013
P 5.539859260569167 0.779247938273661 4.708424229030019 -1.5313793818791819 0.645669566929501 0.6733536631083307
P 7.669211006373416 2.3167456908194506 7.673406051430211 -2.7451794437104398 -0.04306829194438389 -0.15932637780888043
P 6.691967016854771 7.6587508721925 8.232496559605364 0.12144374383049407 -0.38079477636414416 0.9584028717390334
P 3.9473725276773806 1.2146670526565817 7.918411337926259 -0.9717672088610813 -0.8837166957790523 1.0437429278684347
P 1.1073361837143978 5.310249239862335 7.074782281312632 0.11365021592800428 -0.9592269103022254 -1.044629444238446
P 7.918349053414498 7.097384231491991 0.8011757502080857 -2.6619011552060736 0.5437878043913343 0.35677218819730167
P 7.808416890157621 1.1353642140065194 1.239119219214702 -0.6996015410612662 1.029767182414633 -0.2277480609163884
P 4.34465611783767 6.822260719765043 4.670271301782044 -0.6173720055363884 -0.18790238967436024 -0.07726987752675725
