# total energy = -340865.73765014595 ev
CRYSTAL
PRIMVEC
9.35777381433653 0.00000000000000 0.00000000000000

0.00000000000000 9.35777381433653 0.00000000000000

0.00000000000000 0.00000000000000 13.69604787555395

PRIMCOORD
 96 1
Ni 2.823043889560811 6.853343555082594 1.8307230805076011 -0.05521109795450491 0.0885161398645379 -0.7428030161494046
Ni 5.694392608287433 9.046057148676743 5.155905120598722 -1.2450047695688364 -1.2305225167922613 0.3495939252813076
Ni 0.27397035547001525 8.607299201156902 8.667667136730628 -0.1291717086023711 -0.4260248518465373 -0.6934257512678573
Ni 4.029092512681335 3.017358065777022 9.656385202810409 -0.27634962397417573 0.7273923380212892 -0.39550225777764786
Ni 3.4980669139458995 2.7707900797851637 1.3260162210261073 0.849313535708834 0.3300365719746703 0.5571290015849308
Ni 5.758128406708267 3.500069477572689 0.2414324396442803 -3.1331766513602943 -1.4321209158964756 -0.7792214068774386
Ni 8.408259349092429 1.9764086485790895 1.0787267506621676 -0.023492940915617606 0.3739510139694334 -1.2951821617541759
Ni 5.322739257812932 6.47735755526602 1.91031094801152 0.5915527304804392 -0.5265141049125512 0.06204174772309314
Ni 4.119816131194032 6.315458708036709 6.182875895059752 1.158754285810024 0.33621981796724676 -0.7527814675183552
Ni 5.522808465012672 1.9121207414947952 6.064034973138586 0.7467938824763526 -0.6031106105213677 -1.3550505559750339
Ni 0.4853830562603777 5.958319264969447 4.033718996125654 -1.3434970468094796 -0.41908647285549117 -0.169394817788476
Ni 8.692370724199598 4.738758016255078 5.558718922572494 -0.08507934626884701 -0.3428800035962417 1.5069968392697595
Ni 5.774616804420426 5.765511690360307 13.245379734741267 -0.66224752589284 1.234712643614209 0.45054520558540473
Ni 1.7735321091922631 3.8672966009655494 5.3175587941503615 0.023010859072876498 0.8075354233307834 0.8562843105997123
Ni 7.353928315136048 5.361190351002069 3.5785306690921894 -0.4202416695058569 0.38217365898954175 0.5183107431661526
Ni 0.28481227237654555 8.982021901489286 0.8355387926235622 -0.1399302326704558 1.1967760164694357 -1.1778143877652683
Ni 4.6869908107251925 0.5144688892733913 8.13591818206832 0.20993211578089005 0.4642586985167553 -0.7277065268275983
Ni 2.6677048418753264 4.751250644487615 7.324345584325919 -0.038140001404831085 1.8134653941165026 -0.34810679921281984
Ni 6.444249751006308 8.651411747589998 2.4096829405601525 1.4925354124287908 1.2207669800673941 -0.19782067722933674
Ni 7.71272408419369 6.639583924583826 9.31447647263549 -0.09861851840586242 -0.5240605011657361 0.750299838747082
Ni 0.7930301686466896 0.752010366506369 7.025648246952041 0.7738539719179383 -0.18947564769875108 -2.0446006263375693
Ni 5.293758231868236 8.158509719955205 0.1527619167377392 0.9366356552652708 0.5860701100993132 0.15520104278659724
Ni 0.12980168255694965 0.8985446846757532 2.7923232534375173 -0.2083981956348669 -0.20172489737974936 1.5060169918549935
Ni 6.963362903494536 0.754439644625595 10.884893419205024 0.8334534287481259 -0.18430541635172126 -0.9656436124618466
P 1.200106436657856 0.30791661627627226 10.885044079365732 -0.2124530824305309 0.7342157887010258 -0.1922555244367334
P 0.18867050274277003 4.977746205341801 10.105848443737008 -1.8833027266246147 0.27946631522628645 1.0561274175757167
P 5.3253968656167086 5.056192424422972 8.3400439842784 -0.053538081127456186 -1.0587715400667832 -0.2342753205119449
P 1.4153539532157795 2.761619461307346 7.237868523634889 -0.013941035561124379 0.39930414802224135 0.0033923135110006087
P 3.202922723343478 9.060028305194479 0.13327248091758498 0.7514987441511896 0.23490626922772445 -0.42601431032357595
P 7.597314657982541 0.1501904004543674 4.433506494001747 2.0084133777837345 0.932766916338484 -0.5048638736326273
P 1.9627556563758892 6.668068988508804 6.28801984324012 -0.7108346907729242 0.10252762365228149 1.0430651850751196
P 8.43903706763686 7.146372888770743 7.348683282833173 1.3784234263730197 0.5740964826772048 0.9512505769649681
Ni 5.594928828898938 3.1608969605027846 11.541345005395138 0.9948811691707253 1.8447148390490875 1.1160693453469874
Ni 4.245650117593232 8.30271301663191 3.0581907124382033 -0.6077509375068565 -0.22734928281607295 1.0624631299857572
Ni 1.7116865811107347 2.688600751121211 3.4719203577327664 -3.344360637270414 0.44043845616870597 -3.289849650706728
Ni 7.153512870299901 5.200985260858966 11.571462065098208 1.61280596188679 -0.18782885612394748 -1.1980870219713755
Ni 1.2404945890560821 7.828985067834923 12.423726007115038 0.4152984665679686 1.244927893584314 -0.7802691314156626
Ni 7.161532482581013 5.483814620934032 7.024155682005906 -2.0681349620140836 -0.44686595696160464 0.7712283613696331
Ni 7.853465004506323 6.300935442855511 1.4266487863818265 0.0681810278516116 0.6015291249668608 -0.4662191646772358
Ni 8.886722331511637 8.299475226842805 10.760108439266402 -1.1388161521252 0.060305481758276776 1.1521200683229578
Ni 9.154289162262906 7.810980710741739 2.7386339611368724 -1.3673455712923033 -0.6032471360992321 1.3008912963238113
Ni 9.247745250771034 2.340435413278671 5.294508725339585 -0.3845971808293699 -1.2186658745639916 0.4048232780682577
Ni 6.337365256869945 7.9819098098395145 7.301130818693501 -0.40232545134706843 0.5708754046367459 1.2144708626460372
Ni 5.142910915682092 8.518784017298048 10.039669330536013 0.08246556279508378 0.2384019410858088 -0.10188767607543743
Ni 1.7587468263402712 2.4965698717504976 11.07656963894277 -0.3474218573306533 -0.28093955733770326 -0.047133720263009146
Ni 7.810409886530365 7.444099824985284 5.385272582280297 -1.649223838394192 -0.9698116277966071 -1.4517181213021126
Ni 1.0974797296719092 6.237770468646053 8.627086214188889 -0.11761614255428776 1.1021491357214697 -1.2535889116934216
Ni 8.998893967933679 1.729213691732115 8.64420626164314 -0.6504875571434345 -0.3867818471855145 1.6201490325154226
Ni 2.4842363256752287 6.690939388059606 4.209480449694802 1.8774421540787793 0.9986678899066672 -0.02960471024031031
Ni 2.30461385457144 5.968940338410593 13.401637715829326 0.3238250438473197 -1.2958275086476585 -0.09739852995583226
Ni 9.001953960017605 4.0045938604620215 8.134425617122185 -1.1456131204423754 0.963860552419495 -0.8071045064409519
Ni 0.8353188849355737 5.035418166238527 1.8068373624824685 -1.534928275572705 -0.16486941911429673 -0.8483324027424873
Ni 7.201452746281391 4.119675764584678 1.5708960645961307 3.41643585797011 0.19610755119297194 1.3810204976762346
Ni 2.5744078355244655 8.614467256007933 7.059820030110661 0.7652875704051658 -0.34349038348673105 0.42774337719954075
Ni 5.249926418653851 4.094100968360315 2.7753669670275114 -0.552848371931706 0.023923600695132993 0.7113118875196588
Ni 3.800613103748274 2.48257064191089 4.053043735124167 1.9666422073842196 -0.6210340277690078 1.064671964711618
P 1.7687222133783873 8.476720823361525 2.859666473718758 0.3023064530492536 0.08944019434070404 1.1820101710141706
P 5.356445959605891 1.9406245209676862 2.4434841558700766 -0.4878804517007534 -0.2678099619342807 -0.47485832840947256
P 7.66060128325344 3.3905835222762923 13.01164312839919 0.7102538785687896 -0.31073581476352935 -1.0052776819137008
P 1.2921307857505706 3.01739549687285 0.9062985361764877 -0.4850378400456356 -0.6377785942171984 0.2457712369666864
P 6.026060190643858 7.123792580212606 3.917261499231325 -0.5321065113986643 -0.2975244582795779 0.46403501254172336
P 7.040096649941583 0.25676983115973273 0.4690284747158041 0.44514177518164627 -0.044329932265626884 -0.9942034263774102
P 4.120667688624115 5.0173202314057725 0.8497326641614744 -0.9267227670269329 -0.22667308268465478 0.05126136927813752
P 5.0230004001976445 1.436951695508436 10.664017201611992 -1.4879881593777404 -1.9667867033818835 -0.5285961842525606
Ni 2.9245008748021384 0.7840757147472774 2.285335904442713 0.03282373139824024 -0.2565223048356034 -0.697775800706437
Ni 4.230836761419369 6.853362270630507 8.429753220094163 -0.6837337207910741 0.999491414249227 0.03947491816617072
Ni 5.014447394800986 6.04232400178105 10.532712660557555 -0.429977408736382 -1.1958817867899405 0.023039398317966774
Ni 6.518494329580804 3.0001491194701777 9.115171795568035 0.014546787465923333 -0.045430621528973376 -0.5992423858152132
Ni 2.484339261188755 1.2094174217450282 9.06063468894689 -0.8031362658218233 0.05548543466181412 -0.4562036894227627
Ni 2.8034206375730726 4.588359873218866 2.8305619251578302 1.053716751251695 0.9695056665204143 -0.5373862717403648
Ni 8.54998283567054 3.154281014315216 10.647622381639405 -0.2844113179363876 -0.14975236096720015 1.1492329765831497
Ni 4.187772285669454 3.1154181790719737 7.265561919883108 -0.4833380837457096 0.32117423648803395 1.1474576298502819
Ni 1.94826982229052 5.878955984040496 10.91481864454198 0.8782209627718035 0.07980267125093998 0.41316727915757884
Ni 2.81234795392801 3.562607480927032 13.003891148453246 -0.09416999571620556 0.17429148375914502 -0.15530645801620996
Ni 2.6239478908525955 8.255615340306548 9.78573022599826 -0.4649600954591541 -1.1757119967102847 -0.6263438700176955
Ni 0.49352057649334746 8.307438692480176 5.241464183664574 1.3801146980325134 -0.1489900288798789 0.2279745751048977
Ni 8.606120121638327 0.8909545942192655 12.492713388280515 0.473089666544824 0.12342143638215519 0.6472369114166208
Ni 7.592130451210386 1.0604416603502738 6.734415605863627 0.5201236280051752 -1.6140619457810783 -1.3308438768218436
Ni 3.3562124185323894 0.24892146614203295 11.544098062493273 0.06415082364629597 2.4156943733638654 0.016098448223759373
Ni 5.609208791957255 4.172491040797743 5.306328529624617 1.416295518828445 0.07137665197077385 0.28726961332078915
Ni 3.77897793035979 7.578468101233229 12.163967302953454 0.09044189613234102 -2.0919099529464944 0.11909581242360781
Ni 7.3975823306452515 2.1815497692634995 3.373062962096682 -0.310209252836098 0.13085398140080046 0.07353149353024756
Ni -0.044452233627732526 4.847139754224553 12.793464757037947 0.4384152550910901 0.2746125866784109 0.008834567572494463
Ni 1.7156729928163985 1.2430773346682025 13.08976556850145 0.024474073881964303 -0.13943220998811467 1.2774340937421353
Ni 1.821818222810161 0.7367628096209033 4.483607079989898 1.5057408553754712 -0.9415397774351074 1.5175224213914318
Ni 1.720117935445953 3.816015999681426 9.124581037281756 0.8278527947318968 -0.7492742256960451 1.2098295072192842
Ni 5.061245622359728 1.2883689606198738 13.361590186403134 -0.3362355016965306 -0.6503829132447703 -0.1347594871027937
Ni 8.041752774294253 7.36585011915721 12.98652405576653 -0.9210383150476459 0.8061154030548053 -0.6778224975129616
P 7.104852445723725 0.3941279161869251 8.682801464551213 -0.3747033187544257 -0.7960544192743775 0.9403005057113677
P 9.043680274091676 3.796121372248935 3.726489240457823 0.1940604388559561 0.19987216044172673 -1.690876738048288
P 3.6409975533644596 0.7922965191684642 5.815397047547449 0.7342790378387934 -0.10364091132111827 0.11949664740645226
P 3.7108159048573155 4.741846081660873 4.729574296893721 -0.17532146768555612 -0.12945170173663512 0.06558241388649995
P 0.4762882357516113 6.91565697186197 0.5251685680157758 -0.2957087452270778 -1.7606906735176322 0.6189041259101986
P 3.6558483406341504 4.462993775517514 11.314058712641588 -0.02209580345777485 0.24574475460412518 -0.9652039538212668
P 6.37695799848183 7.420855114476204 11.431296647883928 1.3448167940621676 -0.16986584388762357 0.9771158747675042
P 7.309413384422803 3.116222947632272 6.943526294260578 -0.08542824496783352 1.6935990220754575 -0.5665382107139726
