# total energy = -340866.4295678813 ev
CRYSTAL
PRIMVEC
9.31948200008225 0.00000000000000 0.00000000000000
0.00000000000000 9.31948200008225 0.00000000000000
0.00000000000000 0.00000000000000 13.64000393479563
PRIMCOORD
 96 1
Ni 6.694584776840572 3.0227647207301565 1.2655008707170257 -0.3080379562163921 0.5909896588881177 0.8845397059009799
Ni 8.426237757916113 3.5723066255527245 9.005089434147553 -0.9041312548796623 -0.22816200852535543 -0.6190586492101919
Ni 5.024608128732892 3.577357784886145 7.993765324153631 1.173087157492928 -1.1425622494311936 0.6761307116328354
Ni 4.943994608005786 8.07148234982386 4.640315553866941 -0.7427063426705403 1.525389225734018 -0.8518247321664619
Ni 2.4802869833886456 1.1351315666592914 10.19633919461151 0.8357525091949478 -0.8990373852965227 -0.3211950624236404
Ni 7.218973399299851 5.944133475505295 9.399995035302986 1.7093948514571333 2.2861246579921275 0.5559915455463779
Ni 5.375132491922242 0.41620154985063706 9.330826770622696 -0.6118598174689075 -1.2377390891453588 1.7630010668183638
Ni 9.348092975229761 0.18725355929635923 9.75148489684463 -0.8663514650277272 1.1947998665796715 -1.0539831175392043
Ni 6.181370213497109 7.636169337897492 2.4026044398024275 0.6718197429623075 0.11877339608718254 0.561970131727316
Ni 1.2463502668162016 2.3243534078041455 5.106777071033332 -0.7565897855208518 -0.28694539721215095 -0.5812606045258119
Ni 6.185573299953517 0.8824123729467908 1.6728097706858358 1.7168052849885918 -1.0099473194752284 2.346418569786178
Ni 8.353210295671303 9.564770935565623 7.140433463354454 1.300057744678922 -0.9494024680126358 -0.46897435882486976
Ni 0.48931009159028127 4.425430661899623 6.628482621792562 1.541944558989538 1.869633199557322 0.1850140123829717
Ni 0.04759739126121902 0.5460797171982769 -0.01941434524609313 -1.9452879100781597 0.37257958754320347 0.9510898830173878
Ni 2.26073862254597 5.534523595389951 8.836813136383748 -0.4085891728685931 1.071282013828968 -0.8261183285392935
Ni 5.61869715830408 6.955204095584329 7.954468795656763 -0.04265331589415235 -1.361566759826997 1.8264993444823252
Ni 8.192738132272456 7.130559472000654 7.018750848622701 -0.3988601185062873 -0.1452105072327886 -0.6106336583712902
Ni 6.9677667575427265 1.5049845358588172 8.30213860145898 -0.07142164627609636 2.0854706250790533 0.20491203685847936
Ni 2.117637973902652 6.364162536681091 10.954955294271526 0.7072282043685885 -0.4354471736017016 1.9133342399896984
Ni 4.691315488066595 2.7972332523375614 5.70738694227536 -2.2789502517308753 -0.5254689514774886 -0.36743609566905105
Ni 4.2070658752918995 2.92054864034462 10.239687833953711 -0.22838209495596154 -0.5048525607787177 0.25443199796547794
Ni 9.050335520058546 2.8133932344116426 1.9068042608324522 1.373429315592538 1.2670414376539019 -1.8396343392023868
Ni 4.884126254577934 1.93789312138662 0.13117077952392292 -1.9585373188888981 0.092437329295815 -0.5509539831224705
Ni 4.087478280150835 6.817313037471237 2.3173414294232124 -1.7428197067744822 0.27820493201535956 -0.8593102419102299
P 1.216565201816915 0.3097926344390746 7.677330694775573 0.7750801310155554 -0.6061655952976077 0.14267025730943816
P 1.9462247384421147 4.333410095002578 4.8836257983856735 -0.020123510222752442 0.3492537683330695 0.2826079461790617
P 4.918030530694144 0.9600464552257508 3.3620423328428055 -0.5782914945951588 -0.7607122923296576 0.8859252733945969
P 5.356474888627945 4.648091729785403 0.937124256892758 2.323464017872534 0.3757024494429014 -0.5571344009015695
P 7.436984045585304 8.270639683689552 9.068419975199697 -0.5370072911343913 0.4256600123079508 -0.368437797460688
P 0.3862785565153088 5.160691207305978 1.587532781083373 -2.096248175310532 -1.1389956151258578 -0.17041914528793228
P 2.7677184523210596 3.567684162398893 8.537865583340066 1.4768943634574243 -1.5121169341051441 0.7685865528714119
P 7.760780133925483 6.346502117978447 12.244317767123777 0.8996505934004894 -0.48189646620317655 -2.848697456300449
Ni 3.7830760341959864 7.011614921128973 6.511451360609352 -0.41688740832164334 -0.7806987627539135 -1.5382735378958539
Ni 1.1674328918431234 2.3056026096881994 8.860642120331395 -1.82038243295131 -0.12269792795256933 -0.7316570268349141
Ni 3.7503460128325647 8.796677854492032 7.866777128225353 -0.7226136856857233 0.8655914469332512 0.37868467199967687
Ni 4.716701757484009 5.323903298461329 10.503812209939719 0.19677783778711916 -0.31347044008587305 0.266756838079418
Ni 8.055368965160604 -0.0973401273168172 11.779902808240815 -1.0160642310062438 -0.6919208845875566 -0.4729148315298565
Ni 6.656607887018265 3.725677343541854 5.377326298023879 1.6051741563731454 0.6453980584356691 -0.8297114452071904
Ni 2.3642407914702743 2.13558729655241 12.204134955873016 0.9232728608051196 0.8724069271931878 0.7080033919717162
Ni 1.9663548199184786 3.702024497807127 1.3504637937705286 -1.0316546292453328 -0.14455770414013813 -1.5423649343564083
Ni 7.223633140382342 1.7970384679450626 13.029682644493729 0.6277788026920093 -0.04051595783617538 0.05577982597378135
Ni 3.5277967787327644 4.949269434911166 13.827418202489483 -0.9710118187522954 1.2911087630157505 -1.5795495138265057
Ni 8.587613911084963 2.671122019681008 6.831773145998425 -0.9120988464661711 -1.6823062227704575 -0.6432753556657115
Ni 7.556534362797709 2.4286663716768038 3.4783783606565075 -2.2625250162953168 0.41929036133618114 0.4049988844141735
Ni 6.106115395014869 8.639803011208869 6.746946287384531 0.28379168207451777 0.5575941141468075 -0.7970970016062788
Ni 1.4107738906530016 7.380964638291589 7.002096002045659 0.31943385675815955 -0.6362418458576978 0.9817402609133932
Ni 6.375206123046596 6.6776885556754575 -0.03288286087092695 -2.3672511902608133 -0.0933600982204005 3.1986816750416396
Ni 2.0160742572686643 5.5503760345525865 3.089324462352467 -0.6798639534230227 0.47276802153934705 0.6071726964058833
Ni 2.198354008933572 2.0716649683827892 2.8739083599017445 -0.1859241829020669 -1.0965248475561569 -0.32253614983256707
Ni 0.49014791303691324 4.529603833539806 10.493051003883812 1.8576135493886268 0.08348886185327557 -0.2151116030993005
Ni 7.87650014396808 4.64124191039414 0.1281261047006229 0.20990769030085785 0.4782681254219699 0.7476230632458672
Ni 1.5803232296805418 8.379062539196967 2.431234820961473 -0.08310396771003106 0.3055131329120093 1.4923695762748879
Ni 5.839429093381708 7.385093168890678 11.482441712602444 0.32145731494609153 0.3224641589440511 -1.122848315942034
Ni 5.196123878497244 5.813968268106974 4.280179076772627 0.9910959910966801 -1.044900952732278 0.21931252855452552
Ni 7.210977283602295 4.765852706422131 7.243292588009374 0.9747383756742631 0.7691352262860303 1.5513277999766508
Ni 9.12632657763182 0.8857981408173291 3.1259211368661397 1.4601888777772853 -2.4991323273745474 -0.8842219175502448
P 8.475146400317945 1.3318844741264182 5.081596762171764 0.33870813160673924 -0.665086795113848 1.001884854182068
P 4.554794393831755 1.090314176927887 11.758815615946107 0.06883511649584274 0.13113834541043867 -1.1538167392990901
P 5.357173849790319 5.355030368892373 6.426174371006889 -0.41763765622410653 -0.015800200257050204 -0.2705160480115341
P 7.618965573820932 6.190577861876113 4.638242901033449 0.3002323441290442 -1.1667941253953649 -0.4416813274368716
P 9.457969669954915 5.850714986283503 8.271189533137285 -0.5766930397597875 -0.20967114881001955 0.7187333767947106
P 6.414031085745917 4.142071806673306 9.61036463816137 -2.533416188258082 -2.606268396333118 0.14069539297125447
P 3.7010645911441333 7.681806842059414 0.17140671182302167 3.302529817277557 -1.6901198052776052 0.9249605329201877
P 9.05088536950628 2.277867830765209 10.745526959111807 -0.3114765495842958 -0.19598439535154635 0.44550661472023273
Ni 5.764472498328748 9.059832072384664 13.55414023112103 -0.8376116738908735 -1.8086546029914203 -2.2968584994698635
Ni 3.395488090436497 0.16768917038740985 1.4328685189697437 2.158524150531618 0.9222765583301213 1.316364966479378
Ni 5.499780565878893 3.720626184208433 12.458247412169182 -0.007263623540948781 0.8433362350794766 0.33302445095840066
Ni 3.85338220764862 4.3016865777129745 2.50063514074767 1.591283257323666 -0.6224134246150377 1.0708618955724138
Ni 0.6364572593896349 8.750145680042271 5.35799862396192 0.1543330383593471 1.9010600506080355 -0.7959222645718873
Ni 6.5187354678695035 2.0984118821962916 10.801683362793346 -0.040933504989568215 -0.6843754681401311 -0.5394503533582452
Ni 2.7014569341280286 1.8856574238518884 6.864018554289267 0.5382596754842537 -0.5236370404750724 1.0753163317993417
Ni 8.982154188539528 7.4944293336502605 0.08900757831310566 -0.2187448289765136 0.3335767239174449 0.04889286904596096
Ni 2.0706864227554664 8.72749933838136 -0.2534731398196478 -2.6208570927805703 0.24426508473480513 -2.6575130534407068
Ni 6.880107708298894 5.161483363290001 2.5163077139045225 0.312956476563932 0.4551209978815452 0.2911409233507373
Ni 9.167966023944965 7.014084583902694 10.415152248311365 -1.710703542966228 -1.0843015660170876 -0.7368377997049051
Ni 8.969610165545461 4.211744255338721 4.229029098910115 0.08434143966155798 0.7318688857354041 -0.2741263910706118
Ni 1.9308009954590675 8.11313111561917 9.368404786608343 -1.3232015297852373 -0.014345727198710778 -2.0029019610472023
Ni 3.391294323462255 4.618027080321167 6.774417324962252 -2.287629267562112 -0.0058055509381835495 -1.8243972105376578
Ni 7.638378055170592 4.12317189684272 11.386320573552808 0.5546993090975156 0.563713596780984 0.6279718925394218
Ni 8.850358071762336 6.890461652984191 2.7500431224469524 -0.09827733301635977 -0.5541328950710843 -0.029368940080420385
Ni 0.5479119273919125 6.4348601283846545 4.873750875083658 0.2810915095345352 -0.28333119749833136 0.7612205994246438
Ni 0.4726170351363633 5.555101012010233 12.618013158819924 -1.0965042787308665 0.8747142351701257 1.0957036372064421
Ni 0.11734159993930426 2.970584940088415 12.92443586850814 0.4575563467959152 -0.3263534666961283 -0.5925814288552698
Ni 3.5089341468308386 8.465044081651103 10.836301511243391 2.1250972383317404 0.8764890676823616 2.4908801146680846
Ni 7.414552052014189 8.267974311790367 4.627943941292925 0.6958148203253242 0.7616592296239593 0.08370200630534617
Ni 6.28140553505604 1.1396794739558032 5.275258397404766 0.33622573150451773 -0.08846137536720249 -0.9136098837940588
Ni 1.7907944148945238 6.575015820663837 0.9435230133472355 0.7213343047526675 0.12851633440655932 -1.1384718814119037
Ni 3.140889157171319 0.671533926362199 4.621492995738324 0.019830918682998105 0.4925678298740936 0.1350929591828125
P 2.0533521859285973 4.365031097988366 12.268842916389145 1.920295758909196 -1.168514193410265 -0.9449655152872046
P 5.677074394585534 3.520220039732633 3.520593750967449 -1.051817477346453 0.09711956526283275 -0.42088393107554617
P 0.8260891505344979 8.44132599954122 11.45652609659806 2.2094070534244143 1.062042497508571 1.9002758641438433
P 7.947728946155047 8.499022913624632 1.6656356333152318 0.10807555005370419 2.1819872666505646 -0.2236659204272148
P 3.891032915595152 6.917031496636557 9.398467572176145 0.23918124245399455 1.1382145139854591 -0.6825101327966181
P 1.799144670914349 1.452804755217076 0.5530693288220143 0.8592894159746233 1.656616017093205 1.9362463687011815
P 5.096274946581613 1.1465479323113958 7.172623886700523 -1.1461929042052452 0.9681360398663973 0.2953559898733494
P 2.6152237656554385 7.9287731194314715 4.522001931937829 -0.4085524060933867 -1.264180828276655 0.005307014035210215
