# total energy = -381168.40076093614 ev
CRYSTAL
PRIMVEC
9.21935895354357 0.00000000000000 0.00000000000000
0.00000000000000 9.21935895354357 0.00000000000000
0.00000000000000 0.00000000000000 13.49346373559168
PRIMCOORD
 96 1
Ni 8.868967716787768 0.3488918775932971 5.820998880496758 1.6548869502172403 0.429985122045866 -0.7663005850507125
Ni 1.6958918065345452 5.68467498976789 1.871084513382824 -1.8459643951854723 -0.7107948386739242 -0.28634015952798425
Ni 3.9147793912526723 1.3059037157690732 3.0221712268827248 -1.0967081672115564 0.09305979337116232 0.3426987408233711
Ni 5.316628972618215 7.117501616238087 9.792165713198564 -1.3122643140474433 0.2229575815062805 0.44466740664838905
Ni 4.917089626278808 5.368589278037808 12.541148904205954 -1.4342474753211751 -0.0033411485580910195 -3.204743050744371
Ni 3.1192317129414424 5.057067148845465 6.391340675089551 0.051280138331214906 -1.0139273871688987 1.5937977962154035
Ni 7.57822984601785 1.748764828461686 0.14715387134923533 0.9324900085280134 -2.5761697771755245 0.5423315315607821
Ni 7.155835709555097 4.423678770041904 4.017462764159404 1.9154597709731334 0.5890549037592501 -0.5039056234844161
Ni 3.847865286083154 5.0656503717598795 10.352873277989463 0.9566226399101591 -0.5016155418986588 0.12356361838697431
Ni 5.990250632623178 8.819146302577783 2.8743637030043465 0.9364055415323358 -0.13391745081747258 1.1140286607678749
Ni 6.813834380625854 5.324917176055442 10.144790509114143 0.010041700506718189 -0.1425751264924706 0.9238109926967768
Ni 6.825081998193616 7.362432317814085 11.829746312403707 -1.011388422797129 0.31418057877902017 0.6780600674450645
Ni 3.0683316337679907 7.222454795247429 6.0980470618439115 0.3079541382533342 2.9592980867688516 -0.923881698033712
Ni 5.080936068421641 2.952757753579911 10.258486405942755 -0.3855189213126909 0.0799404823803849 -0.17391121760159078
Ni 2.827171649884791 8.700428621085928 8.893365827551149 1.6032224319634132 -0.692905102877697 -0.24610368060544063
Ni 3.73762941456043 1.0344673580395392 11.390952780752812 -0.7518049625376988 1.6090531797125773 1.2610240278152283
Ni 6.868348448394848 6.9027458755631415 8.056123599690574 -0.26081784688716375 -0.9558219983857347 -0.7254640106503248
Ni 1.524605341951398 8.973164908386819 13.33892305763408 -1.1254708411665457 -1.2407359669901534 -1.3783167255918263
Ni 2.1683470605324975 3.5037066272269786 4.001634969208312 -1.5567533418675965 0.9109418500435926 -1.592095725922632
Ni 0.22705713093778568 3.6420984201037543 2.4607215037195256 -0.9832831799204808 0.7538207074161469 -0.8919264852833543
Ni 4.71923297003149 6.943154324579124 2.5747548290751685 -0.3669290741256455 -1.2099596050392452 -0.19392674149156924
Ni 6.69758748725544 8.555961270850828 5.777280681721082 -0.22889323026442518 2.9043798374644174 0.36981153787976306
Ni 9.09120957669634 4.383841921262972 10.92479342678521 -0.1663344336955974 -1.0175431295446153 0.8766975841487418
Ni 7.292429727492764 6.064162231017231 1.9025105412543224 -1.3199732526559267 -0.29438642687122846 0.7680491923107031
P 9.005266715248249 1.9342859828191146 10.181600642444309 -1.0476810865805763 0.9508955076183946 0.7371062228749434
Ni 6.7736379768591 1.886880040578599 4.1163560587201475 -0.5151120337231968 -0.32323291878927557 1.2412746131024428
P 3.438110890346141 4.776282361432561 2.6452183873295954 0.12164814653181631 -0.1099668535391461 0.392477354908395
Ni 8.608613028170078 0.2909592716323961 12.077095251756774 -1.45789133999236 -2.5948280157066606 -0.7144110952702729
P 1.4109490883650353 6.5476714960510405 12.648948099234286 0.11226439132407118 0.6441328185700004 -0.051911087046994465
P 5.820752723620479 6.908480316650968 0.2978387570660548 -0.4289345692941645 0.48028181341788906 0.7610984720244828
P 4.956981791209713 -0.013041704763405985 10.098913136539803 0.4517826775369316 -0.7185207465632723 -1.4266182409106916
Ni 3.347346304317771 0.6749630766902992 0.540214774356785 0.878111690887449 1.3911498728007528 0.4481851899936604
Ni 2.0889407243758344 3.1402518506910293 10.689886011946644 0.04694885794571269 -0.8029269780244945 -0.10940455327777286
Ni 0.5445082296857248 3.4286518283588263 8.623362158157706 0.036935439573768644 -0.5196394892799051 0.26508973478964026
Ni 8.683520317299637 5.613778121656345 8.733589732257634 -0.7706056401839696 -0.3369392126317745 1.169246186480283
Ni 7.5445699675425235 8.207995016867205 0.5468296641968415 -0.16599247697514638 0.6226867328810824 -0.3417345771378889
Ni 3.5543577837165534 3.1964530610951876 0.881057229902203 -1.2123149926452992 -1.5131505175759812 0.2684691927848344
Ni 7.985780815034621 8.99974431940965 7.934399485339008 -0.22135347024395427 0.506916642396598 -2.3341554361481087
Ni 2.3080572216979536 6.103787034546935 4.005764319953066 0.5550944876534053 -0.2797784471500665 1.2087465585677506
Ni 3.8096602637874133 8.020657648853343 11.964707581922315 2.1615122866256646 0.7304185264421228 2.209899676790117
Ni 3.164415789744392 6.355742887423452 0.4259316043813994 1.2291603463374121 1.3595584711477164 -1.0861532745138456
Ni 1.2850034296820938 8.170361594808515 4.4772257270872435 1.3696472228422862 1.7762018817793537 1.190594313138756
Ni 5.189982642676954 4.7308124845110875 8.345679684934598 -0.2957563106355616 0.2841526649583622 -0.7697638610089645
Ni 4.673495731708814 2.2898950851336175 7.562033276720273 0.3434641582344859 0.5379105196749511 0.751841472202589
Ni 6.014515984621825 3.733812600074321 5.918421687350896 0.6669876116809869 -0.5466126754346392 0.8214394350063853
Ni 8.73236447949144 3.554846409725645 0.026582176830431556 0.6586706071748591 1.2337749622912881 0.1347466315869873
Ni 7.135949552920949 3.3379149004064432 8.635060602364044 0.1442563708496354 2.147131849534276 0.17803500996197727
Ni 0.26667363704469355 8.353771516032323 1.7678461350846333 -0.4806075721884239 -1.2966397201363087 -0.6412236153430053
Ni 8.343408956896123 2.066961773325389 7.1852288688416035 -0.691615437531996 0.5388214615249947 -0.6474857942026333
Ni 2.9352778495565706 1.755707005534247 9.123497614602744 0.48956195316823425 -0.13118642503955474 0.511355652004558
Ni 0.7786292332304111 7.622261502988037 9.158053614740027 -0.7625236345067835 -0.5445059135042816 -0.4314285393606118
Ni 4.945669638131317 4.867673863849955 1.1704879318684231 2.7479652339856933 0.6644782149955718 1.2699619537348064
Ni 9.00193852677123 5.7441767305730815 0.4584455165750257 1.9158140689887588 1.5512339547112641 -0.44217060836846434
Ni 6.3128544309273655 1.0269720194472522 11.476608920146512 -0.020857045954667308 -1.599738844290187 1.0069177886202854
Ni 4.37882659015079 0.6678881408530041 5.4419136032850846 0.31926082151540497 -0.7606616415973803 -1.7542474889954496
Ni 2.745423596627955 0.9270802683434038 6.988250817474784 -1.24028525260598 -0.526291447378784 0.22013039647013055
P 0.6694231640702436 4.957249152610913 5.146987241620387 -0.12132238776128139 0.12279974363775625 -0.4432548425715786
Ni 2.1059965379007184 1.3038846762220735 4.864271920503639 -1.1374439543680217 -0.02435066093022258 -1.568635438017163
P 5.686150087153827 6.428585040212701 6.424183718387414 -1.9663141346208397 -0.6410019862505025 0.3542643341737834
Ni 7.243299765182435 3.0805565033539346 11.201072713619942 0.5989834757268717 -0.06212839389962849 0.17846824084465393
P 8.368752973858236 8.627134719722237 3.976226416735565 -1.521401958951496 -0.5280737360901874 -0.6679371200784497
P 1.5031334556273683 0.7079573174702211 2.4417775655406437 0.2570031011267639 2.731606590122012 0.324005535289242
P 1.2666200285098672 8.380009810784658 7.034129111984989 -0.08022947437571344 -0.5332948752798106 -0.2663300349546446
Ni 5.22623316093633 8.995899846847555 7.480303662180761 -0.7045881956425801 -0.4319453310960303 2.0606509949322125
Ni 0.6265347075741566 2.0201274313219235 12.20508023257577 0.750257929765553 1.047693942096383 -1.1604568703234273
Ni 5.639288087074374 2.6128768771429502 13.212110779236902 -1.723134312530413 2.020778327106991 -0.8627732607581657
Ni 5.17591390135859 3.6967046814593703 3.355432603800298 -0.2905243728126609 -2.132265473945405 -1.5909513279055438
Ni 8.978364626672242 2.6805561890814227 4.497276910241444 0.5931655834935139 0.317613258609653 1.2196619199286738
Ni 2.620261583431292 8.210216882304772 2.076670679932446 -0.03139779758499109 -1.5807908424327743 -1.1109747044328997
Ni 1.626765055286123 3.3746448253162473 6.427827208930676 -1.4187722625037114 -1.532105461411929 0.3732457603722927
Ni 2.1408549330021165 4.34273280098867 12.674342822669038 -1.6353604501485386 1.2443254841136246 1.0665627539764277
Ni 8.439456235437877 1.0918763044284328 2.5075715186327168 -0.15935414572302234 0.7561686388230332 0.26769631917455183
Ni 8.96597380863038 6.622864585299125 11.174449971611399 0.46926695036462407 0.8416112819685699 0.23881357470193068
Ni 1.6424103069357059 5.212192077693952 9.8150370981675 -0.25987142381349443 0.47673703348942414 -2.0417510727039163
Ni 1.2993671904776447 2.2544189930018583 0.7742362088279207 0.6938633530259082 -0.7174144008729709 1.924794675220814
Ni 5.882983394589651 1.6492510710629837 1.9499137176872396 0.633457084023709 1.5329374703949212 -1.2447779982700111
Ni 4.547411782645941 5.2453356720842 4.793526249874153 1.528538055775645 2.574592919606708 -0.734121943435639
Ni 0.6839547171934449 0.7413452248650145 8.752885849937408 0.420927639829288 0.9828165246967074 -1.687386208396526
Ni 7.551281660648533 8.149618037818792 9.79486421947896 0.012998983362829227 -0.15165497730655172 2.6428994172925906
Ni 0.09658568908761946 6.718174315147909 3.3061007375352696 -2.0240870797652493 -2.484615621815611 0.5081042349467959
Ni 5.497420595981987 0.27308385712245137 13.461078637971035 0.3926578463503173 -1.6309504940063007 0.5858353683806877
Ni 3.7981729428944377 3.157630341769087 5.3709512777270385 1.1047845164617875 -2.33633238919477 0.7355242230998041
Ni 1.5883572070998164 0.1783789172019002 10.772237011259982 -0.2101717425955219 -0.0687124748750494 1.4229667602010334
Ni 8.214144329094825 4.690191990245877 6.496711491046285 0.19513901663211553 -0.34306820834764784 -0.12474684006179806
Ni 2.605713435462499 6.99623017239683 10.648380459249873 -1.6941836909343337 -0.049446170446269685 -0.5550962874256182
Ni 7.113795434055924 5.12295790520349 12.842687389903109 0.25817398150641346 -0.4186869234242273 -0.432028634838456
Ni 6.638408424003424 6.7931922365814135 4.636286400148581 0.5104506236917853 -2.201348959006628 -3.519963383641815
Ni 3.4397795942639804 6.490382401324754 8.240592825224656 0.4256733820443895 -0.23510681527430477 1.3788702841024512
P 2.996946139647354 3.7084040476015745 8.311231551293664 -0.1452868689966788 1.5828947761496543 -0.18215725966046692
Ni 6.608021417853144 1.301699688219156 9.280628675896105 0.34098741455921916 -1.217615064701974 -1.2948636020724926
P 6.165519860148352 1.5260251231853617 6.265257647962544 2.0335168577195817 0.09389951566363829 0.11276678488178643
Ni 1.1845308589825332 5.93734073326139 7.373368321059068 0.1671996099093701 0.3850270692779369 -1.251195985981213
P 3.7931760504995795 3.219639748130368 12.066286475661327 1.168340386836562 0.10358203305872482 -0.0031591144542719787
P 6.9252503300573265 3.7058226271761865 1.3857783953457712 0.23168082031189133 0.13618979179141708 0.5748176771139455
P 3.659320182084557 8.451754859893118 3.8045490513451456 1.4504364263762117 -0.19138160647221233 2.2921441247133303
Ni 8.505457624099847 7.157919284612732 6.132792980769632 1.4263745003310015 -0.6270871759416233 0.29293709601921164
