# total energy = -340890.9893075612 ev
CRYSTAL
PRIMVEC
9.07959830034558 0.00000000000000 0.00000000000000

0.00000000000000 9.07959830034558 0.00000000000000

0.00000000000000 0.00000000000000 13.28890989241644

PRIMCOORD
 96 1
Ni 6.474225654835391 1.8245543376427336 11.545909432628711 -0.25109264917959984 0.6910274262390099 -0.6046375886888554
Ni 4.543866759382292 0.37892341142872155 6.166971143828907 0.331457620691913 -0.686874580412901 -0.6929567820512389
Ni 2.6886869370150777 1.4097256551369428 4.974942474904976 0.5415429742212158 -1.09796312266458 -0.8485010671098677
Ni 3.4618238032392634 4.288112637319099 4.896750791136736 0.030011201650109606 -0.18373206034675454 -0.8739650157089272
Ni 4.944821815840348 4.507820754533141 2.6313501823496113 0.8890874731726623 -0.12101051294781742 -1.169788175026682
Ni 7.563477811948248 6.191559603711019 2.5416101576323444 -0.7333410994055564 -0.4184087300621762 -0.7072310325820659
Ni 4.982656501534659 4.55429013811449 11.361021574506987 0.5148778062252036 0.6029283193072327 0.7879374465941978
Ni 5.872139339077992 7.879275316899963 12.44162178249623 -0.9356347248045822 -0.33356078307784487 0.22803242492602663
Ni 1.6731701968745 6.518652128822014 0.518140890610592 1.2003503640842552 0.006776399491885103 -0.6147613073864187
Ni 2.733095251805303 1.5215953845440924 0.34169796677354974 -0.052823828669250956 0.11365844345812039 0.7565867001970583
Ni 0.6431142961382187 8.729824837366934 4.7729114274241375 0.6674095297097539 1.822320016293655 0.24376371961835439
Ni 8.661410064939137 2.181300830470939 1.5615002186277236 -0.06800927816043771 0.47328584171603005 0.18172942809442896
Ni 6.725576171772175 0.9536665172104986 4.676566902977079 0.405921653338759 -1.2999921815483095 0.8166705528628323
Ni 0.4463267166171735 7.546190256977774 2.3309144495904106 1.312447633702843 0.10051110744288497 0.6185225742010638
Ni 7.889744093623154 4.055093829145648 3.70788454626544 1.3059445424770024 -0.4733945993797525 1.8064730219590694
Ni 7.700470789571418 4.015715611757546 12.798336496730737 1.4893996950132866 -1.4538197410261477 -0.5139853763179212
Ni 8.13224200231613 8.897670289669554 6.98926223082182 -0.6450381039930891 0.726250253997046 -0.4479702457693769
Ni 6.962617241947685 0.5565339715941268 0.43988383373532025 -1.1599112822326023 0.9070623124835282 -0.1848540897663397
Ni 1.9736685788612727 6.790386343715056 9.22847001472511 -0.2909761156380989 -1.5759103744120213 0.5543876913943678
Ni 0.1870896606849299 4.587566865513012 1.4631618144162135 -0.21388647244294778 0.9376329861815336 0.18883107213621672
Ni 6.145607757227001 2.2492797821851935 6.622009734917809 0.18482786451409458 0.2009836483383506 1.0164925767929138
Ni 3.4303811546768936 4.30037009488745 0.5626853993737991 -0.05408726876270684 0.1566269765998464 -0.5086886466953562
Ni 6.033066137553143 5.7932921083197995 4.577285128512716 0.8592295092709653 -1.5415262405051968 1.0916209824966363
Ni 5.104023490657731 2.84892368602712 9.685847510310015 0.24888972799101006 -0.6044524692612429 -1.2475097953788774
P 0.41285386989755674 5.437680565266443 12.382380128128657 -1.0051707240221914 -0.10099293217530994 1.0195619597468568
P 4.084620682488076 6.172619561868368 12.687293918719497 0.12893491000121668 -0.6291995942989358 0.9750736475264948
P 2.377138684020392 8.50240814128213 1.3248550189336807 -0.573181169951787 0.07508829649440617 0.5820756442279394
P 6.454604643127831 7.995230865496563 5.722908879002508 -0.4215889275623707 -0.27438195872484356 0.90260324827091
P 4.812958811199489 1.1343505213661902 12.712211060056402 -0.7264605702356391 -0.6621719354598983 0.2035300689092882
P 4.103270177188366 6.243594780988219 8.315109649838629 -0.9360419875453299 0.37664038787613846 -1.3183930526530003
P 4.6448409709509075 1.0242967115987962 3.764123577508674 0.17340059651375941 -0.8978153399639635 1.3099125259858149
P 0.5102607073338722 5.741175214658812 3.719539118513392 -1.2486631922570302 -1.909437990259086 -2.364855179224811
Ni 1.4716757536472083 0.95491950176193 2.7068715562875916 0.7229749256798839 0.20350487209830756 -0.7298407995617817
Ni 1.8286129180375876 6.659976074786001 4.96213206980632 1.4171684083517013 -2.2716012675649715 0.35958523216606464
Ni 5.879611848395587 5.840124675829099 9.381956990436178 0.5780449258019916 -1.3624417062327825 -1.0920773533077643
Ni 8.374748990607305 2.3673599567603074 10.187358208859724 1.7049982650513347 1.144995027242402 0.5946200565518533
Ni 2.5953759063262316 4.942887861424008 6.978724449152318 -0.9593523801364962 0.8363883430067339 0.557687188081246
Ni 0.523938214060512 0.12388112986431367 9.188457133422911 -0.6678934113247078 -1.0924136536012605 1.3141946983009367
Ni 1.5008031046688897 1.099484864282881 11.49523891896079 -1.8125757924226977 0.5614037177008848 1.2199568254612732
Ni 4.142312449443114 6.691291608973588 1.5569685911667133 0.3813994998276786 1.118813483751028 -0.6314847907886866
Ni 5.785737882618417 8.03775970345964 8.0556038377997 -0.7131314572269009 -0.017041785973635166 -0.5015929161908393
Ni 5.586912841261565 3.00018979201877 4.352901926186123 -0.452797234844375 1.2073900445398562 1.2379121243881133
Ni 0.9761748411452704 7.53306115798234 7.1251810919780745 -0.28531788891105697 0.12483065802485598 0.01657050276417146
Ni 5.024504369632829 4.649716715183651 6.7007071523057204 0.732408560288958 -0.6504176231374476 1.0099920566702347
Ni 7.965585977377551 7.237057177103964 8.928286694795833 1.29826542866519 0.5195839534516213 0.22803808135298145
Ni 4.559184041543631 0.46144152373868 10.427169464445683 0.3366152536334525 -0.6883974448153306 0.14270111054737358
Ni 8.251175659121929 7.092255745029845 4.686095033326877 -1.3514690092713626 0.032440637027208646 0.8809208782014699
Ni 7.173454591721519 6.097458647978879 6.889767993759606 0.4223600014004404 0.7729291461108236 0.08629702072603203
Ni 2.4250517237153457 5.195918104027568 2.6476562327547977 -0.9485738014637534 0.48868674965213255 0.5235390814446275
Ni 2.4714666297075016 5.291435477078718 11.46133933112583 -0.8025868210762565 0.17427631425049342 0.4497278518904319
Ni 1.2897296853418865 3.2385746427276985 3.8912315965728337 -1.048766092114639 0.07220043342364986 -0.2722469146597118
Ni 3.6729698593518574 2.4761607819762697 2.580825850212689 -0.2642356143194611 0.6310304768600874 -0.05221062056528428
Ni 0.9732966085162577 3.58650484570489 8.267987443146787 0.050873132700783356 -0.2633295575654239 -0.08014514219202326
Ni 3.5804033557153105 2.7558033269004483 7.688272349391359 -0.6309188909828876 0.6580900520810409 -1.5274427658289371
Ni 4.23213691442363 6.793264576344069 6.083915519305581 0.024466874793112704 0.9457409600006486 -0.27069653945345634
Ni 0.7373459980844213 7.277624821856105 11.290111728494166 -0.21416620846689569 0.9607369191888486 0.15605387770519574
P 0.2181618616407896 5.771982291347267 8.028787244519608 0.13852409635154853 -1.2936454133946753 -0.45784816700472114
P 8.54752466473186 1.7940014897038443 8.089969209022257 0.14035677868491314 -0.6911549529558098 -0.9636263249215017
P 1.541779331339977 3.4505651014727787 10.45014629564751 1.165600876418212 -1.0476240080903958 -0.8947498136647623
P 4.114973779266593 6.120775056153342 3.7328679686691992 -0.9971213713551538 0.38953729844346463 0.6963940898675619
P 6.854697137757004 3.964561155505628 10.329522925616919 0.3195696110050754 0.637987882014527 0.2655988132155748
P 6.462876157086918 7.7296344589858945 10.312367024820327 -0.9503481197553568 1.3900643530460577 0.1521745972554476
P 2.5507315219828377 8.352004597119365 5.8788146596737345 0.822704417761738 2.385200832760699 1.1760038169190907
P 7.034772808833377 3.955436159315856 1.8863609785014586 -1.4725016337063672 -0.17334403224421113 -3.015411127712336
Ni 5.449983420825787 3.1026621372901837 0.07432377493556086 -0.07954710359670816 -0.7736937921909902 1.0839141007706816
Ni 1.5605287016204543 1.0071271914049063 7.37280715773372 -0.08986519769326458 1.1430134780359993 -2.468287316969233
Ni 6.936540635920793 0.793206410082766 9.199753061542012 -0.8792856565908922 -0.5734423940329737 -0.01978258194356593
Ni 2.5249999406874997 1.5283778443985798 9.465729903217209 0.47968377482257385 0.8748664444772738 -0.12764190222140598
Ni 6.235695530555281 1.886885779277348 2.4353788587066365 0.6819750862287545 0.9611578087763512 -1.1429039490413286
Ni 4.176333703893937 6.949669734916227 10.726940570616732 -0.1053344969734573 1.1153669199633243 -1.3170450232655382
Ni 8.314669289325987 7.105194172463103 0.07915230525767125 -0.7836089944221731 -0.8351755536455551 0.19153432999999273
Ni 7.479700359368119 3.870097015845537 8.048082298651831 0.309285455470248 -0.08155153562124665 0.5533116847213696
Ni 3.2716970169568427 8.393816146824738 12.609341028383882 0.47263123885116676 -0.262048119749839 0.01794295763166587
Ni -0.01365571569096283 5.178721345039081 10.194467534249368 1.0155903766936187 -1.5045720318783509 -1.3776261272827048
Ni 8.58796519510922 2.4253150320631103 5.924182687993571 0.1455745754404267 -0.43568062976874644 -0.41898028629493
Ni 3.517917560911317 2.7206743614693742 11.494016805043232 -0.49257682873515807 -0.28490111308861255 0.5060272978131092
Ni 1.3151797990930625 3.3812060508323096 12.602723817216615 -1.1478170700722297 -0.19333307377162834 1.0634923425812202
Ni 3.2396914333061484 8.414953451431495 8.240851248010097 0.9504211390851374 0.8118021690269372 -0.5484021632348942
Ni 5.6541745047181164 7.7915210003087685 3.6492412374191696 -0.5548890565108185 1.8007767429052406 -1.0028898984078147
Ni 3.0476579314019836 8.107318505260483 3.505002740433375 0.5290918929420565 0.7767570044973462 -0.3082989231872626
Ni 3.386971595688534 4.505505456992452 9.387551838846267 -0.3117442014233857 -0.1988491184938511 -0.12304579821029132
Ni 7.3128627424655654 5.9810400398741415 11.34293501489502 -0.7281464425784944 0.2485418577332881 1.0783474053161815
Ni 0.23450695431823063 0.0629443145130318 0.35453742658644233 1.8231695087781439 0.7012856136319083 0.1779249667466742
Ni 4.626781650133537 0.2925573654021208 1.6854594330365469 -0.47709390260821055 -1.252431915270843 -1.0582606618686357
Ni 6.074505423732367 5.364934824497829 0.2641700016336399 -0.8043616535884921 2.3033420503116786 1.222129921853192
Ni 7.955171678243552 8.928922266669748 11.540129360415369 0.6682040005865911 -0.45590929811079545 -0.9035897805538955
Ni 0.16411646132238059 4.828757312065363 5.772436271257205 0.511965260564099 0.15447727724669524 0.7885072030547388
Ni 7.609720205574627 8.895055365388304 2.637782169713626 0.5489906887485125 0.061275301870713825 0.4406742263285958
P 8.711774596147762 1.2977106521586126 3.747698584367084 -0.0656610896432353 1.254549732944794 0.583414417644021
P 1.8505129088930414 3.2401817316088826 1.7427607772690377 -0.08236297577894848 -1.2496916335215447 -1.191188237969013
P 4.859718741923198 1.1907075873860082 8.178273749264298 0.6922258174224852 -1.3425192562772428 0.9504216533057698
P 8.420955065840888 1.8139493669465603 12.485130309104953 1.239875418762071 -0.13726477002315068 0.5879179619413294
P 6.4857839833424356 7.655426902907277 1.2913431299418094 -0.9894533132869346 -0.9131200886418339 0.07126275210072888
P 1.7681881920247169 2.976364926345175 5.9971517868778745 0.231872110387091 1.446869792070876 1.819079140758854
P 7.06188448905493 4.240780691908867 5.778934539688071 -0.8779268285701526 -1.2087825540120085 0.32465422461683446
P 2.4202395366699934 8.573074654063221 10.531275229433056 0.5167171734267876 -0.5816832938855272 -1.2169154675317881
