# total energy = -340860.4586358256 ev
CRYSTAL
PRIMVEC
9.38473460389925 0.00000000000000 0.00000000000000

0.00000000000000 9.38473460389925 0.00000000000000

0.00000000000000 0.00000000000000 13.73550771631989

PRIMCOORD
 96 1
Ni 4.641023356358383 7.0769062678351 2.10721918687136 -0.3128736870421386 -0.20802744255900946 -0.5747017203613715
Ni 3.713774051056503 6.8560177724412865 4.619169125180936 -1.0777959036880858 -0.3365124095070011 -0.058396180550705876
Ni 0.7095891585682815 3.726293286849312 2.8547470730378497 -2.8082920559002087 -0.09851104629372066 -0.5448180454280617
Ni 1.2762112721083372 0.6896043664987263 3.339157035609265 -1.146326087349 -0.42587752763539555 1.2928717684534443
Ni 5.627387104133207 8.276143947760064 10.043568176462461 0.7320493771773264 -0.4718866473756583 -1.3623391192166474
Ni 5.36450192195317 4.951770684372997 12.148932939801092 -0.003440393140116655 0.08847911597901535 -0.0013362023129202794
Ni -0.07431489690593501 5.440471347547465 7.383343187304259 -0.27380783138892845 -0.7178805418761119 -0.4773283872165199
Ni 7.573583955315331 8.292360768936955 8.114306078644745 0.2528376568951646 -0.6434121383538919 0.9665689524895935
Ni 2.191663966172166 6.796208859617019 1.7275700767973572 1.1991126350224122 -0.5547013659800447 1.4940657330303881
Ni 8.838542930785303 2.6582260407145224 10.132408765392467 -2.250358813246428 0.18335539373362614 -2.226175788242321
Ni 4.665686438564907 2.4801225498030304 1.7701082627629239 0.8542641948458901 0.07210890215110807 -1.3516824108337495
Ni 8.509561063681165 5.766543946963621 9.685153905090399 0.3804029402423642 -0.21703633092583913 0.5879495865102132
Ni 3.879198765689071 4.706650804558619 2.0445169604077202 0.06508593386605564 0.05840235119829297 -0.23675180707689547
Ni 2.5776205562884074 2.5669970368600272 5.620940730020702 1.4059913086889593 0.8297446124379709 -0.19469730110900663
Ni 3.532348364140022 0.3879423999316528 11.88576058474605 -0.7845621023640618 -1.1358532128421341 -1.3972418446311035
Ni 3.8135994716922674 5.7025494425624474 9.20750095134269 1.2013435812354603 -1.2486495654102754 0.18202356229608008
Ni 4.323594097395883 1.1045832479862288 9.624689937799612 -1.9449459533577085 0.19298108974884828 -0.504041377731332
Ni 0.6293487403133364 7.204707581947899 0.14132283954779118 -1.1992995542222378 0.3608736119601849 -0.8522255671493064
Ni 9.210525651264744 8.617232122340008 4.731511904662614 -1.8711532357462741 2.071443714672342 0.8343075492183052
Ni 0.2045693806111182 2.696374986365024 0.43054346361821766 0.7708280406074208 -0.5035731798456617 -0.7004075819023292
Ni 7.718906568697377 1.0770484370296307 4.147669741830036 -0.155524487564287 -0.7171218093332166 -1.0984120372765405
Ni 9.14888671521739 7.916689847807909 10.129992196264544 0.8590045377443529 0.8931552154841327 0.46546454589939834
Ni 5.684005207235168 5.546406230327996 4.220207170025958 -0.724786782077642 -0.6899614468683408 -0.2315574073601496
Ni 5.677464047304442 0.10190132390215861 7.943395048236709 -0.45070589953298507 -0.11958380780361987 2.2407421160922705
P 7.644429315884983 4.731004190527389 5.9871424540620835 -0.1497526180775163 1.5064607642606314 -0.40698506160626685
P 9.15052904375093 6.377199234671488 11.941855958137621 0.5560226558946295 0.4057036237906819 -0.10166424721072169
P 6.350180584111144 8.358804689036722 -0.12664042245794874 -1.3166187343613969 -1.2563736735274105 0.5507693779154902
P 0.5994452223746506 4.227231643782267 9.258487275284782 1.8866027375321253 0.11541913490296898 -0.8039309938089768
P 6.376607996399414 1.3772942471640692 10.010080628426868 0.4177847233249321 -1.035641381807223 -0.3777241078586205
P 3.4480265248608695 3.5124433423135244 10.126159470703987 0.7050034288031277 0.6233968715742296 -0.1877185557983283
P 1.7964352583922847 9.560792096163556 10.13537621843421 0.9775761022333744 -2.223100748861423 0.27290408862773646
P 7.2074197702118585 4.562782825020565 8.377670820756576 -0.8795371104800658 -0.9353719580614988 -0.32552171482345227
Ni 5.41485102242425 0.912413917040057 13.226332365900177 -0.7040806598785422 -0.6988615775714481 1.7964166661643322
Ni 6.873201221269347 7.029776131289758 6.095941557805107 0.2337338461861781 -0.7802380210674111 0.19072186140102637
Ni 9.16818172930286 6.447997671568753 5.014408156168742 0.40444738278607767 -2.282830817732204 0.8782824121373584
Ni 2.4070154682243325 4.8636761818339425 3.6140180774558703 -0.31140712979894114 1.5405926729473338 2.75672061158082
Ni 7.237920157263305 2.5492598886978013 0.6295889895159569 -1.0211460164045252 -0.9235757367575191 0.5205920830011616
Ni 7.082218027549291 8.889999429924714 11.531206254664529 0.9836930137643898 -0.8048257377091044 0.19065604116009746
Ni 7.263559251855475 6.266740909872865 13.332521574985046 0.2850893178400187 1.483188423996252 -1.2821106732821983
Ni 5.825864853595065 5.007150002523946 0.9789188379139264 -1.6559120490476447 -0.49879247062756676 -0.6132708388838213
Ni 2.6972571514058967 0.1976762931374913 7.49993068219005 0.055785482400736185 0.4615929787591341 2.3371551422063814
Ni 2.5620888207283636 1.5801546676268587 13.588798965619565 0.47970280098596735 1.4355309700192889 0.5484469004299006
Ni 8.042464059273597 4.656292319353061 1.0087332008750771 3.0370765285009114 -0.5991081742301939 0.3477928675168268
Ni 4.175653143094652 0.23997516837388497 1.6795915602552605 0.607917802102024 -0.2217404212697278 0.33320725639316806
Ni 1.7500559006051313 6.625585002083989 8.840268783455691 -1.592183143430116 -0.3652133769861194 0.47184088173938743
Ni 6.676140566713571 0.2773564427441377 1.7645177764347555 -0.5247526421367544 0.07264163472612652 1.0295481244252913
Ni 5.832030624146696 1.302131908734828 6.135514167675826 1.7146823251083179 1.5683109647982085 -0.8649828668149749
Ni 1.7408119371449235 5.361273573292955 11.053635886580219 -0.2784250184459656 -0.7680286234854128 -0.5290181022813276
Ni 1.6119219938327498 2.2750567167380593 10.547770544046646 2.3884170257051514 0.5272795223236661 0.0926324760257566
Ni 4.870592731143763 2.443062233351904 11.52341786352176 -1.1706073284938678 0.8290717547406625 -0.8191298130366022
Ni 2.5758562262066627 3.4853120749394533 7.96313302178951 0.10886050784884477 -0.3655010834298673 1.1944933910828461
Ni 6.186248042260479 7.747548778322304 3.629237301357818 1.1880041838140767 0.1896224576892605 0.15194654040504155
Ni 7.989224460583488 9.541741085174497 13.588551208629363 0.18130853850692644 1.683619285154926 0.40094476894945785
Ni 4.9820739920004184 3.781278446152212 8.048128685004137 0.6002607997773985 -0.4747768244392598 0.776342799778063
Ni 6.231116457796775 3.0772825893324414 3.427050704830504 0.03353618408423256 -0.3148470087184255 -0.016505968074823185
Ni 1.9070906626149322 7.700024482928912 11.70214450080255 -0.17773470511273906 0.6378780959095401 -0.3484433566166321
P 7.056841705522487 6.189645316141285 2.134621673071827 0.4687941244932636 1.3433373813031637 1.8519967174224814
P 2.040260044848786 0.3433958807879295 1.4733667124823344 0.14211387058533592 -1.1660593041118694 -1.054760619135177
P 3.438838869807526 6.151843605666446 12.316753577145732 -2.6923350462158986 -1.1247807570780566 0.5006989436216602
P 5.337764813427149 7.148314712473395 8.14515557781875 -0.002268741429518673 0.5623318859421089 -0.5644628162421828
P 4.1740577382335005 1.675278336289462 7.354773240134807 -0.9072111793565667 1.829037537523147 0.2874819864419113
P 5.310840010211579 3.2750564837084974 13.473790921546314 0.09153641474810041 -1.3623272921421055 0.7751176691217102
P 8.511663244204096 0.24535919054355107 6.66367200848694 -0.9128676063113955 0.55234469282241 0.22037593682203338
P 2.1862771285821565 3.657597030474977 1.0561749106050684 0.5499476533451431 -0.4159492127780901 0.10395715700995645
Ni 3.69224547016542 9.083127880734471 3.905170079881739 -0.09428338136561827 0.4339978427496848 -0.5915861548215361
Ni 8.705936632620093 3.9991919807167 12.096408457878157 -0.6625077215327623 0.9960980722969618 0.6722138930769326
Ni 0.28829716619785345 2.9644499267110445 7.44329944045982 0.5504752437138392 0.18892106074686174 0.8623253745874697
Ni 3.511392252052059 4.9667393358644 6.275245356256255 0.2567364777289385 0.4432165331344754 -0.4865087681642073
Ni 2.1906785690520425 8.669232936079105 5.6528760429737375 -0.5187018079569842 -1.179583306740233 -2.489215325371152
Ni 5.003396108732999 7.329834246734649 12.070873533838688 1.9736885727080395 1.9804639437586604 0.22091612559621956
Ni 4.873577076707566 8.329693242687927 6.137478392601939 -0.7971985601811497 -0.523428266898376 -0.5521580307329007
Ni 7.11146086018077 1.7257963619811347 11.942007052362706 2.2093800568412205 2.038647494077928 -0.006370422302718061
Ni 1.0694937257753494 5.0142636312577915 13.594594977632788 -0.01663812277731328 -0.26666659235845686 -0.012211454464527358
Ni 3.140132156127376 3.832031090205819 12.667778308590316 0.08523772622358224 0.4962864163762614 -0.14478704654212485
Ni 3.484880377153494 8.013934466462398 9.493694060070716 -1.0881602776415453 1.2241760057489433 -0.1076430905019759
Ni 9.065897508234025 8.531099029306723 1.986758612066758 0.09934794037271923 0.7975695703673232 0.2714997520810421
Ni 5.81496917686684 3.623577367994518 5.81546281390035 -0.3922600966912663 0.1337968660792083 0.28161112948343114
Ni 0.30981823930135405 7.760199400397796 7.2708089592392415 0.4814251829937128 0.6464218717144932 -0.7514432083229059
Ni 7.90620709939669 4.868124545976214 3.814913334519099 0.5306317266253506 -0.9745707397481472 -0.6320838578252662
Ni 0.3928768933198529 0.5869944951435263 8.533101731644194 -0.2205913952669491 0.2770412507245616 0.09052957075014086
Ni 9.49950978002634 6.195970627179031 2.5200264408007995 -1.5560594011243651 -1.1968292383048742 -0.6402360546187554
Ni 0.8289019803463014 1.1947705463137366 5.820764250406615 -0.7148996048709172 -0.16429554888869768 -0.13256582188558458
Ni 6.601503773415063 3.724388185750406 10.364483864283303 0.3435078669882278 -0.24099978371997202 -0.9304572943687007
Ni 2.599834222796338 2.5022048300282775 2.95798290618269 2.039816060464732 -0.42083790832895906 0.2541818296278848
Ni 3.2973921517646336 8.128381303413903 13.931375559087622 -0.4472112561161653 -0.4419518074894389 -1.312889349225952
Ni 0.693966391083807 0.04409511341536189 13.373728067128273 2.2552891606685095 0.9914839705637183 -0.332637242822311
Ni 7.60964010517738 1.8761116541051401 8.28097239364867 -0.965670094824408 0.09319940427282014 -0.7807540414718812
Ni 8.07455046645172 2.5529011656750202 5.839746752833988 -0.2935857853468041 0.5663320082404376 -0.4705267909136542
P 4.241280591294888 3.5879341464494736 4.338455762914244 -0.8436095433455213 0.6438739084816588 -0.9713589176790689
P 5.667563152430819 0.23559062042605855 4.416418506111532 0.22565184050899204 0.05837046951909303 -1.6894063241503485
P 8.887653246305371 1.9417109481019432 2.3702545248030336 -1.2536326204471633 -0.8560842787737644 0.5274687555163367
P 2.3150919940185117 6.898877854799427 6.805065233543312 0.5782714399905008 -1.2348954490489765 -0.3068727322636973
P -0.008379629414842002 1.9016569013525362 11.934658805266928 0.08594992179925842 -1.3817167524123108 3.5721542067127574
P 1.1918143549533655 7.550647664252644 3.6782040304403822 2.50032094836601 0.039270001244216236 -0.6938456124140955
P 0.6974509429952537 3.8752477924740987 5.4290970493608945 0.38742745118931343 -0.28210940927608835 -0.3006650607910886
P 6.588824997136139 5.8837029721790834 10.613550024945415 -1.2562536030097784 1.7034309205642149 1.0466279627257138
