# total energy = -340855.9673891633 ev
CRYSTAL
PRIMVEC
9.42433656154147 0.00000000000000 0.00000000000000
0.00000000000000 9.42433656154147 0.00000000000000
0.00000000000000 0.00000000000000 13.79346918435460
PRIMCOORD
 96 1
Ni 3.8007218232956905 2.736120497878244 8.18680992089884 -0.37499205363943805 -0.6340360964556306 -2.4377588093630727
Ni 0.5262888784476484 3.1245351028883324 10.509864576752271 -0.5881503896671096 -2.190244878673667 2.1946453217342072
Ni 3.8375992520675757 3.434086859965088 12.396935289050738 -0.34371252679986614 0.9335945544461017 0.5712484717054485
Ni 4.81195313104506 6.545399618726931 13.83733203288856 -0.05111867305268616 0.9989972482216278 -1.1899399673842086
Ni 2.7197410010201972 4.2455128093212195 5.09550031638395 1.101208369074755 0.46755845231394966 -0.7591943130232344
Ni 3.9649314626826895 1.7721051160545447 3.2176852449740245 -4.527186876427978 -1.5538685641206338 -0.09550928335291939
Ni 7.368634261732736 8.261260294477205 2.6690503222225135 -1.9646740279142552 -0.4409758167294147 -1.480063248103709
Ni 2.103200906397982 8.866076514478356 10.009437962561154 0.0018468234007516578 -0.06992346446401505 0.056264736029999866
Ni 2.4307060245303056 8.335797371951479 13.229757309590314 0.10263355310252648 1.4803717804830632 -1.3758142708849468
Ni 7.311060989980257 6.82647103086409 13.547559130849768 0.7776226949317511 0.8848240699106181 0.13018575168918226
Ni 0.4985087617109027 -0.175694135860656 5.794925565762868 -2.6226481232427217 0.42721552972052873 -0.32813575540753165
Ni 0.3936865788549627 3.3911401584794034 4.130950574680014 0.00481207667666268 0.9483416308482894 -0.160729171693678
Ni 1.5109755999770094 4.6736415683933386 11.833430648150422 0.42793003928905005 1.4760595262609548 -0.018388786919832846
Ni 8.968339989971257 0.1875254479179585 3.485734108918751 1.1975496614106667 0.18407453128783782 2.8151612722162165
Ni 6.359721340765345 5.5589920133504584 1.9326581128748452 -0.89367740653619 -0.3909555189472299 -1.4414244526855886
Ni 3.2737694715575896 7.763806116022007 1.3741021910770357 0.6087338702454161 0.7762196439366373 1.0637404540362843
Ni 1.829725509489583 3.8893954055381306 8.948664802634926 0.27384048439907677 0.03047939953577976 -1.3596039796736714
Ni 0.30060617685946023 3.8192217958689616 1.5707730151463453 1.2387006817276796 -0.23035978750762262 -0.383495720235075
Ni 8.666063820681853 9.165968326630198 8.311999979824751 -1.9250067912316204 0.1990938875148055 -0.1390280325711606
Ni 8.854371488530315 3.2840608470288135 8.626352493920775 -1.3620694104950284 -0.18970807542453133 -1.4897287962179313
Ni 6.105235981928847 2.8703701714932466 9.231858575354613 -0.8326021364914241 0.822736556551254 -1.5884848686429223
Ni 4.694280865354858 3.690607875488201 1.2450905636954637 -0.4677044909735107 -0.49847468227683184 -0.05928501091356242
Ni 3.797781430303912 7.808845020213378 11.350135592871016 0.6948696828032356 -0.1968418582558352 -0.28513765457945084
Ni 5.02682800352116 4.480320153520432 5.872004386794459 -0.8878186337625679 -0.42524503625771926 1.0695488331879452
P 2.200968973374608 0.536847905075816 6.621995913729102 2.0295671290432145 0.6098355879500271 0.5842325426699423
P 2.4833315196139263 2.728109811842951 1.631270658518531 -0.05874507924969238 -0.38350908997151373 -0.07814662370475574
P 3.5154660057471547 6.637560205478851 5.709958575070641 0.4576666471215344 -1.2090548338367886 0.5109386190717975
P 2.8986808783756244 1.4533363578689464 12.403197760663037 0.11005195705378465 -0.3264655667939604 -0.8951244233953617
P 6.3121472900522155 5.070311892188035 8.072434288120574 -1.9732023771002403 -1.7459541386384059 0.4187655991809627
P 8.949858866071011 5.447304201345446 0.245824393581869 0.5541910020025294 -0.19744786727095026 -0.6978652750964497
P 3.8976982460052993 5.6333594527675155 1.741011402600141 -0.27750662039675433 0.4280706786319724 0.2800538122986403
P 2.757730501500512 9.046071917523138 3.7757002098560393 -0.42776754556925684 0.22651290295770668 -0.5515365950988179
Ni 2.6369199317517777 1.823514871728103 10.193111684146611 0.015010357365903181 0.23905165885466573 1.1072993124638413
Ni 3.5370006146773254 7.5658290789121185 7.638602863024979 0.4129279094532631 1.747103421751501 0.8460114679187947
Ni 4.054396689192147 9.308728176115634 5.700123337486603 -0.4611445783678058 -0.5560483669262424 -0.9845918714295753
Ni 1.5889054385956443 3.1737207151450333 6.720095717350954 -0.7249459333633257 -0.7808121484033262 0.04102272226926484
Ni 8.67293416199918 2.6729868675836213 13.019531462315635 0.052680875333483465 -0.06303445065366564 0.8554762128761203
Ni 3.3796895896171906 6.925247501847511 3.601019190170435 -0.8197715603856592 -2.368767369795024 0.41761785872976465
Ni 9.367545460287712 5.546184340030501 5.678177827484504 -0.43329001804938283 -2.0773572519432997 -0.31470739781676765
Ni 5.717339715426925 5.904516462893936 4.162827450498574 0.39846596839166215 0.09031334097427672 -0.7136089110839516
Ni 6.218940601947451 4.846823176139865 13.18808760570202 0.1694819781856436 -1.932426480734459 0.12344894718598094
Ni 4.858895751211879 1.6159061627028386 11.121770725111482 0.14866067056491816 -1.672699552918629 -0.6708699774545285
Ni 6.521914172138753 0.32803476584430424 9.287363205242682 0.24735040852834816 0.8564650591519507 0.8147998182026805
Ni 6.82299345069112 1.1930738807505257 6.770041873564182 0.25606413425226227 -0.6486957553503344 -0.1526998736312983
Ni 6.551930683929823 7.449513917679661 8.552930315455882 -1.626382157909328 0.44034975310964164 -0.05312747595259882
Ni 8.408157427691458 6.604829484772294 8.058627635130334 2.9798897948772747 -0.9139960634888838 -0.6692486398010216
Ni 8.312509836430056 6.99269747826468 4.352929512018943 -0.7175650675182222 0.22877110286426405 -0.583976460795078
Ni 0.4715391379141984 7.341228291155521 13.206929681690681 -1.7905154701885484 -0.8568646085832146 0.6629424950773356
Ni 3.9065194249806336 3.886860259016373 9.920897263463536 0.49001189622145935 0.4074614870220531 2.6558384939517614
Ni 1.1853459248105955 8.217531373061014 7.855436112628295 1.086717888768064 -1.9037226850418634 -0.5623061749104962
Ni 8.111300251896514 0.40343511254308895 11.911046656363203 0.6651456733762415 -0.0004874811593798057 -0.28448973658280685
Ni 4.888667230253632 8.504766301277094 3.3943519723627307 2.1769342776076894 2.039475646406178 -0.04691980447999016
Ni 2.301960163438375 4.46105680968968 0.24704484516018724 0.5860104605059714 0.16949200548797264 0.9633967254091987
Ni 6.941947426146969 5.7511542348323745 6.361106718232625 1.5109622516754107 1.7665808137498222 -2.458154599410605
Ni 1.2986735713687145 1.1338796231179646 8.443161298364736 -0.80446938281095 1.5868082522714477 -0.21443925962262422
Ni 5.538814508878031 7.587655842274164 5.88745275920511 -1.6772030972159373 -0.43668618821512534 0.06285035966731757
P 5.9135355529360245 3.3167350217162976 11.715855453126293 1.0725662798580302 0.1142359132281452 -0.6626247067266008
P 6.687037972167427 -0.10396174093238435 4.794444598672863 0.08385010184743623 0.4108766833511892 -1.048326176363743
P 1.2612966527616876 7.242291606451393 11.203758683032232 -0.09393602532852853 -0.4510414284955329 -0.009429777954332147
P 6.992150866746977 3.2530642042404847 1.0597496769810122 0.01133419406589661 -0.45488239950817794 -0.1197784403129292
P 5.297947316301531 8.642578374093674 1.0973518372306788 1.6089215392307195 -0.2714871536755518 -0.3544011168619638
P -0.018386880535125997 0.43466547887691803 10.214146803241642 0.20522416878225946 0.12643939727287257 -0.48859213305579724
P 7.667583640233367 4.5827155697245034 4.387854218265519 0.3155810586709726 1.2197825046669382 -1.3910969080756301
P 4.814290366500063 8.362364576579116 9.394883575642039 -1.2078510433366747 0.9494636602678743 0.37359594462285983
Ni 6.041998683932591 1.535262115168716 13.307511855549823 0.31498070608281237 0.671970666717875 0.4525486091686787
Ni 8.396386431387834 7.383025223586727 10.780630476913439 0.5266987101195316 0.5225651475671323 -0.2752661611020098
Ni 8.196119280505503 4.957446038119009 11.684612835154999 2.252894692294404 -0.5831825041388731 3.473870445938495
Ni 1.4893090503356692 6.489862003661068 2.1549678444253493 -1.530719636807996 1.1819515498620934 -3.441846841844047
Ni 4.661493598629228 5.939537297372935 9.476471941694676 2.77328725769025 2.0756793500202444 0.6474048044530528
Ni 7.619651464732777 8.06713781100077 6.234220278734534 2.26952998685824 1.1678701320683629 1.5454294322143447
Ni 8.579868838942096 1.8198205318153557 1.9748527523068626 -0.6828155798521789 0.983625650861564 -0.3863612147083281
Ni 7.94438582793054 9.58379628589458 0.38870581700831275 -0.35748129844918436 -0.6172701898512015 0.24889769841081003
Ni 2.3717473753105476 6.119014361909552 9.60316518229427 -0.8805727508334319 1.2307742277917513 0.5989297396708008
Ni 4.594835266479077 0.6271283366935708 7.923023684358541 -0.20313720434624372 -0.5016818763602199 0.07551458539854737
Ni 7.649752795552455 2.4454362624987334 10.762906127235114 0.5088758230054978 -0.21920659910428053 0.6605603679984043
Ni 3.491113520199863 5.310604200237295 7.645733316030041 -1.3176587455901372 -2.0472653176539257 -1.881853395772598
Ni 1.2388950048724028 7.2300399689856505 4.901178036973458 1.4335180533543184 0.576244382258143 -0.5594311673555462
Ni 4.1103960967471025 2.0885460631216515 5.795311963559865 -0.19733448162153758 1.3120231445709145 0.272633351464853
Ni 3.7660685379406633 0.6776738807089687 0.47023575217457364 2.3136958827421763 1.2673728528513912 -0.6929475260798582
Ni 0.14899970269010532 5.376452039447406 9.665194280349672 -0.24735915027909658 0.41759600435289373 0.5305059996807637
Ni 6.025279910960109 8.533576497994614 12.399377134641027 -0.22359058710458915 0.824423971556006 0.5162530893061754
Ni 7.08137106050712 5.1557906243528695 9.953670393684394 -1.0330191136930273 -0.09447030056544375 -1.3393879097371126
Ni 7.235703995229429 3.4892003798879045 6.08875470223647 -0.09079028061069525 -0.9211367882987233 2.142999829643774
Ni 5.783093311271914 1.6990570837491823 2.2209005026640685 3.5863348690885135 -0.6563036496045794 -1.4634444086001055
Ni 7.9098739076231945 2.0125105161419508 4.412006907878754 -0.5185719672473392 -0.5521544311884748 0.13495489094305146
Ni 2.0364954525652696 0.4272654898476095 1.7571364423723608 -2.5757838545910157 0.5406014362435528 1.0348222283400372
Ni 1.7376874391123198 1.4630057271303714 4.492587812358245 0.44641987056312143 -0.20124178709574372 0.2838168788854983
Ni 8.543980965503984 5.590836846424877 2.4330159294094234 0.47929450980395516 0.3987408193196036 1.092864882206066
P 1.5470896574914137 5.321489308908782 3.6824972914858796 -1.314489603833536 -1.9415621244871402 2.4739550567779713
P 1.0248400496728556 5.694570518413668 7.384223056757416 1.4582253262930112 0.0468347009653516 2.9349939628058483
P -0.011500517845727448 8.704703600381501 1.7396184856636512 0.4247845516815329 -1.4447031234368601 -1.513987925875612
P 3.6522508258839146 5.6262817760469215 11.503256557917867 -0.7824208876513429 -1.0840372566121073 0.8344199064264533
P 4.891334317486559 3.288414890497408 4.083238928653808 0.6814423536537361 1.6280767720029317 1.029615230217801
P 6.307651881535938 6.870624047423323 11.083217649307743 0.18813661717235342 -0.20759138346285536 0.6883696769011887
P 9.038994240802543 2.222381065930121 6.683681023501813 -0.7961958299482481 -0.6558657907362124 -0.573423110759264
P 0.8146189145664344 0.8429541247237434 13.228378529158592 -1.0455367865440637 -0.3332589355667099 0.4332879611668538
