# total energy = -340868.5906861918 ev
CRYSTAL
PRIMVEC
9.28142309408769 0.00000000000000 0.00000000000000

0.00000000000000 9.28142309408769 0.00000000000000

0.00000000000000 0.00000000000000 13.58430087882156

PRIMCOORD
 96 1
Ni 5.316269275325117 7.4872776971825346 3.1556606881756037 1.1581835009082184 -0.34530069722259243 0.046363674866204026
Ni 5.720530944702617 6.124783332656905 13.418328026871986 -0.1719648925084974 -0.3723049937255782 0.5810263770278188
Ni 2.948671028435905 5.8425538156573875 10.145489370657744 -0.13239690040788812 -0.6074354631489668 1.5208633128392064
Ni 3.950554256945278 3.994965867009823 9.05241523095816 -0.2779822744815922 -2.3740065067067757 0.3545708096706087
Ni 2.0511109968179615 3.331232730346131 0.809825522431501 -0.714949484272246 -0.8562884243647704 -0.6257846550801158
Ni 2.3379255368837044 5.245758303191293 2.145056634417193 -0.08041227981048087 0.6504801009442668 0.7966568287450666
Ni 8.28450554388977 2.7548377860977724 10.510703164444324 0.48719910936301253 -1.4989431157273474 -1.3871492362817919
Ni 3.9820554073233483 7.869254669430468 6.799010974545255 -0.8442114385955783 0.5041259670253383 0.7405296467341956
Ni 6.739102172145334 2.9551958689532247 2.9652495065753595 0.22204021189833373 0.23003454295771997 -0.02824202556482878
Ni 6.402687706440107 0.4733210269211274 2.6180342486795136 0.2204085898321817 -0.7958600438753842 1.2407999874588695
Ni 6.259354687792923 8.736093190220064 6.010224582248406 -0.2088291125246984 0.16354350121402156 -0.38852582645981476
Ni 3.754280000302657 0.18115481823193239 3.1563530823471426 0.3245596080204991 0.5118847850351507 -0.1261077249650667
Ni 8.626646647716173 0.7406297279666724 7.006402519909988 -0.6551656793453943 -1.540099021140367 0.41739648674757795
Ni 2.198416464599445 5.604893692917001 4.922610703823842 0.615435707745624 -3.042439592585038 -0.21162904386733875
Ni 5.267848090433428 4.9551198167626245 1.9757551217680045 0.064654759865908 0.2149424245112879 0.6040984283559339
Ni 5.83586190952227 7.793471848912806 11.810544209726544 -0.5452448485528352 0.30461298969524314 -1.8222122870711972
Ni 7.8376235791274445 9.00798320176255 10.819175905572893 1.3793225411485213 -1.078860083286542 -0.5308528414972212
Ni 5.992894308828863 5.04558584880006 4.311317608302193 -1.5074912624076748 -0.527855192321478 1.0542579684671458
Ni 6.875242087804008 2.3306210568166623 8.507439760563614 -0.7213145072583255 -0.6984131771801197 -0.1557736274606156
Ni 0.9259713962090783 6.533184516786505 0.2112795335478143 2.798611081167019 -0.03400643885243175 0.6012992683442417
Ni 5.762000343609281 0.56074275214536 10.239981684084102 -0.9101327238787357 0.537854469626035 -1.2409015460337405
Ni 7.206421830818241 7.027281081423092 4.43614346906668 1.1101532369728688 1.024842748529822 -0.30725094153872246
Ni 3.867726836210481 7.107648925006978 1.4393928121132502 -0.9389223944169185 0.24356085957892892 -1.402014326319082
Ni 9.400689499242377 5.601645194793158 9.626664310160137 0.7568942041351481 0.008198733760708461 0.3199552764792683
P 2.866966659909637 3.6221867851639717 4.3192504407206185 -0.6275908550509192 0.5008830346080083 0.04392215530424694
P 4.073041199060598 7.908830658002093 9.774719716937069 0.17605551763810323 0.04431887652203335 1.2619771357571168
P 2.254615482141937 5.111975869028208 7.908154970392333 0.32808767577841563 0.18193357368543506 1.123314714055491
P 4.976346431646139 0.8701937552803654 4.794075986344247 0.389280188127336 0.18660115436443347 0.021835607817852716
P 7.48221932153255 0.3117073171175949 8.644301770948102 -0.6216474929832907 -1.591053400701047 1.4889512946219583
P -0.20569118863248248 7.731564756095561 12.229986574907926 2.075798649206928 -0.6206280505798409 -0.7673673357523301
P 8.402852971252992 5.840409806895651 7.757573160217373 -0.6226036862489729 0.1033776303574026 -0.09773663002154136
P 4.699611517187521 6.753980293552537 5.293435117941461 1.3273392061026947 -0.9623310031488459 -2.694359532845095
Ni 4.554106645508968 2.8093754288854984 3.436896164749226 -0.6799487998273451 -0.8840918197302838 -0.9000432008532178
Ni 8.457483428272829 8.280690878950058 2.265440406032904 -1.0074458932096133 0.4311678295000575 0.25762787919495633
Ni 0.7860363065994349 0.4974675775468162 11.3882088249303 -1.2819425231354502 -0.43083692852319994 1.4449520062228727
Ni 8.827311017537587 3.006197289497567 12.82963890943836 1.6410675278356446 0.5164040130617428 0.6329269225518519
Ni 3.8775837076605435 4.882474117290274 6.355346879210176 0.8952959159762194 1.6725404016329453 0.3956097298897896
Ni 0.04392897605757434 7.879946868969519 8.665453206303606 -0.5437410103137991 0.6752315968573339 0.3632313135590841
Ni 3.2500295586732557 0.6381043427512099 9.055892980235313 -0.8617551039062966 -0.03776513456391561 1.0428684956832814
Ni 3.266290612138895 7.034613405759767 12.42413352935059 0.6706187806756708 -1.0497911909450437 -0.8170117382523348
Ni 1.2613546957955653 0.6647076861008455 1.4649037319509532 -2.986386972565844 1.1197485939707876 2.5784811989175207
Ni 4.808863149803982 0.915156681883643 7.478945763566037 0.46829147382523223 0.6095802774061115 -1.12314810657064
Ni 2.368127288012238 4.848132851409644 12.353427647329335 -1.6009632036155912 -0.5211348428785089 -0.514072793825405
Ni 8.57951558065081 5.328734226697464 5.624796776850629 0.8995670325477475 1.2464245327344985 1.20922941174144
Ni 8.006842487110054 1.5938152752129144 0.8418677797827715 -0.8819955993228875 -0.8697525202894764 1.0465747408902752
Ni 4.715176463912337 5.017555950702896 11.518794736939522 -0.9996827043244267 -0.0710066702258648 -0.7499882210439341
Ni 2.1800763723345464 2.1080710910637532 11.018484259463182 1.4075015746858988 2.186995518498434 -0.553234551626531
Ni 6.787634734115556 2.0236843912295117 6.135023526885582 -0.18971681717527974 0.4510619973208232 -1.1426008159786127
Ni 7.556173701677648 8.416116125021484 13.464120712710326 -0.7530439771511224 0.9292907848644254 0.6213685282902912
Ni 0.8201882314465615 9.264577427853338 4.0124084456502205 0.07061200589060743 -1.3193227635561213 0.7364009692778027
Ni 7.242238842989418 6.9010630071769565 9.531642027468433 0.22803345336729114 -0.7329909151549892 0.5366812752535401
Ni 2.9735823683341787 0.2675787904609845 5.443758904551156 -0.31221497041221713 0.5082978390148408 -0.19180326739066322
Ni 3.0813025661208275 7.343536295914068 3.7275318667509305 -0.9849248292889617 0.21614235835666004 0.04330431921458994
Ni 8.574930557584585 7.666037908226033 6.459742471202651 0.4769388650875851 -0.07828623460641357 -1.0564405779407613
Ni 3.706304323725095 0.13215725695884117 11.554168097081215 -0.875910312360756 -0.28188340930821126 -0.36982722160904696
Ni 4.0741271255762825 3.127412676632982 12.679110931518025 -0.8124300324189234 -1.3680796212448503 0.6937209139107731
P 4.523440823219886 8.492390860969328 13.41243246684837 -0.20506630304815648 0.3772497393253632 0.6909443796069002
P 7.878851661030622 0.31956497000801165 4.75173413365575 0.7460516049936894 -1.04667269992072 0.21310100042717492
P 6.940787498519957 6.891308231382216 1.5106824956544762 -0.6571009486948941 -0.4065001515500483 1.2775366807582706
P 0.3627356537892488 4.1661895624060055 11.242598145027143 1.9402477765510908 0.6525750358000826 -0.46916616312070164
P 5.593672452254925 3.9715302734020956 7.4239022832133115 0.9174210300100328 -0.4371057922510472 0.29447615837155733
P 4.825244861771363 2.5404647541937377 10.65829728448767 -0.20422503809378376 0.3359292833100215 -0.08344335332732082
P 2.3027489429140857 1.97902218273827 7.503017134663716 0.1368960738298223 -1.4526051518927565 0.7185248603283302
P 1.1945562929461333 7.751000056299356 2.265413489905592 1.9745614622312964 -0.22426987255980085 -1.095635760082984
Ni 7.912320473129421 4.9828527093170365 3.0122237175884568 0.3833959614324171 2.0333229965412207 -1.6739743058659944
Ni 1.8181751184919648 3.6243215125024975 6.299352981120647 0.07682739067269995 0.9689544220026344 0.05299300725726358
Ni 1.9893802510417251 8.57583085563605 0.0021068830688927478 1.0184409587685364 -0.9807552712923044 -1.5034798272554366
Ni 6.587620063918909 4.3184049030660985 9.504690630748385 -0.2846445169931162 1.0830836344495864 0.4959773697762749
Ni 3.4508888383821015 1.1801608055459012 1.1411964627638809 2.513285478946478 0.7379153490398002 -1.0951529069092947
Ni 0.5033984069786333 6.744169829218531 4.121463312094608 -2.183734845469291 0.46288932897305446 -2.0298036705340525
Ni 0.5372291945826599 1.1552123399547836 9.098574533013332 -0.13471989211410992 -0.3413607387382379 0.17908633404462707
Ni 0.31664039355423146 2.0747600631595415 5.687407401547267 0.8051175579179103 -0.0878078009436036 -2.8965202322106824
Ni 8.733076727676496 3.367894352029507 7.342695398971152 -0.6546897681502402 1.122812320497776 0.5096188718191095
Ni 7.132300385055345 4.0086652476692315 0.773136984620813 -0.1767772262954762 -0.7781328017989502 -0.030665290294340734
Ni 1.808021241499151 1.94383630734544 3.355797873158635 1.462941757932074 1.0238598157912624 0.14997296161843848
Ni 1.3737434494573375 7.757339268352456 10.61751656718326 0.20241189614444496 -0.8851930232142626 0.835534993867503
Ni 4.99838981177222 5.887707939578811 8.446799582014668 -1.0473393869704413 1.4749215560017694 0.8514619495104045
Ni 4.449523568767631 2.7188815525784307 5.883048665126899 -0.6038672861817341 -0.789235596580331 0.16063969730366529
Ni 2.4758567672220972 7.206858057709157 8.53986626883582 -1.3538850749120233 1.1554419336073392 -2.1196578124837235
Ni 6.650186137784133 3.596746404142672 11.948751098334304 -0.8770274566843347 -0.2607918787452347 0.33369062378748987
Ni 5.623874203383458 1.3323575833595722 12.549449449260617 -1.4859801278087763 -0.5526789362333773 1.80502651932053
Ni 6.395466759181964 6.087722609775458 6.648618505403799 0.5565260778936093 -0.024503127347686834 -0.11153368380563372
Ni 5.690180690802707 8.147112636097614 8.358678965622648 0.9934308098774439 0.7403095603035895 0.2749303750291459
Ni 8.231118797580207 5.9268291384130976 -0.027745886546907406 -2.343079992331248 -0.3764110454741518 -0.8696633030097796
Ni 1.6170281146635783 9.191087118868788 7.312782300104481 -0.2758991667003184 -0.8884462400442377 -0.6798768089388292
Ni 8.672255561374934 1.7547644351145406 3.34446803984499 0.21184784474636417 -0.044676002751135965 -0.5828549455961253
Ni 1.1960691649295232 3.4281864772080413 8.969605444927463 0.6457366727220105 0.37444980798272287 0.34066756932595527
Ni 0.5026336177060484 3.9612186122146955 4.003157651135835 1.3797071781814496 -0.18361713203544505 -0.6346367061541069
P 7.599852079308526 1.2368238942489418 12.222569789620032 2.2592525161916313 1.3376881534371865 0.5049525766916916
P 5.66731126401085 1.9873012122424651 1.3655071144999127 -0.8038780290838543 0.7311158096194634 -1.101877884337954
P 2.011804169519456 1.3965571877099294 13.105345442205202 -0.1668525109825965 1.193375475428319 -0.8722138373457752
P 6.681910042319267 5.697160321057367 11.34006608273494 0.8432123079071026 1.0251078292657507 0.10728005073560233
P 9.249819964947877 3.8247724095900595 1.5889824381469564 0.234603393275325 -0.3783452863823871 0.008211846386831019
P 3.8392328669527687 4.911107307896151 0.36582915214546885 -0.562741976896334 0.6696903553241306 0.4453749742383749
P 1.7567228154120575 7.456769659088039 5.600168520360291 -0.2881635858899682 3.859491440046688 2.6330590341634013
P 7.766862008566923 3.6920294948266057 4.800488521640713 -0.8312319956167749 -2.60438943414285 0.35037579775265465
