# total energy = -340870.5356274728 ev
CRYSTAL
PRIMVEC
9.27100271645856 0.00000000000000 0.00000000000000
0.00000000000000 9.27100271645856 0.00000000000000
0.00000000000000 0.00000000000000 13.56904960285317
PRIMCOORD
 96 1
Ni 8.794667808065622 4.020323945631202 6.987423051625659 -0.3539591442285388 0.20024188507631963 0.4385687499498189
Ni 4.407202886357349 7.216604091418099 2.14585051345015 1.1233237129165559 0.2642443560702094 -1.3358397873745382
Ni 4.590601860846797 0.3321123467517505 2.5804259815272155 1.4186660759431502 1.2002608896942426 -1.5791707903308478
Ni 1.6885369842653701 2.8293060477575875 8.15790289732121 -0.172000116621807 0.1442013492419839 0.818359767639797
Ni 0.8948751872165036 5.145304491604688 11.89168425554289 0.6898645162791603 -0.001265754086301046 0.46144539743767626
Ni 4.183901516447692 9.230998276944975 6.517852329832826 -0.44824406825605384 0.5261901459142292 0.5916738294393359
Ni 5.542770917361012 2.6288762413938542 3.1276932681570853 -0.2835358573099698 0.7460829724522571 -0.003572290732290622
Ni 7.634383283988009 7.722012801067893 4.821178186538572 0.19108567249834832 -0.43391865277231717 -2.2348044104515963
Ni 1.5449384241669448 0.5352678278955814 12.558494631686422 0.022800799944599444 -0.22113775468872238 0.7440595142643249
Ni 0.6689074769437307 6.023620740981965 0.9715232016534415 -1.6621320618154278 0.9581989832583433 -1.1380286232268981
Ni 6.685737208482084 8.514729882946378 0.6332252419313463 -0.7167379436312366 -1.3146420702510004 0.40721774644236325
Ni 8.178275925652043 4.888831474201187 4.315161299114715 0.2962322218307156 -0.12922467332749357 -0.03876863612776549
Ni 6.0243253371836225 2.8052756088799895 7.7851066096255686 -0.933633120993521 0.038682247061546285 -0.10935390254549553
Ni 5.919136541078211 5.654180556246852 11.856839192070108 1.2653599361864207 0.6641863947867658 0.6103688347456778
Ni 2.425971077321665 1.373851341201205 1.1174645441223796 0.13997188454166862 0.9709035753092053 0.11109788181979577
Ni 8.251516846613859 6.381880096517083 10.706970639473584 -2.7592050685655702 0.2442946524211599 -0.25303743161079645
Ni 4.469003390044876 7.7062706385624296 11.31696738425685 -2.4637068966874023 0.847877574593256 0.6707907874771608
Ni 6.718204259774271 1.5524757493241543 1.1413726057649531 0.14723807918577866 0.4486652149538724 1.1142960554966486
Ni 2.2372969023224365 6.198388412001102 2.5610227000739263 -0.9356959170598207 0.1212370271363267 -0.07070945070042016
Ni 8.405545284697354 1.5793338440110378 7.52162286001557 0.1807171847798307 0.0707834984714652 0.49585601370706217
Ni 5.319803303546877 0.8749128643032148 12.63989496208349 -1.1125073390273421 1.3891631813880267 0.35307854139579836
Ni 4.425123734486361 1.6310011417984047 5.01501260161468 1.1707281703424481 0.6310016805046811 0.6321609909201048
Ni 6.497971591742887 5.560033524301632 5.8049205696891875 0.18944890822587374 0.4092229497978501 0.5235390814446275
Ni 2.313550899146605 3.4810482632885584 5.766398626564069 -0.6361279459876529 -3.3303596950056322 0.3871615991224365
P 9.03294184726051 6.6913461650873876 3.2369242214193776 -0.24670069075949125 -1.4448383634631439 -0.90562635136795
P 0.6608361420336853 8.617359882319453 6.535071363060975 -0.5414969514746287 -0.28818775425968435 1.076694957314423
P 4.589220481451441 2.16039393531253 1.2617167099078697 -0.5802727866912458 0.09163823043328734 -0.5940623842761704
P 7.602982398000962 0.9270956298381104 12.81148916889437 0.0065043767774210556 0.11932335505338158 -0.18109282295169457
P 3.9096096319443663 1.5155678877609915 8.229641915853174 -1.1439393322843785 0.9082560756813133 -2.224254402849892
P 2.9657473938075922 7.735446483912661 5.190473743632291 1.1264933688937888 1.3975984566395738 -0.011775138258057139
P 8.441609485019058 2.9248530011034695 2.1808717259733474 -0.4134524144981654 -1.359959306130561 1.2005005165088742
P 5.880967823154185 4.803000531636062 3.2247662285397163 1.3983476761007725 0.7188688739313104 1.0117512054531868
Ni 2.2144995067977393 5.570519028302622 5.48566803071796 -0.7564015807694456 3.0522547789032464 0.08745555981050744
Ni 7.872258670068802 4.3103765346452985 11.53612090757938 -0.04584199803477912 -0.9368326017674253 0.6806450545634213
Ni 7.755536746662567 4.983942690422359 1.8921087334283384 0.4198362065373222 0.08870023085088595 0.4151668260861108
Ni 1.6179290280571186 5.148076521398053 7.679281822738132 0.47795007996091876 -0.11547492784156888 0.8890975004749915
Ni 2.038767651502649 7.292598500167973 12.518031340605683 -0.02731797108866263 0.3063849939940014 0.06875258408436546
Ni 9.300947991964835 6.328404953212305 6.221395332185765 -0.8866050730704408 0.74757241251359 0.7478701462596669
Ni 6.963413008953898 7.808529797829369 6.988073876011927 -0.40585043378119134 0.3744778330071809 0.9219032341511025
Ni 9.070563576027984 8.807943883865283 2.4645189792542133 -0.5538639576804139 -1.651433701561317 -0.3237065159915844
Ni 2.3747024326483945 7.478908569490586 7.455161823294182 -1.445902285951284 -0.21189695281674475 -0.29754528421518434
Ni 4.113877633406605 4.507589303088303 2.1270980563831294 -1.093674779701871 -1.7191706998969745 1.3789746708907993
Ni 0.5293761057093492 1.5303644079958088 3.3866722375777996 0.3186288443583609 1.504576402753725 -0.030688687333108432
Ni 6.166431265854851 3.277902053147381 13.154732281431787 0.14755869574999103 0.6793654165200493 -0.6728237587467896
Ni 3.985835815760575 3.9812744824551047 9.346158036404113 1.0129483110850814 -0.9226185150505722 -2.6581077496019123
Ni 3.921291095287643 6.177519385028311 4.088178414051396 2.632074558762944 0.12167385756342916 0.3710127572767159
Ni 3.9513476858899477 3.113796035179647 12.929743589039212 -1.5105256783586243 -1.0709487988592654 0.1721132451609036
Ni 3.7847292262031442 8.798070266039417 0.3396617242124096 -0.04580574548020498 -0.7892453667723439 -0.6258738723598124
Ni 0.9620519453427339 7.920894349988509 4.457378479817785 -0.27458327610237226 0.09623844820946006 0.608683733733771
Ni 4.5229698964902845 6.210042062336418 9.288950387431077 -1.110495707913952 1.2803718362142207 -0.6560907622628249
Ni 6.560050225510016 8.675210938876635 11.48444990139095 3.0630115031991183 0.18002478669849642 1.3771191057392993
Ni 0.16392894181705392 4.786646482955473 9.612246937759714 -0.08290110767060561 -1.5437178488398768 -1.3350103494947072
Ni 6.6002307510098275 2.918418925262014 5.339013748144976 1.64382529308644 -0.7915691298095142 0.4295220663665183
Ni 4.7277199900905 1.535778673545391 10.071463803789237 0.25589804098804314 0.2637998123336231 1.8269495446458663
Ni 1.9314836087975695 0.5379128449525948 7.894920708954759 -0.01941465708118592 -0.5871970246149049 -0.3075954693623348
Ni 2.5719615561046663 8.72203877327893 2.9576732775967507 -1.0200687241799464 0.2006820579375318 -0.17730404533322366
P 7.641661021070924 5.879132164628813 13.43570670464768 0.779634068934825 -0.11119738351213752 -0.9238423601553444
P 8.81842938786627 2.5467166158794736 9.501414882339182 0.4282516842945269 -0.036028354378466985 -0.03194621388929337
P 6.009111621829402 7.730560665514322 9.85118385364432 -0.13269771947775857 -0.8861247909999125 -3.371004207999872
P 2.5534473638058377 4.379056122301644 3.7133193282653743 -0.37255439073222296 -1.2899013729712108 -0.16069960400732325
P 4.907373479507975 4.797326678012184 7.100100036574219 0.09823490981419856 -0.10485730022672264 2.395856769812648
P 1.5545060989052477 3.3893765890517944 13.114947627745277 0.14575069600697477 -0.3453148382899795 0.020601735410751616
P 7.631861571266286 6.018725651580972 8.093462939178261 1.2219867114071084 -0.5549044831297864 -0.6254388417049228
P 1.6043655511752029 8.51714034363626 0.9161697532110852 -1.0247363048589448 -0.276670240538388 -0.1821729433897508
Ni 2.995433144303761 5.081455096330761 0.25400878489822964 -2.130786575407033 0.20604795023513547 0.5012247342181432
Ni 9.102956459298944 7.7612847683076716 8.707068885294493 0.1945749165985294 -0.6806329703785633 -1.650501162444719
Ni 5.629121036074728 5.526528120712265 0.7724803372866564 1.149299053934395 0.11173654384505917 -0.2700843597907542
Ni 7.187687834142161 1.011280969432258 3.653249720773236 -0.34786382996407833 -0.15954929245296393 -0.994600661815829
Ni 8.406249880899011 0.36424564194841547 9.935583353399762 0.6827037368646629 0.9229972385462298 0.23180963258027174
Ni 8.385315956907647 3.204800197225366 0.07261790958350742 0.5198456917534402 2.4097319851328436 1.1152532772035955
Ni 6.4057621993522265 4.923514295127536 9.595787199648878 0.7560097446476657 -0.6372702871222122 -0.6868031037450172
Ni 2.1658082008621125 7.778454665221758 9.716538300808278 0.12205592349319623 -0.5838512480711235 1.4453232735193624
Ni 8.86540555831102 8.390748764462536 13.0728563485986 0.2922166729134193 -1.6446920119621093 -0.183962945410638
Ni 1.568570209930447 0.8477423368269119 10.258188286930457 -0.1000994738267631 0.700787076728935 -0.6244003731380795
Ni 3.013817542565442 2.016081508009793 3.3561011063282313 -0.8043043179879954 1.65868575513804 -0.6995776298018661
Ni 9.251709696872657 2.2095302493755202 11.884736566154436 1.1986068990305874 -0.23548348188743312 -2.0064153735170995
Ni 2.6363023145192233 3.354953356199741 10.943479479763266 -2.556682100764558 -1.6036086116582382 1.0123826683895985
Ni 4.3349632336821005 6.868190540700884 6.65608019809414 2.1074800394706092 -1.3915694768366744 -0.14370924009691377
Ni 4.618285074769832 4.124112820335952 5.172602958917608 -0.9370056370101798 -0.5354013800998522 -1.3614675152449713
Ni 9.145482548470065 1.1507261203419628 0.78527246674781 1.1336029833553767 -0.012167231490153238 0.4984535992309093
Ni 8.68243304994363 0.5665908374603397 5.303747781151729 0.5664309957121471 0.8041163703469055 0.6422939655890487
Ni 4.308540876119926 8.686373226071321 8.705671745194628 -0.634674501370578 -0.9499115464385706 1.4986602943796061
Ni 5.274468100571779 8.666125356276309 4.5511945369682785 -0.02003429294305582 -1.3401618117886596 1.3124831149264686
Ni 6.490137594500768 0.39977861381808 8.681423437754674 -0.1177467545948811 0.039500629197783584 -0.682587780112089
Ni 1.1899053775552073 3.742713042177961 1.7982379773621897 0.6550011287430719 -0.34373129585294354 0.031269499537242916
Ni 3.6954401996483033 5.305516688457996 11.623464877777538 -1.2695022404895684 0.07119024699158062 -1.3822448570016388
Ni 2.136715794535761 0.8497087164896969 5.303680102832359 -0.7203192332245917 -0.4474570535783842 0.11399731485477786
Ni 6.9692908246361505 1.9796928225952204 10.964796296164216 0.14006213026262973 0.6227353267308308 -0.39207137771922795
P 3.3564645296322446 0.4726653824785359 11.511574073853986 0.7617373911600623 -0.5747917089720165 -0.13364131433795048
P 5.332791978264282 3.5000723607333235 11.008447885057457 -0.004887924219920614 0.5916995404709487 0.8413683127198284
P 6.5399785047654175 0.6856694497410676 6.064238857807016 -0.35090210256976984 0.2944992983000089 0.6510339165652078
P 9.148903548449168 3.020817149568755 5.132398328810898 0.041040462881077704 -0.8094318690225479 0.1768276199174374
P 0.09493506717075836 7.984984791331424 10.876706010252459 3.255425921811219 2.038541821737999 1.2820286550913536
P 4.255241881865562 6.672377693658542 13.239592550019102 -0.02286327775141869 1.5963529585370895 0.23916967248976875
P 6.417582727735304 8.268575491496104 2.843068851196551 0.7038040091783879 0.01798769482667225 -0.907735941511785
P 2.269328216489914 5.420931400490103 9.881239517146362 -0.06200755205104805 0.3244922451176734 -0.4541758603594565
