# total energy = -340891.06820832926 ev
CRYSTAL
PRIMVEC
9.04618878778626 0.00000000000000 0.00000000000000
0.00000000000000 9.04618878778626 0.00000000000000
0.00000000000000 0.00000000000000 13.24001169370320
PRIMCOORD
 96 1
Ni 6.283229305312736 2.2145612453660526 11.393546080442714 -0.44664895585479203 -2.1585853427868567 0.6309433164629198
Ni 4.491459776345274 0.5226815401103495 5.70820561336864 0.746558883647411 -0.8814721227192496 0.5457639542810988
Ni 2.7472189222597723 1.818564339588012 4.8610698546084325 -0.592455959020999 -0.45687654712007125 -0.012539527227907436
Ni 3.4785128083385106 4.317411107763447 5.060399001839885 -0.41306983434776606 -0.27479770610602355 -1.1155651520170595
Ni 5.208578284894505 4.583097666820009 2.5545142989369727 0.5305831327756024 -0.43309281443691217 -0.25003566866999516
Ni 7.3152365926907015 5.8532187304147545 2.6311210424410447 0.0512027481260602 1.1282304061895536 -1.3723185990268623
Ni 5.038917017781606 4.9125508092878665 11.328882115122722 1.0119106138491862 -1.620299699160674 -0.46305130847221543
Ni 5.658228135233815 7.587843486022997 12.551861680707404 -1.0860216340319877 1.5112553574357974 -0.9270971196472162
Ni 1.6701344771092896 6.564981895315315 0.6266946165840425 1.3397118687354346 -0.6620721766572405 -1.4915185411285021
Ni 3.021861208026107 1.7865227395819399 0.7273054215268817 -0.2933608138201916 -0.8780792949876167 -0.7027817385614606
Ni 0.2149166348007527 0.123711152140893 4.883763123319678 1.5736984543623673 -0.7684235449309863 -0.16781204668238842
Ni 8.670871277080874 2.035184371701341 1.4153965201101373 -0.24879254029151346 1.1741659923794037 -0.9817811414536576
Ni 7.023614610930183 0.7354270896481273 4.734190727221315 -1.8099514674259733 0.05204092775663941 -0.5672532345031263
Ni 0.8894981553351466 7.346174557688094 2.7723130494243247 -0.8258421920597713 1.2126530927110082 0.9673629091457985
Ni 7.5260851564799545 3.9702907589681304 3.98075538993567 1.4594964796959509 -0.9580436886274016 -1.3775669919099953
Ni 7.852833488557689 3.8179710353932443 12.187907279554297 0.5829192231751574 -0.1597128146140217 1.686504577122521
Ni 7.783684422931937 8.533088778579325 6.732624957752506 0.35345417956766223 1.1393977356602827 1.2076749227701267
Ni 6.928186367433837 0.6019831431970892 0.2221327794435658 -1.186537369460563 -0.5325235443314249 0.1800337855595609
Ni 1.8402299612747832 6.610230930671152 9.384599274144424 -0.8635085962622935 -0.3941231180419341 -0.6871386327075649
Ni 0.06344453909728631 4.855668375397923 1.0864590103922367 -0.9155744637195973 -1.179231322717453 1.0897152808334911
Ni 6.405461405618229 1.8417316285816743 6.865144383729061 -0.059085236197930505 0.6818017938756838 0.40420672753018133
Ni 3.5485393542580494 4.2103675581101845 0.8261739305461835 -1.875451606011312 1.302990344944685 -0.45666340266800065
Ni 5.76301918392674 5.618298258772266 4.7201836087996885 0.36747466221647035 0.16280945126147445 0.6467059786138153
Ni 5.265162194560791 2.881753839055455 9.264287679677809 -0.5876156002095622 -0.07955944489188234 -0.7832436406629543
P 0.403716018506776 5.684832975893854 12.339055521706037 0.287475301573692 -1.4470839649642109 -1.4737499042911717
P 3.9625834062845695 5.9736777777554835 12.731475564513325 -0.3945753750880044 0.8703333324936108 0.8343931669535758
P 2.1894490258243087 8.37466287770232 1.512605053522123 2.3006953567174504 1.8049534999907497 0.2903482522461129
P 6.029465622825345 7.824944089117056 5.757035130170666 1.1827419069738727 -0.30180174549869315 -0.4145466760036086
P 4.715253436015016 1.092399642443052 12.671829520007387 0.6620570071485887 -0.2602321495870228 -0.29721489745895907
P 3.9982796664833167 6.278688118637681 8.081160193332751 -0.13866370725320634 1.2468683051401364 0.21145060930794551
P 4.843465066982284 1.0452961384250907 3.5992577152388643 -1.2799740865551696 -0.7804599072702301 0.04518790939054799
P 0.24848523144178417 5.576577236968764 3.597853746768807 -1.2020881727109687 -1.606462793277582 1.312695745157907
Ni 1.4012907982328169 0.9776216015404414 2.7740734377250535 0.8254765811902364 0.47292100217744354 -0.24506058405290698
Ni 1.9037161128396098 6.467002626634973 5.004923250276575 -1.10186220060867 -0.012002166667198685 -1.6296978525461223
Ni 5.9914354459689 5.726146919210549 9.199159644882856 -0.21114567647301702 0.25557511043098563 -0.10285646774660995
Ni -0.6817768589434368 2.2753606789179477 10.078826402452165 1.0347803193585083 0.41387253275471947 0.5559280392982942
Ni 2.2531794244812198 5.294933201229335 6.991917670709609 0.10739086528185376 0.3234419494762881 1.3751108170600188
Ni 0.6898370129822314 9.107159906864291 9.35089046158016 0.023948797506113593 -0.06753490962718046 -1.0227298159518774
Ni 1.5617339991666679 1.3942800020711268 11.325889635935257 -0.5610818155850917 -1.1160284648067231 0.4519048049370927
Ni 4.033152723519852 6.630630085954521 1.5655252568071378 -0.26255668395514137 0.3150966628353864 0.02045004032423575
Ni 5.593448378699799 8.043653790795998 8.067602670484332 -0.8225486089101641 -2.0844334420637907 -0.7029799706151958
Ni 5.444593345357077 2.9432317367520295 4.392665446072457 -0.5633932373270878 -0.19521923505074765 1.3778940362321108
Ni 0.9231545000055567 7.5807241355981585 7.056158274403319 -0.2900368916532811 -0.1835777941570774 0.43828181483701945
Ni 4.804249839419798 4.734259478254643 6.902242803160146 1.0585645662622996 -0.6737966641830202 0.7422042062231411
Ni 8.289375411621787 6.9983486061823115 9.306298179516375 -0.2241965961197042 0.8881775597638834 -0.6170858417545372
Ni 4.7565673793317105 0.15603861170659042 10.43673071267245 0.04070184859473635 0.3511990649848984 0.7271611958470896
Ni 7.919033496701234 6.9761402131797965 4.712292618487633 0.44780543805673845 0.6698037409735432 0.17104032381169898
Ni 7.0760372738424335 6.194848042732464 7.0390256978218675 0.19324617048477685 -0.4614438547757795 -0.45782065620089535
Ni 2.170063043663661 5.213029009683604 2.671556600845094 0.12678906730280745 -0.7135446335049195 -0.7400192827566803
Ni 2.5373473468388577 4.883539682461364 11.506297775099881 -1.584017319789872 1.2983307346854864 0.8232898579515628
Ni 1.1219535405852987 3.518469823365846 4.006122711995814 -0.5953155399569812 -0.7114779807838779 0.046155672620455994
Ni 3.632551307746586 2.8657601776182062 2.800580579548259 -0.916903466943666 -0.5897509013850101 0.46915176494299843
Ni 0.9629939145811476 3.196027477059679 8.179599913012614 -0.3960758708929307 1.1186751584009509 0.9968526910747993
Ni 3.8082373364642397 2.4414487015355335 7.132605804988106 -0.5618156084273227 1.2170640772945105 -0.7707740474410338
Ni 4.014635175464394 7.110657037598289 5.812232259125226 0.0760203213903723 -0.4776888558797322 1.0484272207179814
Ni 1.020943798725388 7.740868812308351 11.477249558900136 -0.24177265733025463 -1.3772828850106733 0.5718056297604991
P 0.30872922901390154 5.55201683493136 8.037561182776775 -0.7021644166924359 0.3905096896590629 -0.2430983181202136
P 8.437371057047914 1.62237060132384 8.020083946409827 -0.6605948207807655 -1.2324935244757032 -0.032351162637195896
P 1.8703447231099655 3.2418554684856424 10.194517203784084 0.09484388185477859 -0.3833486531342495 0.4741525605916996
P 3.8619807429114665 6.033726377653933 3.699934557358452 0.19283710797181625 0.45368349410407033 0.5838034255523236
P 6.8407730470333075 3.9398412881549065 10.321635150550128 0.132148788952824 1.5638480439308486 -0.3972842893787351
P 6.35269498753934 7.571261822327026 10.416155156711463 -0.3667213289902136 0.7362559590595062 -1.0117581474317219
P 2.275731572650373 8.589636503491226 5.6023389728516815 -0.0727323946677199 0.7828245508476648 0.5205812843678841
P 7.0083084598262095 3.705988266766714 1.4112397964503998 0.34858168196670936 1.3714328539877993 0.014428516720504183
Ni 5.295901143409078 3.075676983982099 0.2275984865931053 1.4130770118911469 -0.7760386382740828 -0.16509901862659956
Ni 1.2908368354789648 1.1841460871809362 6.962008257355549 2.0643695814343803 -1.9430297101716025 0.5732536750609353
Ni 6.848109505984444 0.5786077918657254 9.135395775328142 0.4871919102741609 0.5206463332778647 0.1904398113842333
Ni 2.8141335793023803 1.4622892479338183 9.208666284478108 0.25144257631985084 1.0989560827054685 0.575426514342538
Ni 6.305700037784528 1.7596465132640287 2.3484602151034557 1.2463993359235181 0.8521355785386615 -0.5466237311782327
Ni 3.9693228167883876 6.785546065656381 10.299007919015631 1.2237458601900602 1.0712367624133292 0.891622066669058
Ni 8.376960609605636 7.238778206679599 0.05002270907780308 -1.7273925735861346 -0.11811982166358367 1.2169599476164783
Ni 7.495717101364092 4.06761870206958 8.269644769675642 0.6635240786124186 -0.7584237534057972 -1.1083079562340137
Ni 3.0408672502657335 8.66884493083543 12.732667852170241 0.7012421619884825 -0.6082975540389459 -0.345285784824257
Ni 0.22592675094061454 4.849082750100232 10.197364039335161 -0.027308715117282 -0.8157207873550534 0.29734242417575885
Ni 8.682160920448345 2.2785720758694317 5.959990894410145 -1.138882486586761 1.5760499853136791 -1.4677934295974204
Ni 3.728875123913909 2.768586019722884 11.438257772195964 0.22079554085795522 -0.6812330658564074 0.07000573976517621
Ni 1.1354323615929351 3.2119668613653536 12.716078046904535 -0.09193442151746747 0.2514968265965539 0.3384996151403589
Ni 3.007106874426473 8.410123936997579 8.263819024219993 0.7498756067254698 -0.9305740224522231 -1.311872220815347
Ni 5.552568652435699 7.678260141037309 3.4424827437805816 1.6417671250058306 0.13901414861408962 -0.09117928851899781
Ni 3.3889284026750057 8.378625108307249 3.6367532623493015 -2.0420470066777803 0.48650722550231057 -0.3667663232955361
Ni 3.4718367211548626 4.642522079705355 9.391007594145641 0.11445599965875126 -1.4229130241449623 -1.170651294357926
Ni 7.387651332399513 6.009111698484954 11.492448964978678 -0.19566789255239203 0.1532516323697103 -0.9140477426624258
Ni 0.5597166362212644 0.012670996366037718 0.25664579817399136 0.581056973155438 1.6201418334265711 0.1601848691544338
Ni 4.714837311339612 -0.09758666409528699 1.444974842961593 -0.2160621399380279 0.9280114039313695 -0.08956566417497479
Ni 6.041460868903282 5.615059723254996 0.34092642346382046 0.9471967186105686 -1.4863683643861305 1.1877103067227417
Ni 8.08505819599865 8.781325239834725 11.087794856714526 -0.9509785542505041 0.5466849234334714 1.1015996909759027
Ni -0.16582025543515228 4.762456448107531 5.912208021628645 0.5395827651710514 0.6153488044587725 0.4937248262966723
Ni 8.072891072337395 -0.2217582672357026 2.5508605433631577 -0.43055025052071655 -0.07978518774944324 -0.17366053504336545
P 8.564343360177569 1.8302339228765028 3.5506000760201566 -0.7263029616118524 -0.4207052394058367 1.440677290106919
P 1.5720647465429904 3.108514648584596 1.6627862581129786 0.9612387985259316 0.8439800393110627 0.4175530669301003
P 4.7798613149657125 0.923579670869556 8.213904869405338 -0.0572083308901918 0.846756316504619 0.17173966387156872
P 8.396645115989942 1.5940650772078038 12.344231750820512 1.1816998388626034 0.6460248933863906 -1.0464839809486817
P 6.575773998310019 7.673139998292127 1.355923257806376 -0.13643430370205534 -0.5684724516222082 0.46396430720478804
P 1.8241367917629812 3.3426481018192553 6.249576579117765 0.4577430088854245 -1.1262123473182604 -1.9687458839907834
P 6.6978432672207875 3.984312351291511 5.8976834612193425 0.12091255391737242 -0.23963247105880023 2.3351106009725267
P 2.664012079556256 8.54197213578033 10.510530423855267 -0.6255092899315421 0.9816294463671418 -1.105947169311321
