# total energy = -340872.36691360624 ev
CRYSTAL
PRIMVEC
9.22639863302232 0.00000000000000 0.00000000000000
0.00000000000000 9.22639863302232 0.00000000000000
0.00000000000000 0.00000000000000 13.50376701809134
PRIMCOORD
 96 1
Ni 3.304204083027706 5.786059237831302 2.7162019946703198 -0.13150781293471545 -0.9739467330109033 -0.5457490418827634
Ni 5.073975002092396 0.41158872941977703 9.358421221898963 -0.13283450216593895 0.4885237417117071 -0.5790589688888028
Ni 6.783682064736814 4.95160527433478 5.266334346137711 0.9153497493033009 -0.4119863714756002 1.9346126897525002
Ni 6.736701241865535 6.452131422576674 13.011838965017835 0.2612073690160985 0.6222781845887541 -0.9820580492641279
Ni 0.675721152647725 1.2133360316836985 4.872105086127265 -1.026940254488799 -0.9837218101197961 -0.19697375584800914
Ni 4.15723078738045 4.776488224433584 8.590597542874066 2.281005848708323 -0.5803954283120392 1.2011818588466152
Ni 2.1193868501450925 8.252986079318768 1.9061915296091638 0.5162474328792205 -0.20262349793461878 2.068828131426366
Ni 6.329484902853986 4.241513940744381 12.253588597424839 0.9385274729713449 0.29082004967620884 0.27169078504592564
Ni 3.698558822062317 6.382453658569622 5.206552817521809 -0.8327941978975723 -0.9280263163297049 -1.3106504325931039
Ni 8.342168450464445 8.055882520992148 0.9043633101143483 -0.9886069061262394 -0.9261833495836953 0.5636040677863131
Ni 3.8896467683480744 7.26005026302178 0.652717895070609 0.017222534525873565 0.49803630918783265 -0.9563277343775595
Ni 1.2876915799004391 5.722286369079085 10.94480362450627 1.5362112560501866 1.538855378541253 0.23985872813699338
Ni 6.600196671091656 3.571160706939255 3.4364248368221775 0.9595598681616119 -0.5950926253128977 -0.36681543136591666
Ni 5.424928761003972 2.629901950520908 5.323009346265638 0.012942933313913193 -0.649802615261268 -0.022840394933283246
Ni 3.8054835581690063 4.002725512478162 6.4055528706946285 0.23965818209041304 -0.18056934634805677 -2.0259321033937883
Ni 2.8490842812613093 6.613611854998735 7.379768323754023 -1.5364570535124056 -1.7574204874067927 -0.7875777492619339
Ni 7.686854246761476 2.294808371207866 6.309472843779397 -1.090187078263587 0.15155650405547447 0.10491257894469029
Ni 4.066193910068801 2.8657287047608753 12.428786839635789 0.7266750002392904 0.04253607358999771 0.31223708189940413
Ni 8.659095250470035 6.142576515240792 9.54449000721811 -1.6660259975531952 0.018983483081038272 0.6407690443040899
Ni 6.917603243836702 1.0595965478847718 1.9680656054809973 -0.7353051651104626 -1.1057494514782182 -1.2832440155556932
Ni 5.345803164589185 2.9713894242270764 1.6236524407040354 -1.134685160675962 -0.5080504988907251 -0.3437850319090144
Ni -0.024064293443219163 8.901528106276348 3.0033053830794585 0.03799524829685069 -0.1256942915767319 0.34579203503671413
Ni 0.7617471727517167 4.4490433297553205 3.465619930657918 -0.7622477551375776 1.18668700766455 -0.754754532084326
Ni 5.864695835107797 8.85700150549536 13.451305258519618 -0.27305629793488456 0.04021359610440816 -0.08680069983532793
P 4.238626077908814 4.111486301953152 3.881833853814021 1.8678974478131378 0.21251478890640174 1.4931622473795123
P 2.9041197503161373 8.852932663608824 9.02884871964919 0.49756091221331084 -0.1004296034726722 -0.3992200729488673
P 1.8514060959627827 6.982953826789819 3.8175821349622328 -1.0477672185364793 -1.157193369080807 1.1511335360399724
P 6.015076909730538 7.158652139817663 1.3862830325787427 0.4948350286417155 -0.9141788689236514 1.0430880678932553
P 2.7433405242055873 4.012929909590423 10.140573498315668 0.7415809708168455 0.051868406734517127 0.38638538307804426
P 8.565069019935626 0.04423412393789802 9.25288967201646 0.9185677420199664 1.558414017399471 0.7712227049426782
P 0.8953048317374783 5.639036572384749 7.929452255106948 0.19836497976858097 0.007447457416980724 -0.7476318049966156
P 3.00789828441986 3.867235845576209 0.773871583461683 0.9870860986063388 1.0768895898237323 -0.4449695112698401
Ni 3.0208890539804965 1.6385899804190003 0.9875808144127591 -1.2844820017278522 0.015234300451251183 -0.10889393218994149
Ni 7.261102072489048 1.2091472466123 4.13975506534579 0.10440735717349761 -0.5215978985578567 1.9041335473270367
Ni 5.954330299796424 5.866052115736642 3.3193612110349604 -0.6454386818656174 -0.0977433148897607 -0.5798169301007499
Ni 8.229006668744837 2.263715407131626 8.702489772113886 -0.7228821088557615 -0.4161939817990445 0.3188065075868058
Ni 3.355862690108675 9.311743024909493 12.354232001204197 1.0207963463745904 -0.39819163168435295 0.6027745673381876
Ni 1.2624296998883489 8.244811489950356 10.891382775247687 0.3137625174049951 0.5474428846454185 0.07405188481009183
Ni 6.2658412036854685 7.934149414754193 10.958307381842172 1.0240858157591397 0.5175345271217603 0.21706101351618745
Ni 9.113338544347041 2.190983705109965 2.9102239357858233 -0.7796173567642767 1.336311070584002 -0.2701728057395025
Ni 1.2857171305496038 8.503206015742395 13.393657795954407 -0.5780935196517398 -1.9705435993211544 -1.3411707126691481
Ni 1.8006609023665456 5.811321117843392 13.41665459505234 0.7054222615081013 0.2624733802127157 0.670137213053562
Ni 4.885664201856179 5.87694849276158 11.12676666234354 0.26250294789907047 -0.475736874359684 0.2671697572471205
Ni 0.1516358648643919 1.1885539244110634 0.768357887517481 -0.10782820992958848 -0.20049128208296438 1.262727126549264
Ni 5.898353738060357 7.210818198834595 5.544119994362696 1.3531983332576436 0.42536382122377064 -0.8279854636550191
Ni 2.9787797696944556 1.6823323372989567 10.541905240149818 1.0685425034106177 0.26634854689740584 0.6926719038209684
Ni 8.907746699091597 0.3239296367218701 7.0808080902011525 0.5262333404473389 -0.11792210383048078 -0.20250471296856737
Ni 7.919479440605462 6.266800749164379 7.260961831226746 0.7638845194100522 0.9123963231019319 -1.6973538611321992
Ni 3.6398051142767103 1.6510179396506606 7.669099887481979 0.6095615083530341 -0.6613013599294868 -0.8315297293628517
Ni 7.538198508721009 5.225177226211511 1.558347989745096 0.4617521300448177 -0.8478744892694623 -0.7552281292866349
Ni 4.602598285577533 0.8758749584294209 3.634363384243427 2.2354739257147953 1.231203859130002 -1.3112225030464901
Ni 8.528643197332363 6.447186072800748 3.4340213599254827 1.7342697603219424 -0.5533687632115502 0.9209881785360008
Ni 3.229627101238909 6.551176814077691 9.567189716273532 -0.8273064353101236 2.1819911233053064 2.11752688218365
Ni 8.913836122323143 2.77562369373163 12.618513892093283 -2.0392180218694174 0.655015269810459 0.1354912230624957
Ni 4.96320285767123 5.085019001498705 0.6914955267370861 -0.20172978247575582 0.11258860743270933 -0.3302530588608506
Ni 0.55406554815999 7.255575459586476 6.074750489480061 0.4806278839033981 -0.5453659475117317 -0.9983431595773967
P 7.599969248925883 2.8183511467396616 1.0375500678669156 0.986456692552456 1.4090712331658637 0.18448385091111455
P 3.099783990424392 7.087968698337523 11.941786139332587 -0.4919692770581462 -0.1963628617368876 0.055674924964800886
P 4.35140957727616 0.4814740874006311 5.821082647811541 1.5104773416191921 0.21990413939193743 1.1153121554659888
P 5.734059253993412 2.3779474511161736 8.023749741767126 0.7119520922068191 0.2517765626205019 -0.2537840799688339
P 8.546929919824679 7.28266416656803 11.548597617110804 -0.4502407869711084 -0.35907049731317514 0.9575482370482218
P 5.29155193943539 0.8496046330245908 11.461755060709855 -2.6324345132055242 -0.7374026710694398 0.6840983032193444
P 1.5391478537680472 1.9503315442789377 6.55661946675086 0.5079671951482994 0.6351326719539191 2.59388030708141
P 8.232752586672122 8.485906517925496 5.181368439259939 -1.0302821743778385 0.42704712246346455 -0.24596869768947313
Ni 9.108891420108245 3.904510496872354 7.151028366459741 0.7223835719527881 0.3610610453806427 -0.4018695947565724
Ni 8.739374146739282 5.156883422029812 12.364724261960133 -0.4188260201052529 0.2515464488875668 0.12123188493000411
Ni 7.011361908804877 8.137923659439009 8.372822237956107 0.019047503549754295 0.16840134352695513 0.8308087920364272
Ni 0.32865170764597085 1.5556631076839134 10.87396241160604 0.08541333256949807 -0.73163671511994 -1.8311921219723044
Ni 1.5975786375944052 4.907032541559612 5.595340347498972 0.02124425409075696 0.5208725903560578 0.7340088148965423
Ni 0.8999346386732222 7.771755568847398 8.55402871108885 0.20998816582980606 0.6518996069996128 -0.2491272979231129
Ni 3.02867613459781 2.1095976409804367 4.857170314331951 -0.5433753994442642 -0.3094250663719058 1.4748817039027697
Ni 8.105705074704817 9.39957834182516 12.436766751988769 0.6168827246047957 -1.315157319324522 0.5870970087019308
Ni 7.0529821939526265 8.084742696550153 3.28214468605148 -2.5022050527626005 0.8444490085276811 -0.2000624220756619
Ni 2.2748793497227986 3.5778682988927946 7.9930286015639656 -1.8506738848459998 0.2987372476407565 -0.06410377245844444
Ni 7.1230474667107755 1.2869165623982421 10.774426175686964 1.6074806930191345 0.4184069302899633 -2.0439403670457508
Ni 2.2991078730652927 8.749089544713252 6.572175175187815 -0.1317754647738053 1.869776924224038 2.314256383231337
Ni 3.090705213970083 8.634211652810206 4.5404252743834235 -2.7906008092680326 0.5604981751674798 -1.0469737761009066
Ni 6.440709140818101 0.17742457224999955 6.515864617813896 -0.037561503193541755 0.9453190419718815 -0.8472329990307216
Ni 4.771681270640195 7.893396411096997 7.504543373688101 -0.6598854534185667 0.5997267816507995 0.8265399894577443
Ni 1.5249299731622652 1.4006042488514843 8.87682257811405 -1.6225496715371155 -1.1779840805739132 -2.2837114205649445
Ni 0.8257839165106335 3.6506922649028124 1.0246174246189437 -0.32021367234697756 0.8357777060059284 0.3117578282701405
Ni 1.9644387080986916 3.746517643210179 12.178467258104739 -1.224853234321626 -0.6164903742623835 -0.13575321847463073
Ni 0.5690067784344892 3.8958284555679796 9.674234395565085 1.918472075436896 -0.5253486238495403 -1.1804004033248898
Ni 6.96415965236154 4.572907734124317 8.253218584569428 -1.7604435905038325 -1.7122927418302187 1.213559920795994
Ni 2.61729868971137 3.2556455459555247 2.9299933405710337 -0.31804211861695547 -0.8762545830740522 -2.0871739809234056
Ni 5.732887501341281 3.149634223333568 10.282619444230253 -0.3902404951580763 0.05403713225106178 -1.0703772426265115
Ni 4.493819043304873 7.7533396767713825 3.2375285892017844 1.901486596622493 -0.45967622135239544 -2.1299309122749572
Ni 6.122149268218597 2.0665103584178137 13.001939961707034 1.6948997431647521 -0.6790591981335402 0.6059177409528597
P 7.996538323681057 3.7379370922929973 10.442489870055491 -3.5630604719416055 -0.3703915787529492 2.2609517582709255
P 1.7103160049675725 1.0010089152782071 2.8846206790168125 0.9779849076360189 1.0408612354452655 -0.03501353996070744
P 8.671781548869093 3.6606475492465105 4.94682138653848 -0.6002523151369663 0.3064320451818529 -0.6519991086919545
P 1.4706695216096344 1.191792390402387 12.587158898290113 0.7781032341125954 0.9923545460941297 -0.4520225614618796
P 4.386396081661056 0.11579776386696217 1.5682866665708899 0.7005839595791934 -0.35096020950121487 -0.11070347459485451
P 6.21059352745742 6.425836185894987 9.349292622890943 -0.5547743853098251 -0.8327360909661271 0.19455563332481976
P 0.4538511719264903 6.371990922289961 1.5315563728060502 -0.5521042946768298 -0.1882507741527145 -0.28897785426114747
P 5.005828820292068 5.706130944717811 6.818349335721996 1.2075355689787848 0.4332774196438925 -0.07940260759904391
