# total energy = -340887.67086242774 ev
CRYSTAL
PRIMVEC
9.10952429371255 0.00000000000000 0.00000000000000

0.00000000000000 9.10952429371255 0.00000000000000

0.00000000000000 0.00000000000000 13.33270960868087

PRIMCOORD
 96 1
Ni 6.7560968629414075 2.3221452591240173 11.415132968057735 -1.1376033627640214 -0.7373067689215237 1.024880800856609
Ni 4.998177315467686 0.41041503886572733 5.940215078770747 -0.15609861490020213 0.8657757950299153 0.3623183148265115
Ni 3.2797293364750364 1.6426931755103944 4.364662740632358 -0.5190820741145383 0.43553639088139834 1.2881681923301878
Ni 4.07161116811391 5.019712230743304 5.19049030335544 -1.3922140523992086 -2.1573118753910716 0.6217318251669809
Ni 4.052927533921737 2.6668678749700327 2.1510857022132295 -0.025361104472607934 -1.7691228634453855 0.9231574182731778
Ni 4.8388608462395535 4.643197375340644 2.78368294795877 0.7140511408276928 0.9766921569665242 0.3324323259003565
Ni 5.74903895950668 2.7447816356943857 0.2783679304149078 -0.681608189807639 0.8304976885539116 -0.6012961830204483
Ni 5.683377508869343 8.00877486814285 12.538852904474165 -1.0024916345281316 0.8503931419262579 -1.6499542888023133
Ni 2.059954932786086 6.740018552678519 0.29816110465808265 -0.30783663883886336 0.715345177048768 -1.8234728989511757
Ni 0.770147417782655 0.5235598845428964 0.06403540056259084 0.2868988602449317 -0.9580506306059373 0.7351005052988243
Ni 7.947895917725355 9.145324658482371 7.017191313514679 0.28388167068516273 0.03192075996799664 -0.3450464151199412
Ni 8.823439619876616 2.8600080076577132 1.4516919591115105 0.2982011726316284 -1.1325465170664044 -1.4154249432980333
Ni 7.353171518958828 0.7646051832421785 4.740298526946991 -0.4082978668804194 0.5492339151075702 -0.45266045215619466
Ni 0.9596701583992915 7.770906971494388 2.2731606144913665 0.1980615895955492 0.14943842927120715 -0.015033240184038624
Ni 8.211234044116049 3.9336656427252885 3.5274346083376034 -1.6074781219159737 0.41146109509974943 0.8837316081773878
Ni 7.924074511868441 4.243781176028124 12.84426610137037 -1.244901925442385 -0.6060897477543498 -0.8258244514479585
Ni 8.277378299537482 7.43807228476626 9.044296390981218 0.22407729693302053 -0.23154532317529156 0.6132626113537051
Ni 7.285068715828316 0.8793041137526895 0.42389257996144586 0.0826447686854254 -0.2777472756526507 -0.1385454365077872
Ni 2.150849765535717 6.776739044842656 9.156971185208207 0.03513232492675885 0.7974926943828008 0.1792151463130075
Ni 0.2880012522862984 5.071554533126362 1.1236743887952885 0.3418091391295662 0.9583745896042589 0.08551309137215594
Ni 6.568732168614447 2.2986153580424085 6.971193681876476 1.491006377378774 -0.08183821362373003 -0.4250727723459131
Ni 3.920502380215445 4.368909600827576 0.5638440225851311 -0.9077241144372431 0.7525220432093814 -1.5506737113324198
Ni 6.112855138135139 5.92542667713858 4.4968027662303065 1.2242724221174914 -0.11362836155113334 1.0292542473339565
Ni 5.93256854413354 3.152933868741812 9.30393787244008 -0.8709154302493259 0.06818668427856643 -0.9585088011892783
P 0.3652900996485924 5.809671952770014 12.369927709090058 0.02102802431489282 0.8556392208165458 0.10146704359825105
P 3.9162209038281603 6.40949768510437 12.449431081792245 1.291731484201414 -0.672646609738977 0.9666183176702902
P 2.7607141935696218 8.73840221120576 1.1022633630491738 -0.5215220510145986 0.19330890540191226 0.9927080727788063
P 6.669419739909464 7.9659418852215484 5.640335917843213 0.16622207648744922 -0.8595789221905841 -0.29972969346101286
P 4.72629445535088 1.2279000993005629 12.230241353621416 1.0075196838703422 -0.9478081269423225 1.0692999504019325
P 4.248399704811854 6.160971645108836 8.307277579959495 -1.2193526162183708 0.5520449021938042 -2.0992180565721332
P 5.299155995969571 1.1359030141193118 3.8774453029981264 -0.6421612966659264 0.17318848050295335 -1.179323368210627
P 0.4552502952124034 5.598103252568552 3.2192894651253416 -0.7044686393455803 2.2696292314402653 2.033631271810259
Ni 0.9137672658130628 0.4399681573670656 4.469417714495295 0.7771131022851843 -0.5661198922296314 0.944137877179587
Ni 1.79369264911812 7.008111850716367 4.647795863171072 0.6884187849715693 -0.5828171503796544 0.0052933871884554
Ni 6.319368052389914 5.9306464345213765 8.890104029131484 0.9863502488815789 -0.3025756475502402 3.7404699325044417
Ni 8.494822642866175 2.6509535361432532 9.920548814117437 1.2015245868980144 -0.27926422651780936 0.38393460754470654
Ni 2.4337004928233545 5.93398962991315 6.863079115478154 0.5917383641286842 -0.9160282634275643 0.33373690364439296
Ni 0.49508806656745313 0.22737554664234721 8.801148614090051 1.3482808413513683 0.4464646077581278 0.9747136930839148
Ni 1.4610128243018716 1.5958702209771112 11.21470157217775 -0.2267270758510418 -0.30884142595429387 -0.49910305988945003
Ni 4.317613869898214 6.753272910430645 1.4754778378239342 -0.2106365980470824 1.8374969811444097 0.20517197538808535
Ni 5.841837682820018 7.783323253017514 7.653481560382358 0.5493586136108927 0.6442305204901292 0.524543868560058
Ni 5.620193848822096 3.1199847196081762 4.736457951532355 0.3839729169818097 0.1312447890813159 -0.01618895105503664
Ni 0.9298546856001793 7.77977053856849 6.831453580214887 -0.16187794058614055 0.7144164945869115 0.23297768474644392
Ni 5.780894965732924 4.824476907483122 7.128533384347073 -0.9348482243475448 -0.9092274384556469 -2.381114835616783
Ni 0.8249175212526773 7.677561676727355 11.151624493563974 -0.764398225821677 -0.06743875036894838 0.004715660308114459
Ni 4.892907653485852 0.3173922212563735 10.177216946868196 -0.902255120902872 0.4120709607696065 0.832043949995109
Ni 8.619194977154681 7.6324239841763 4.366022792599638 -1.0335083946246202 -1.0388773722460174 0.5813086841549279
Ni 7.961532875495068 6.50616795621472 6.831013590194661 -1.1179940731735263 0.05948915650456852 -1.0341375435681868
Ni 2.3299976690087822 5.698754385766655 2.2716001529910645 0.7261844337561172 -1.5271429752003312 1.027198136135876
Ni 2.3291778118282385 5.4868759617414335 11.329230154585193 0.024107434571164932 0.15993984302316328 0.3344079615694886
Ni 1.5177742697681929 3.6056407847896836 3.650229173029774 0.926319103830611 -1.1022265259266244 -0.1279234380175668
Ni 1.8183156931071212 1.353301809826863 2.440272103601625 -0.5645216945045762 -0.11804448834095799 -1.038388862645373
Ni 1.4331376801633797 3.7664785445639355 8.039090453822096 -0.1855428883032482 0.46181460785163686 0.18907224161274536
Ni 4.266190605629657 2.919611624683253 6.92323568062435 -1.1598380057925057 0.3593605177497682 -0.027523402231249373
Ni 4.326240589342381 7.19961226904296 5.8809512469989205 -0.5028190752884566 0.6313351525846997 -0.28983197473132666
Ni 8.38687478076123 7.782102576770926 -0.027099923626666404 0.2952320627009754 -1.6926860233428849 1.6170179430856086
P 0.4664149281065653 5.868309960227357 8.029251256703146 1.3186815304276966 -0.18154276600491961 -0.0366598173148788
P 8.658748531353808 1.9820138434890482 7.85615207731765 0.6519772543150836 -0.11239011826865805 -0.7768133116565783
P 1.9238768598642593 3.6089566516087723 10.258826441571955 -0.022107116311684508 -0.9615879543352343 -0.28964197020770766
P 3.8563986582211425 6.442237315180755 3.6280037558176517 0.7084019129617154 0.6209936614493756 0.9686122081718672
P 7.133431575524613 4.371606019999142 10.53156013125168 1.2670674057958307 0.8783320344283712 -0.09674469842191726
P 6.398384065545886 7.818568002256672 10.159924337025679 0.8742709769851202 0.15559082202584817 0.5282701683717096
P 2.6417346976242486 8.897955528063827 6.068369687518828 0.327860647369274 -0.14015031910106185 -1.540569275908566
P 6.771756135089795 4.218310946285894 1.8348877395831813 0.0650090578815332 0.43793445879992965 -1.2624088239778968
Ni 2.9372294445407183 1.6592542905573808 0.18099167117686607 0.1911214108322902 0.4388199467286765 0.1965001586457003
Ni 1.8248927695999286 1.6230803698469394 7.075269085231984 -0.17552124240118805 -0.5013311778890205 -1.078306267665601
Ni 7.172046848728229 0.5564698627223503 9.294551418675276 -0.3200457793105456 1.0596228323234849 -0.6694885237259696
Ni 3.0995156186672643 1.9753456717539581 9.1074135515016 -0.016254771295965555 -0.0694372688562159 0.6727692513597703
Ni 6.561535644474117 2.098451782174735 2.3899547355743787 0.5424690855799109 -0.16036176105193026 1.4978907632034333
Ni 4.338766185156246 6.990366497519705 10.34106267154262 0.0169548826867837 0.18576940249175747 0.5952180951471685
Ni 7.413503897922628 6.404496556303052 11.518461390426527 0.22530602713379907 -0.7952285809389723 -0.7544169462392492
Ni 7.945709631910571 4.159053491181028 8.077728500836283 0.7222107938203498 -0.04135799412149651 0.36333904278154194
Ni 2.8206002058462376 8.61924963430005 12.135552404030713 1.366713337024943 0.11268605224252207 0.2665722328724377
Ni 0.22135597303230953 5.086621686199913 10.104714243535431 -0.39767278306640547 0.11781591726991968 0.2744729757767531
Ni 8.979813712779018 2.4052878867553953 5.4487316509404184 -0.18541459025550003 0.5933429896116427 0.9187379490492437
Ni 3.667621987638801 2.891973328174696 11.5388731013648 -0.6167518554538862 0.8444189266206941 -0.2759472463294344
Ni 1.2371189378195675 3.5460553868126 12.616650063288397 0.04436669904083326 0.14533674839800775 0.48436652501022387
Ni 3.7040509750276334 8.793350861350657 8.00990536009958 -1.1339904486017824 -0.05432869534955159 0.7102273962062284
Ni 5.925718181913885 8.147430936421278 3.5708997922403483 -1.1244290301655924 0.1358565768217144 -0.706787517286744
Ni 3.165577888370644 8.495524076231751 3.3919878254447955 1.0173698371915447 0.522488785803242 -0.6765258901887252
Ni 3.9087328749125265 4.497982449617867 9.632189557528967 -0.4642823526658391 -0.16279608152503575 -0.8166877792540129
Ni 5.311308101290075 4.53272617502447 11.585364469216175 0.1716591883426205 0.7398079380768227 0.7009320869472315
Ni 7.992587243589224 8.830034915417881 2.419193575489842 -0.24222131483189896 0.902305257414517 -0.4106010610922993
Ni 5.002531668048796 0.44448648138428515 1.2083465055445914 -0.6877958066755896 -0.7523958020441623 0.2575296630541952
Ni 6.033256115428556 5.8273717583455324 0.2541757669219037 0.6269113124853913 -1.7806979698774945 -0.24597563966800864
Ni 7.767627542772214 0.029309894204443562 11.62096266799539 0.37504604680582504 0.052859052782560575 -1.750797068553004
Ni 0.653032641446808 4.7863990962089735 5.437331992321167 0.06563640705288697 1.048180651924814 1.076097175829424
Ni 7.41165466450429 6.349903177603058 2.4524852427344603 1.087635772596643 -1.635687494470654 0.37689287020657675
P 8.743357792385936 1.7193953695123882 3.2090494489403487 0.2989210815167884 -0.724728932256513 1.0356010154875908
P 2.0845506482024025 3.477952583682089 1.569939960261354 0.12342812125037454 -0.29159780838249777 -1.7079210951250843
P 5.133462859781653 1.428646684718845 8.296638566613304 -0.41145338179026564 -1.2186715309909464 -0.7041174266537487
P 8.650449754781858 1.9686228428734982 12.489628679354311 0.16883997372627052 1.1419079036766464 -0.6240319340550672
P 6.396006479722309 7.681333019757856 1.1954264673316428 0.6206828150771763 2.284026637812518 0.6138573075149105
P 2.5144746441553827 3.3286110434839076 5.682787211699352 -0.800092593899493 0.5994077077484838 0.40291320552973836
P 7.659543037803846 4.561685352546125 5.985080396547376 -1.3807533600577768 -1.3609424959794367 -2.2741196631114513
P 2.39638788158438 9.01814659073156 10.04929007622582 0.04919111701267012 -0.41030358445653853 -1.221476090319277
