# total energy = -381175.3809489335 ev
CRYSTAL
PRIMVEC
9.18120865574319 0.00000000000000 0.00000000000000
0.00000000000000 9.18120865574319 0.00000000000000
0.00000000000000 0.00000000000000 13.43762691847396
PRIMCOORD
 96 1
Ni 9.16752868867016 2.0844924396821107 6.557508454198678 0.8536160197389299 -0.36681543136591666 -0.5973228001949972
Ni 6.679026341810112 6.784242993393131 1.6676903544369297 0.008595712088811002 0.19953868836170796 -0.6299408433403344
Ni 2.68753258883358 4.266682121030444 0.4608581151423117 -1.9890588845165227 0.6122609095620681 1.1551624546937074
Ni 6.7052019677842125 9.02707455813639 8.612403431428067 -0.2922274715466967 -2.475549397848285 0.9046783856323838
Ni 8.896986012213196 5.764302520063502 0.7647781576695124 -0.8686274055460975 -0.8006836905162728 -0.7177612426894283
Ni 8.274564331517944 -0.34455239970397267 6.5037175887279455 -0.23939078736163932 0.8000409147259512 0.7565265363830842
Ni 3.7751752950404502 9.2938621202393 11.043565457537978 0.3615757802335321 0.15655755681449166 -0.3669411583105035
Ni 4.42525995751752 6.970851060009611 2.837435101229837 -0.3912434825012939 -0.4326696108565645 0.8261129292226547
Ni 5.0996472793960095 8.911483140734102 4.511951684327498 -0.15132947564633292 0.4504526458715984 -0.208968209205724
Ni 2.4262262083183708 0.6579098066432313 8.69130949326925 -1.2041478834534747 -0.40334463664020215 -0.16424206994294294
Ni 2.8528861573335944 5.880683521413096 10.39376265816768 -0.8275509472207617 1.1571504316580137 1.8802541696062778
Ni 6.308316678549419 8.777253869691892 11.22607595071628 0.0821194923095747 0.2607746523540541 -0.3737720651894079
Ni 3.416272666154605 1.2515364625252354 1.4848979981518553 -0.14612196330346447 0.7098103632734678 0.6694782393133244
Ni 5.096562393276297 4.613052400054961 4.719106377870473 0.12043278606747647 -0.7884953759801969 -1.331782586586029
Ni 1.8648503842003867 7.763712698818926 3.638385384894705 -0.28362353192776957 -0.7052281432194241 0.008105659826269911
Ni 1.393762566336103 0.587479836664305 2.5278998314680665 0.4589244307880354 0.1037211297397504 0.11334913974781768
Ni 4.7873851906534215 3.3116803367624805 0.7465672302336557 -0.07398812145169194 -0.5957587981419868 -1.1194919978752915
Ni 4.240488132638965 4.879491076227666 6.75388532686091 -0.659225965457697 -2.6259810442706963 3.115600075929112
Ni 8.443654651954633 4.870796471598599 11.028623040395624 -0.6028920667526585 -0.5831807043666601 1.0819927153782527
Ni 8.80062004580697 -0.02160062968406354 12.110365901898547 0.016411351478487865 0.12949489626974472 -0.6726394106501254
Ni 0.7112902720855375 9.650919326178533 4.882965245595817 -0.6769717194768922 -0.4203468276251535 0.2537910219473694
Ni -0.2924967826755783 2.401730743534471 3.7336982666642333 1.0561693265572456 0.7242118834107786 0.21693065858591026
Ni 4.810439205673051 5.425974979851091 9.461527517087362 1.1844270079857795 -0.5453224958683061 0.7119500353242899
Ni 4.8715217870850775 0.4280004054839079 13.278095373384083 -0.7331829765611374 -0.48743436530227024 -0.33680602948801996
P 4.838460254593765 8.146633369636811 9.499824174773492 -0.12019727301790267 0.15259342996042108 -0.3652259753916097
Ni 2.0061583671422927 8.337492335876584 12.471905373920048 -0.2866093540289709 1.1193886395282076 -0.6515036571127748
P 6.78908149037256 3.065504588167761 3.61778550695781 0.5935695038001519 -0.4418883012413551 0.8579951226432321
Ni -0.10246320709700238 3.09867629516335 12.974955733595499 0.6294425635476772 -0.405575839963566 -0.9297273581812118
P 1.1062897410554837 1.0235578695533387 13.28798537138454 -0.16787246760667862 0.7035181025068529 0.9836356781638931
P 2.139726591158851 1.2624529196571908 6.4417701374573575 -0.6333874071280382 1.0690199572676684 0.2436338789087094
P 4.895328661217257 2.2958989509692476 12.256782309355357 -0.062328682835892664 0.3352273721469904 -1.3549759939833566
Ni 3.8113217136514748 9.19902023447555 6.808321631302523 0.8241745745493613 -0.48482418137293276 -0.47169561441077473
Ni 0.7593740982348033 3.6998526589508263 1.7576147848265211 0.3766205903817965 0.6685372155562939 0.7598489158880978
Ni 4.209088398920472 2.438345403788666 5.878370774944181 0.21670774394182676 -0.3952376912623516 -0.6485054937163993
Ni 1.643904597084737 7.950476845983129 9.969066569691163 -0.07428842630093013 -0.3171301483256474 0.42949738377616997
Ni 3.318667236575279 6.96653589192549 8.23605558791108 0.5928609077689015 0.9105366441853737 0.5661574303357862
Ni 7.531510749849804 7.340293716471137 12.6031636058303 0.07658647830648746 -1.7891252747092414 0.426987987090755
Ni 7.193164847220014 4.815103259687377 9.101022767285178 0.811129568439945 0.6809422740888661 -0.8886164470735147
Ni 5.9019380195295605 1.0245402588831276 6.817714007792002 0.4449371153700079 -0.37067311454911 -0.7137240965055773
Ni 8.866816560459112 4.363709134462323 5.37517167968796 -0.2645541740011444 -0.9896091221385085 0.9982264314938744
Ni 6.462919051673891 5.280838432885614 13.281092119900375 0.48235206568335637 -0.23530247622487863 -1.2845138834070522
Ni 5.809207811764422 4.4336424010511415 2.365707353119887 -1.0241796610245264 2.3641360416705997 0.7419003018294771
Ni 7.018593345195623 1.7475788056079002 12.538743655059598 -0.35743784680575863 0.31780866244991074 1.3054200374321003
Ni 8.141574523648831 6.798492229279418 7.761318239592674 0.07553361156194088 -0.14994699347650953 0.8566188111209957
Ni 7.569539316242201 3.814424962188566 1.124699900719905 0.45500169869486157 -2.2151490981145145 -0.4538279901017345
Ni 1.519389044836142 1.0771577658833267 10.960319438349215 -0.879007463228841 0.3741464178096911 -0.666987868791303
Ni 5.865791600918536 6.711537001780049 7.942134799767742 -0.7224347369056977 1.1136666494427658 -0.5550695479527408
Ni 2.4398694844311426 7.543510589607136 6.072477134697471 -1.572752031288698 1.0581030532448488 -1.197214132448119
Ni 0.6540270734883921 5.790478146037603 9.195730607402059 -0.12854924452702376 -0.4607347445238968 0.9124590580190673
Ni 1.7858460834262266 5.5478279815796965 7.13043515696907 -0.26742969577672654 -1.8689667696179169 -0.4598397435134532
Ni 9.02872717570052 0.03195519684421437 9.166571088603833 0.7819956271884662 1.1379897995691628 -0.7254406136115571
Ni 8.071154652999464 5.045156805823128 2.971059330619402 -0.5050014276517562 -0.5809302177695866 0.21708595321685195
Ni 1.771642753583388 6.113711779164283 1.6632962279580785 -0.531910079117142 -1.8031262169740234 0.33555878734448014
Ni 2.68730305861634 7.913651017929073 1.2208271557002024 1.883927247582491 2.5609020523831765 0.15385507028166404
Ni 4.975847861425204 7.1659976507074346 12.319589121759293 0.17840550592751855 -0.021209287087763474 -0.5464596947965427
Ni 4.642055838305463 1.13375073624613 8.73354397136236 -0.7932629725721693 -0.5979725179638541 0.07021014246649844
P 2.280603057292345 4.244665582592741 9.236796317628981 -1.6643321547905399 -0.005345066361997246 -0.810335868894056
Ni 3.961737455613482 3.2557667758427082 10.022669220383758 0.13429180343775585 -1.4359104648458947 1.1571239492954521
P 2.966301628276442 6.465223535054986 12.736115770743785 -0.8442638891000686 -1.2951258545949438 0.6131343133059569
Ni 4.610298037448075 6.679237509609973 5.8199837964034264 1.0592420519452983 3.274279564182612 -1.5773954435979802
P 6.277219924717683 8.13657076491299 6.0155683307557455 1.3193163357982183 -0.8085055005535366 1.3939595743354058
P 8.182127922430873 3.823780613843286 7.3764511525325895 -0.17490340631153103 0.44108637416534996 0.7838648191867209
P 6.46320366914327 5.979941568556553 10.982868486890913 0.3148750337428835 1.1842290330423606 0.5534597802634598
Ni 6.10057346952944 1.6356139656380124 1.8588807623103976 0.6502854684349575 0.8616082939157872 -0.1751324916032016
Ni 8.302631286482105 2.298892025002063 10.712019158063717 1.175760333449717 0.3035351832500321 -0.29168085501460733
Ni 6.895142813155023 9.030021726125756 0.6235096539249718 0.622933815894882 -0.4398121354386168 -1.000555079627051
Ni 0.8466038438739921 5.496156139074528 3.8594340015476787 1.810432777937766 0.644104022214594 -0.733040280335686
Ni 9.1284075584437 6.752393380448847 5.692245639904775 0.20346193467551407 0.3899067659677414 -1.4313714393249606
Ni 2.2069789448103005 3.798210947642701 5.3919953264908145 -0.021169177878447413 -0.3441663265078331 -0.6257646004754578
Ni 7.051067280330801 8.95838993592936 2.8945054944445006 1.0717293857790318 -0.5146554058017523 1.1856485390977063
Ni 0.7947621490080659 2.503173918346057 8.926386996799959 0.010843884693039388 0.6443994419678257 0.02710122709216623
Ni 3.1568484334207674 2.874663984345368 7.847950288546168 -0.9882050427021304 0.11258526499859965 -0.45677293166267136
Ni 7.593621626635069 1.824811133104964 8.374382432391467 1.0311686907478501 1.524163066636401 0.0419838006309535
Ni 8.131603731011907 7.35152233469854 10.150555194342314 -0.4633336155993247 -0.8335413604762418 0.8512220655854567
Ni 3.9248473590985977 4.417437567713966 12.075118323618234 0.8864582630799314 1.148587629689667 -0.35677141686635333
Ni 0.5904839281475479 6.454747775940131 12.077739558699122 1.0580590873807907 0.21112176521361703 -0.2717506917495836
Ni 5.698950676610804 3.2369177544029237 8.406351401048715 -0.8553623130060752 0.33222843741966657 -1.007741312962845
Ni 6.065207453657032 1.6811068546950678 10.293369813630184 0.07724776603957019 0.5211194162595413 0.993524912253147
Ni 6.512102786624173 3.1702621793162993 6.112037126699296 -0.1025530775735782 -0.3058761726783829 -0.640509105774484
Ni 6.832976849117622 5.366939807976848 6.213894374022783 0.07028547578912411 1.5670971469957655 0.4709749341946663
Ni 6.126960263303401 3.9171718686340773 11.251513407511734 0.5212896232888184 -1.1896484042857187 -0.3984243165204493
Ni 6.498964476989331 6.453398138262758 3.9776585896021475 0.23408377332642913 1.1178107535181265 1.4596363477079248
Ni 3.172061696219464 4.670838927547415 3.1527361700486876 0.5825803517785 -1.0723490216409015 -2.64306679610839
Ni -0.23929994140706445 8.027406193593436 1.2197832522721925 1.147870034797352 0.7642393316463095 0.38281566344891493
Ni 3.0105734165777784 0.7153033784037696 4.477322919512866 -0.25122223277892863 0.7005957866537353 -0.8119104124700275
Ni 1.4339119919358014 4.089080820138479 11.412240564953052 0.4274649267271735 -0.020717949273641737 -0.7835313471067022
Ni 4.638557797794719 2.642186599115558 3.3358911840770022 -1.661642523773519 -0.8615918388555549 0.6523870881589925
Ni 2.685944239730276 2.3757846477776114 12.532334253273376 0.4760680324468576 -1.021901663623627 0.37149535334008926
P 0.9887243637849291 7.555033006512605 7.697139754610508 -0.20224631710085816 0.6171267222948016 0.9862630884844112
Ni 8.874473688506253 1.5987881375839557 1.5270112842902626 -1.653790888939584 -0.6518533271427096 -1.7992675053495657
P 2.8645279299520303 5.907951711221261 4.692553404219229 -0.05570757797494921 1.068306733250728 1.5820486260992754
Ni 4.507000258481186 5.820693503835134 0.7778880055574174 -1.2815154629003607 0.2922336421942838 0.8440003510260368
P 8.563689774362695 7.283397766221577 3.2683532948353053 0.5429665940416197 -0.553822305809201 0.2913944341224401
P 4.859356685571334 9.00058677106684 2.351813430009889 -0.22754931464202102 0.3312557890937521 -1.0386138341719855
P 2.135402241866041 2.7507268482442186 3.204913897152654 -0.175643112691033 -1.4252185323496873 0.09926360818902905
Ni 7.250042435052195 1.2970201703736015 4.96774269039401 0.15999383618955024 -0.7838967008659209 -1.0076942617749935
