# total energy = -340868.7698392764 ev
CRYSTAL
PRIMVEC
9.26659225439244 0.00000000000000 0.00000000000000
0.00000000000000 9.26659225439244 0.00000000000000
0.00000000000000 0.00000000000000 13.56259444579865
PRIMCOORD
 96 1
Ni 9.230869249351688 -0.025517414284004582 9.905033274383948 -1.0642693299565604 -0.4357287093978625 0.9627611487077289
Ni 2.285382509063048 5.2337433400017925 2.625433074313999 -0.8151173494430994 -1.7299032558231302 1.6587641737844594
Ni 5.115214362224002 0.7415757015735839 12.640202257363601 2.480302082041922 1.1158587719980781 0.15541007347360974
Ni 2.1910393363044136 7.472162761004655 10.23353303275506 -1.054799957013545 0.3671810422354515 -0.1759339044585744
Ni 4.391901260087872 0.8440234356616257 5.583624832664555 -0.4020398017858495 0.2282753941747681 -0.1252957705867326
Ni 8.80669100232031 5.1304949723682896 1.8563939741445248 4.264039867187005 -1.1392936059822507 1.938364700595765
Ni 5.963913720189331 3.563912735156188 2.8402780822789984 -2.060405968800942 -0.49922827261340474 -0.37727442191571153
Ni 4.938342921457472 4.482454396734308 0.6141128024858433 -0.3759058237029591 -0.7670222937080854 -0.3032055678247552
Ni 0.8615159813070903 2.1289624367552444 1.915051501259951 -0.2451927387553971 -0.9425872448630154 0.03948340280660297
Ni 5.507033670126303 8.76330481875721 7.37107999591252 0.8189984296650605 -0.6914231190155318 -0.3458773956616688
Ni 3.8669580920686335 3.4221987442910673 4.707101605676037 0.37490540746290274 0.27927322537887384 -0.1334047728471122
Ni 5.190820486036761 4.3170364636320215 10.385610780069769 0.05980771618625184 1.0326959260256539 1.0445592531221428
Ni 5.544637500305512 6.860298960387834 12.743358885736688 -0.36459065580045596 -0.12417039873303776 -0.3947011020325912
Ni 2.727788142482428 7.447671158450772 2.757912906289622 1.4342965833915557 1.6340502159775472 0.9530909726078167
Ni 3.5184601015857035 2.0828611417474647 10.931803170115607 -0.6800459875268418 1.191444576954193 2.708959542146457
Ni 1.157740199876777 8.463169171720631 8.095580148478902 1.7004471553455425 0.16065512392263298 -1.230752116304564
Ni 9.565068888438237 7.0254018293634335 3.099419253137704 0.1432181593931082 0.14586511009765202 -0.7100749297887642
Ni 3.2916602633313503 3.0410267505523723 2.225282173579237 0.20615593656790945 0.19272963585967454 0.24605071588031818
Ni 2.277876569574344 2.20862732784708 0.11414402646167399 1.5770203196467485 0.26228877500573533 -0.45458055199704295
Ni 8.059266227900714 9.404756847506661 12.435013964881538 -0.4040383202731171 0.13509630161692218 0.05191700058426543
Ni 5.295987038206266 0.8425472675621808 1.6049292480666124 0.68459735434295 1.1938441875346213 -0.03720591962633592
Ni 8.04999036934739 2.8409239637387054 2.7891070348091573 0.865521255816948 0.516424324776717 -1.2765786877203757
Ni 2.2424503885060543 0.8771079489412793 9.57738882245087 -0.22046746809457515 -0.41337605273427525 -1.1399268686908754
Ni 4.256748016331397 8.073166115842758 0.7800950710385766 1.126315705665344 0.41605308534580604 2.009662162589171
P 7.458716936068717 5.051589941817285 3.429233940908134 -1.3752686827941218 -0.04815239133551062 0.5832933186851245
P 5.008537355564794 6.419459381009923 6.567346775439704 0.5079857070910607 0.6414670988123791 0.7859463843060981
P 0.3848638039761019 7.998709049433208 11.733881377264126 0.6672046127877993 -0.3908020240885012 -0.22982988314608158
P 3.9918995514836877 6.500115797441625 10.993120209123944 0.4788821048568849 -0.5174789912934764 0.10442869732973628
P 1.0944030438208625 3.5859764906161926 3.499881511362368 0.15259008752631142 -0.46118648734933476 0.7062303592316934
P 8.515812680653132 1.8796540466267413 13.780545357492116 0.3916399466087642 -0.6751596059688179 0.3201596791805906
P 8.405790434295874 3.360789039363117 6.630806250509508 -1.5747865452202232 0.09699152432540072 -0.3688314333546809
P 9.486951518203947 6.680536342929358 7.434254986609111 -0.7601541058333425 -1.4144654075982415 -0.6678864693461724
Ni 2.9787737857559375 5.049551291585785 9.705663474994424 0.71450159810155 0.743953327703764 -1.8384338911363822
Ni 7.955897394571712 0.35110560946085745 1.7775408365085048 0.28334868099982813 0.5004855420592735 -0.23545494264234287
Ni 7.155958843507073 7.340317690578385 3.1766034775614824 0.049694024791017644 -0.9137147848030394 1.1257210095041388
Ni 2.5585894398599054 8.385468798124604 5.76308535922509 -0.3026337544816852 -0.1973825612506536 0.21409061803395388
Ni 8.665773938363866 4.454691687218066 11.01357250424187 -1.6614134384818484 0.0431654796438805 -2.036420918740254
Ni 9.169580010119237 6.819646421453335 9.65164387715566 -0.6738537426732008 -0.7818740140089373 0.05987456486844527
Ni 7.57345587773431 7.094261874228319 5.872806441343606 -1.788866621731216 0.9427733927318925 0.14007755688159745
Ni 7.72148968431708 6.623472669631286 11.745573036341776 0.4566389771879684 0.753816850761405 -0.813283381558154
Ni 7.455288297043012 2.3542981534797023 11.395101261771078 -0.7068445957769246 -0.7002407173071618 1.6529804772231467
Ni 8.552323052980903 7.427099324296547 0.29804047059411376 -1.4992549905408117 -0.6530992837346687 0.4309587988130449
Ni 3.437766618786157 4.09949395074707 12.11985995225318 1.146660073649651 0.37773979158790427 -0.7420532824675736
Ni 6.797443667113909 7.661627500246677 9.692521594274819 -0.08762705239136521 0.5037027634449907 -1.6082198851780047
Ni 1.1028263759137413 3.779601929648867 6.11656692286484 1.2377493735580039 0.15165086354149365 -0.8591531475070752
Ni 2.625901963867244 1.8656707593570452 7.310618263342217 -0.3017832335559319 -0.741831910485387 -1.1101563222966622
Ni 2.095769504349643 4.7102364937365655 0.16588033604115832 -0.7297860350644463 -0.07412130459544654 1.2194094375982354
Ni 2.039317426121021 1.5946970772228757 4.874274631295806 2.218970785853449 -0.06194893089897074 -0.4378046180902847
Ni 9.162009204486802 4.526906238372965 8.411466221872208 0.22343374981175068 0.10218463849056594 0.04848020698857457
Ni 6.512560830445735 2.7023976805082937 0.34317989335630394 0.586669691356525 -1.1862779451515892 1.6959664938663694
Ni 5.76676697621134 4.71339640159539 7.804459042102338 -0.8315598112698389 1.052076901655427 0.25305311534008035
Ni 5.910704949147186 5.160796728081945 4.965957365502333 1.1511096247805723 1.4383872085211615 -0.04182053558021185
Ni 2.933265552633685 7.635996106881547 12.63552262842311 -2.3552053148398726 -2.4192885184730266 -1.2320734062191492
Ni 8.776203914767427 8.943011836663917 4.075437878015372 -0.18457358241144342 0.9129462820681309 0.9654515510556986
Ni -0.03912077128328509 2.2545988905674004 9.917497767231177 0.16616191267347513 1.7021471687557845 2.7653006399403472
Ni 8.09467387578508 8.647055422601913 7.462003796237412 0.6532250106792556 -0.6801740284642737 1.834030619862364
P 7.45717868180313 1.0562339515320094 8.856333062116526 -1.1012957865822386 -0.005860572545835068 -0.1185139717782088
P 4.277440316181119 1.490735182008347 3.5471744900963786 0.4039169642039044 0.7148273568720851 -0.3173119253191503
P 6.147651705599232 8.853366826029694 5.173125928686539 1.7366986814784091 -0.47662441917095977 0.5882030972819159
P 6.295426047607084 8.741611726975659 11.392036799809453 0.05652236056676072 -0.7116217054505938 0.061591033338919736
P 6.454264700416803 8.101299489037455 1.3250058914161589 -0.5227438392368416 0.017645738106221224 -0.5516705495735209
P 1.0357455167054364 8.955373470340374 2.2968248968169385 -1.8166689886554648 -0.9205300079526598 1.5889993463854957
P 5.414460416432289 2.867583948811546 12.134276916026668 -1.4413460340391695 1.0919590825623453 -0.9385094752492159
P 3.226608787762584 0.33668308573219247 13.092921607635978 -2.648939195728767 1.4636349273443567 0.662095316585692
Ni 6.201305273055522 3.3002503940795336 5.938070121868287 1.3699668109652343 -0.982809582718172 -0.32263282331143145
Ni 4.146318039927836 8.792772581194344 10.78356457185049 -0.29259102553370253 -1.3303898200035604 0.6288905476989491
Ni 0.08790381800468312 1.8389737079163588 7.8733024071016935 0.5815341699021725 -1.1802021712711546 -3.4217387582402616
Ni 6.604846819788947 1.725522822533395 4.228193013202457 -1.3075602237035544 -1.1440259784609135 -1.366005512324641
Ni 4.89902477176541 5.647793202019403 2.9695702066199123 -0.0009533650522048096 0.7356532924785008 -2.7923702424636296
Ni 1.4109312920370911 5.238988231051923 11.262432391319443 0.21345452711185173 0.7176108331544931 1.408220198019478
Ni 1.3680825708077498 6.802114029462437 1.0114698257442545 0.3467196890573061 0.38338876234356556 -1.3336165544709742
Ni 7.555858619599682 1.1010101238893142 6.163398425319175 -0.18257634947575652 0.5204043924703876 0.8029357197752429
Ni 2.86339544924501 0.6203232724183485 2.179142885544416 0.9078662964420623 0.1463561908014576 -0.638283558878075
Ni 9.161156678026357 1.9905844189962147 4.62598371296466 -1.2829267414255905 1.2150650445866105 0.2673785308238169
Ni 5.098617896021201 8.539562955850105 3.364770893928914 -1.3560170336533615 -0.2589525115436508 -0.11360162207825597
Ni 0.3674917240261352 3.429649084228003 12.84278663750452 0.37397492522883335 -0.736045642820913 -0.07088942792171017
Ni 1.0477828196632466 1.315105464564639 11.982511452861056 -0.1453701727391045 -0.3916664289713254 -1.9469550133679372
Ni 5.44846880893049 1.9305369030865842 7.46356336366451 0.49965019064217175 -0.9028963540312968 0.6331521511887805
Ni 2.528510082353322 5.873314250583088 7.072268544867222 -0.28111284969077394 -0.23260590322932198 -0.47047459751948006
Ni 8.980606400251165 5.695117687166082 4.929948315799673 0.9970527229007475 -1.550800723828587 0.3898044360619222
Ni 3.8287982663717424 6.1271540041806976 4.797293345235981 -1.6405952161849167 0.7421286157901993 1.3691854527145195
Ni 0.8268329809141017 9.146849060038013 0.22205719648852768 1.3077882805539605 0.713653648278958 -0.41356811414042327
Ni 4.980858045376203 1.1698979685300848 9.598519432100364 2.8194480725170283 -0.8643442047897113 -1.4805975233406243
Ni 6.8029665559228825 4.623102729523872 12.559830325305112 -1.008181228713741 -0.10485909999893554 -0.6685300164674423
Ni 4.183440007325055 7.078258469911047 8.557793122215694 0.24991508393173092 -0.8299580140003577 0.9772056062678331
Ni 6.868824224992287 5.820457610035475 1.208930707189737 -2.2524144102238757 0.7354450331224367 -0.6276900996329449
Ni 6.833407310515959 3.227118450320459 9.270697988260823 1.386793909824902 -1.0785191550073554 -0.7288969475912737
Ni 3.976044412637796 3.0755170058325647 8.760228310226037 -0.6321105972981437 0.6041729903476111 1.6114751588905085
P 3.583455977602702 5.989498780594654 1.0835694711588335 0.023654663304462486 1.1536830419347033 -0.11430379035160315
P 1.751219082042254 3.327818505164588 9.855462567345834 0.679488572361475 -0.3618010088704608 0.6037667560481279
P 6.996360330156523 5.513325686068068 9.561384491474398 1.0245586416305001 -0.6330860738375355 0.7353455314300948
P 0.6059063086448604 0.33786550286646244 6.024747969756481 -0.06859317568836573 -0.1554087879220291 0.29457128918852493
P 8.677542510154797 5.182712218070567 13.416199641436862 0.07204153924828238 1.9066195469736844 -2.2764100018075246
P 3.852752406591865 3.7813255157536805 6.826447173293779 -0.5095751630653675 0.4611178388949284 -0.8329039840025592
P 3.3860590356417526 8.954910140742307 7.91186162291212 -0.636632139317581 1.3701814980792015 0.22561687350599852
P 1.767064954296184 6.565723268528073 4.5774703240693375 -0.22445139244298762 -0.015831824825934027 0.9487944021149919
