# total energy = -381166.95781812194 ev
CRYSTAL
PRIMVEC
9.31334472655135 0.00000000000000 0.00000000000000

0.00000000000000 9.31334472655135 0.00000000000000

0.00000000000000 0.00000000000000 13.63102141461711

PRIMCOORD
 96 1
Ni 2.1461112882049704 6.350769797108799 13.573157835673529 -0.3898995668788898 1.194973673153374 -2.0416600556520064
Ni 2.091581654589965 1.863404707780806 12.912148778791408 -0.8682430256234853 -0.3662194496531306 0.908791379359493
Ni 3.4547852415860234 3.1098655181134847 11.420355840587428 0.5269439933611183 -2.1096863030933086 1.178595746015983
Ni 1.8046840690203265 5.593091946875644 4.423198006547351 1.1681264710535428 2.638945831961481 1.220136288461931
Ni 8.389731053761142 2.7970209540209754 10.577618281256202 -1.2426609519270082 1.8314600309217102 -0.9665527545396773
Ni 6.947717943340631 4.213711080018054 3.024382983162959 1.5144016163742628 0.2591602566790827 -0.7939317165044197
Ni 1.317912791390632 8.650951747806175 12.80908451158838 -0.7513825302882995 0.23181117524216852 -0.5082446171794022
Ni 7.521941528339224 8.015912021474366 7.4292476705350525 -0.7680790171073739 1.808879060297401 0.5318571143920195
Ni 1.5451677170677869 0.6094606249272639 7.663278054530724 0.8802778453008324 -2.4147389514291318 -0.4386145155860898
Ni 5.49160442894179 6.537046005807984 9.949582190189718 -0.930365505985843 0.4779271971427833 -0.651498257796136
Ni 1.7511137099163965 0.5667812911947068 2.0418316295097543 0.04884221831368363 -0.6553320297199295 -1.7554093705140348
Ni 5.521174298579304 8.963824251932987 8.795839452357606 -1.1460039281228909 0.2537820230863049 -2.3447144426108784
Ni 3.90865247215136 6.105847456407279 3.2451232241750936 -0.4495054514669806 0.39324071543698086 0.7724177536920439
Ni 3.006804044913886 6.860554349659532 11.337343204669303 -0.2740795969930763 0.8901591089702864 -0.20891215915680794
Ni 5.696237240178151 3.8605956131499206 6.714259398713698 -1.1919893937140698 0.7525012172737751 0.885473787679475
Ni 4.755226198192411 5.412124344694061 12.117923501020762 0.6050348241272742 -0.3320587446110217 0.34026082080583986
Ni 3.1903235035618245 6.981879291948631 8.7130987661067 -0.42229161005635013 0.29303068417428246 0.403724388577124
Ni 1.6903068819279474 3.2200330733708533 1.1871217654796222 -1.0944093438750506 -1.5680142594933963 0.5811626454953669
Ni 4.827935480794007 3.843347298640102 2.2782341224177642 -0.49204923836646225 -0.2717316655861901 -0.463590211694821
Ni 6.211283832522646 2.748340100920099 4.816725939031579 0.37614262230411344 -0.8590474751671463 -0.5787301247944743
Ni 5.0457746149109965 7.140578686790594 7.013569810189754 0.13673846520603547 0.3359951035509504 0.20172746848291068
Ni 5.571745760668027 1.4225482198559751 10.613604114104197 -0.14373315135631376 0.28756143352959507 -0.3765005198641645
Ni 7.317988591270907 5.015487617726368 9.885380648033435 -1.0513688198448086 -0.29503100243376285 0.413849392826268
Ni 3.8056841323994393 1.870473536459506 3.5423073990406793 1.676894564836583 -0.385561087404536 -0.18486668817183
P 4.0024657939966115 5.5328532329180256 6.088091564607619 0.08805642661929995 -0.35717662272457196 -0.7885254578871839
Ni 1.7718172753350399 5.381706960682685 1.8189781905698243 0.2845349879984455 1.850114412798104 0.8931824691776424
P 2.441279123928345 7.611517278315162 2.033625641434915 0.007279564380548753 0.1376020987579114 0.07164816046460565
Ni 0.3770982609794912 2.3614637592689776 8.34821030011769 -0.35566635672763264 1.4821710384753313 0.6508410838281113
P 3.708424872990131 8.707297483650885 9.941840006684311 -0.4893017575283121 0.3461129087112426 1.169951954298056
P 2.1214868046391167 2.5821248368505865 6.995767351666256 -0.8548912869069276 0.08947310446116849 0.0020106026721255694
P 5.931035975117159 6.377294203007269 2.390445025517171 1.005193863950643 -0.4745778210545762 0.22357644603720206
Ni 6.763574490593256 1.2178036484824013 7.288712091993576 -0.237432635194004 -0.11598040672307766 -0.1655916419923019
Ni 9.273250818495741 1.4796017699030326 6.0232893117138175 0.2569799611983123 -0.08599748720774222 -0.3177140458535754
Ni 1.603068781488707 1.864634069290145 3.8265553380239017 -1.3761096906381782 -0.23020706397984225 1.1251304271079914
Ni 3.2433909420482974 1.6100537900644976 9.641112104134608 -0.2936752597368168 -1.855317040044966 1.7004844363413811
Ni 0.2812248272716199 4.484720099413961 3.243419813417077 -1.0350248312691466 -3.6733394574045315 -0.125824389396693
Ni 3.5447148986631354 3.8936859271096327 0.04644192501871644 1.0545323051744548 0.2265571259320808 0.44961806578544505
Ni 7.822166510271471 3.2432046751529424 6.852927651629246 1.75278041753162 0.8193671258583888 0.15984728330935696
Ni 7.208091123011801 6.676345703498783 11.730557277434858 -0.2433924523218647 -1.7753989262620844 0.6854553314678711
Ni 6.880959888045609 2.2840605509044503 0.8110135130489398 -0.3260588182738449 0.7305542806890387 3.0806248454055076
Ni 3.1520922232903303 0.8201536296039809 5.7861100858521795 0.5940785822260867 0.2396329852794325 0.12051506136863761
Ni 2.196347469882056 3.8342667874915746 9.518079094415109 0.7061635105494999 1.4509568176560559 -1.4142234667907645
Ni 9.272785151257356 4.812447388445288 11.41165903924333 -1.9447585199372508 0.3048670146875782 -0.7961325808104806
Ni 6.067048062104954 0.053685844579049666 0.026163979455957987 -0.4375405657956207 1.5053109669269042 1.6108840622737288
Ni 3.6115102073372287 3.314470389315542 5.588991281174416 0.2291354281822183 0.7154976434662323 -0.9741369946448384
Ni 8.156282753813453 0.9384498721746167 9.411852015328963 -0.714731197613853 -1.5949133978770853 -0.41782020454855784
Ni 6.015433505402245 5.61468028004722 4.817052837432925 -0.32025918087293226 0.005352779671481104 0.26619042405298676
Ni 0.016997785535567196 5.389986524181189 6.2865039928736195 -0.048499490262284214 -0.6785110389395541 0.5929059020742241
Ni 7.392355649241157 0.11575928745590866 5.211234566719847 -1.584707146768045 -1.0762655830864885 2.5842186156219302
Ni 0.923660280683476 6.8892208248545765 7.838641817165569 -1.5311379552923372 0.4723299055606639 1.686681726130334
Ni 5.023497094226608 3.8182571478358622 10.28155263909722 2.5871247335251315 1.0114925524751612 -1.3579191357720808
Ni 0.7930806676986933 7.824923260322716 3.948047920518819 -0.31599937715531384 0.17222431681747113 -0.31076024024356164
Ni 4.064967650732786 2.2932993889140296 7.827028076240221 1.7743038934256927 0.42470870413827505 -1.6138277182830851
Ni 3.863659703578501 0.6175483335235528 12.164282537271045 0.6039277071060244 1.0167394026963974 -2.1568040825167176
Ni 1.3454337251792472 9.404615546444443 9.910979307461993 0.008114144466702155 -0.7542493103131332 1.0387233631666561
Ni 8.942412872311998 5.523409501323557 13.698767847890256 0.43800310725433594 -0.6128306660226092 0.3252946864143107
P 6.959098850646786 4.046285081128738 11.939493785288382 -0.2935135373479719 0.5698593046674058 -0.003184568375568709
Ni 7.97650725976214 8.684796442692072 12.584090866020828 1.601302589232881 -0.26502879964471776 0.2281787206959038
P 5.199696263887118 9.319212174924443 6.357004150096312 -0.1354734824506828 0.10612074032017853 0.8589765127198948
Ni 8.920219171730519 1.5503925034824784 0.2453116385128118 3.404053682255673 -0.9578883939964601 1.0081475472623282
P 7.797933187185861 0.42686411874580715 1.7313982903776084 -1.1536683866466841 -0.7445045722215435 0.8096031044930895
P 7.890116673696761 7.224529176526828 9.325636520145219 -0.5324710938269345 -0.9858974776148763 1.8695401256228832
P 8.818694400417593 3.4899338047394015 1.1953463802439965 -0.5985610434774724 1.9516040821041745 0.4081960511952325
Ni 5.094101560910699 8.107778854263163 4.657106385726566 0.5824283995816679 -0.34143967160528943 -0.24168986780846122
Ni 6.417285705439862 4.811897901103992 0.44976935886753966 0.29854235802113105 -0.40873958240352826 -0.3642173316214372
Ni 8.63356373312484 6.204121870396269 2.474275373105903 -0.8998462543510632 1.448561320840686 -0.782499049187446
Ni 3.059368562782902 8.910803380170353 3.7832901949054545 -0.5243566922499163 -0.49150930670259224 -0.19889925500549616
Ni 1.2227304078645256 2.3890219464366638 10.767416796946536 0.22502989065427695 -0.7678352765276841 0.2299131868885073
Ni 7.217898075052211 7.1072648525564555 0.6101013830472832 -1.5300966585120164 0.33120565258210705 0.5542295685499488
Ni 2.2669519365661475 4.893929841818077 7.319817732183287 -0.9440576587609547 0.12244544562213105 -0.9591626327231931
Ni 2.7176433165656912 3.858695690817306 3.2453141477428313 0.41679073484277895 -0.40895478373812794 0.3433780262785828
Ni 4.23820517675716 5.994878953499886 0.9023560045273148 0.8458497455299497 0.5744101572628817 -0.41465543366733104
Ni 8.009625513756154 6.941785342723593 5.475335878301536 -0.032013062571486804 0.5261862892594873 -0.8597319028286806
Ni 5.925960202218753 0.6829727178478376 3.12281293000957 1.3100837614563567 2.152503655369151 0.5577846328910587
Ni 7.4236205476263954 1.6145987023111452 12.222814115132739 -1.0569763958395733 -0.42194116869546683 -1.0829591930565798
Ni 7.114315054545621 5.743865685320276 7.508266744216779 0.15485034431539782 -0.7442829431290408 0.21837279034907553
Ni 5.035474055597897 7.938229412766807 12.36979732225691 0.10208205147443064 -2.1746621937440613 -1.1891326409915648
Ni 8.319387360730547 1.3251678869646866 3.774784317129095 1.0629125588183501 1.5152989313775516 -2.36065733909338
Ni 1.1415552948690715 3.6597067665101837 5.34246052583151 -0.28327874699384115 -1.8810707519703025 0.4002045483493237
Ni 6.550466535618269 8.636944477275524 10.646740994787748 1.5827579934614742 -0.0694732643004739 1.3235432293953722
Ni 1.8851141144343633 4.293386744505906 12.152559830211915 -0.15043833129063122 1.917068253110834 1.2091283673872013
Ni 2.206322062128285 7.738122887087559 6.186125694301602 0.6022783444280595 0.23665384804645048 -1.056704116014793
Ni 4.867675522917872 8.435757603603218 2.173343508305786 -0.9426288967342282 -2.217652067042026 -1.4093005755678503
Ni -0.1208350603543165 8.216428334323394 1.1148679054371675 1.0164054163957463 0.06225103552042183 0.5505143244818905
Ni -0.12331520406596053 4.6666935428304575 8.708328470916673 1.3376624424055739 0.5008871483730665 -0.3635719847279545
Ni 3.355737819981313 8.647403363449673 0.1715583299627542 -0.02094703456531231 -1.137114596053061 2.5077236685879845
Ni 4.28989424021801 4.926042254577179 8.361827341502575 1.2180436675989603 0.12999780404809225 -0.025240005513711368
Ni 4.046862508504336 1.72605149914646 0.9722163349644651 -0.16658125959908082 -0.6931228753154579 0.520810883880187
P 8.178150487328061 4.169342305544633 4.86865994345982 -1.0456524861863217 -0.14639244335603174 0.37495425842296715
Ni 0.17360633447717597 7.186400343047779 11.108137133263309 0.28656461683396456 0.6592370212012905 -0.5640732941132479
P 1.5380988883890867 5.8156902001689375 10.090322662316083 0.07685592991779021 0.026563095200509094 -0.7810995977367581
Ni 7.387289189687516 7.985131417017048 3.497474819997825 -0.4600577730615303 -0.4222664132453695 -2.3045995768678633
P 6.217961500721102 2.5806067616534483 8.859237252860437 0.28925656184383086 0.5377917347088996 -0.169484806399121
P 0.030891433260053055 8.623803347808268 6.478047829373426 1.200791565386732 -0.10717566394725413 -0.9573667171650351
P 9.481357507330463 0.9374812843187738 11.819976563218699 -0.0682051962213277 -1.279866871553344 -0.5248629424623734
Ni 5.459128795736747 2.566506357675119 12.844497573733161 -1.7740817501125574 1.1898672051647443 -1.483384342057142
