# total energy = -340897.39626857336 ev
CRYSTAL
PRIMVEC
9.00620027643699 0.00000000000000 0.00000000000000
0.00000000000000 9.00620027643699 0.00000000000000
0.00000000000000 0.00000000000000 13.18148446524712
PRIMCOORD
 96 1
Ni 6.142606838839528 1.8593390502128306 11.282559706892481 0.9954717515668726 0.37766060161053666 1.2908197710204221
Ni 4.623179798900964 0.2964237710709561 6.051408253750257 -0.06435651189919885 -0.2846663713699871 -0.7622672955216033
Ni 2.7065252902231496 1.7028923454681353 4.765515589075744 -0.2872711559826859 -1.1262869093099377 0.031958555184467545
Ni 3.3836834754942418 4.380750900258531 4.939379384506398 0.2493309292934867 -0.5014710459009944 -0.6733014697141565
Ni 4.926913902724282 4.5289839503646245 2.4810451598530694 0.18734677428120639 0.26959919262421955 0.25046838533203963
Ni 7.063085536578955 6.014187429309011 2.7182729778444137 0.6146083267483221 0.5564301757456933 -0.48778120711872763
Ni 4.974475646305926 4.545780513852556 11.20467048454984 0.14164490136871735 -0.4346293056860966 0.9110236111241214
Ni 5.6319732964058895 7.813112888166859 12.525336088434488 -0.48306657525187774 0.10637990751883616 -0.26617242633085775
Ni 1.8691468022977407 6.341724920423805 0.30190494455018135 -0.21721425126460012 0.4577291249283536 -0.07742440082675053
Ni 2.6028909438126258 1.4991720955501682 0.46974179076575423 1.060285148497832 -0.38306223224208225 -0.47589011210809656
Ni 0.540136953870697 9.131656631269868 4.59958715669561 0.22295681017533214 -0.3005066808363534 1.0777262267924148
Ni 8.486074184116033 2.380113574141059 1.2844021385312128 0.19196601822077264 -0.3631606082221488 0.9070818528675539
Ni 6.926794708019777 0.5408718598120457 4.876648497824098 -0.6065198933132327 0.4528049481538589 -0.38398988626267416
Ni 0.8144793231402 7.482387202159449 2.3828955894018753 -0.06843299596141762 -0.5705833273176237 0.2667745786912309
Ni 7.470039701600761 3.9742470452498058 3.934660291999831 0.5072853385899263 -0.8638430967835768 -0.4062322426006423
Ni 7.496770103977265 3.6605700963376537 12.591467716335577 0.3271294256302043 0.06748785843932893 -0.7511986964122676
Ni 8.112253829856748 8.725873272282072 6.969287762094178 -0.4857160970595829 0.11795295706841621 -0.22628973120330706
Ni 6.726055510388408 0.795396986025868 0.4226825931587091 1.268569444262654 0.14353646196447536 -0.7257170072013954
Ni 1.8389129880194641 6.559945152762988 9.115721060526948 0.9234065581695063 -0.02755862634455899 0.8480089579647976
Ni 0.0008033530633369879 4.922221672387975 1.3797192590001255 -0.7416177375920517 -0.5112219546401713 -0.35826805601653783
Ni 6.37693916344676 1.8760005206968375 6.9839066263588485 0.05116829534369898 -0.32105699418387934 0.2518686081136759
Ni 3.228497638786174 4.299749135105472 0.5570992314434424 0.3710796059589093 -0.08776666329302303 -0.4114117299190528
Ni 5.7994255778702914 5.543730546242484 4.805336503532522 0.5779881044221271 -0.07709864205621561 0.2577785458402077
Ni 5.384374838813284 2.8368630204093925 9.173509344505666 -1.0881890739969518 -0.04661101499031972 -0.554432171479058
P 0.07890241987207419 5.5159464184353695 12.330250983327366 0.45320501180575495 -0.9685163060239514 0.4343814513413487
P 4.071333884070128 5.996805462804074 12.595435848170847 -0.2213516704717414 0.47150355300462665 -0.3328308468903558
P 2.455324352525893 8.470844699473625 1.3518801933714153 0.038620026365043164 -0.34259923913102935 -0.12400250569660579
P 6.4757822113181 7.705867055451423 5.855386503815927 -1.2068966498432052 -1.1354716611329994 -0.5197377054206661
P 4.662852111053424 0.9046908286807972 12.613520298296192 -0.2627811412611216 0.2675901326139908 -0.3687851534977778
P 4.105881668273723 6.2100272539980566 8.149097294507031 0.03678888669357535 0.16993063568728797 0.2519732520123403
P 4.576869917155686 1.0825272590468529 3.6534597012311005 0.5571246307095565 -0.31901630960476673 0.08549252254686567
P 0.17459059579176583 5.655272336482715 3.5404408941479635 -0.04299990060029368 -0.9897510470330115 -0.8123667832811557
Ni 1.3377089372597477 1.0047226949866708 2.576057870753139 0.025080340007395514 1.1751880058860147 -0.35176419345974896
Ni 1.874721640259687 6.591232692471876 4.713013044030573 0.29831070162629914 0.09503877147440407 -0.25883295524665095
Ni 5.974911389968062 5.523421564652518 9.248947079137093 0.09730365624918082 0.43120896715063795 -0.7448624697815945
Ni 8.677527989277667 2.373385942545625 10.131618648798243 0.2042684897372095 -0.2053470675133689 0.38185844174196815
Ni 2.50733515903678 5.2555681626715165 7.0099003215539515 -0.647943193455026 -0.08852848115971206 0.014623663450445783
Ni 0.5728528769410776 -0.03532411866614724 8.889315993389998 0.647345154859711 0.30223677615358274 1.376096835122372
Ni 1.5677903353434925 1.1075735019744333 11.394391496781136 -0.8664201134821337 0.41099983919261474 -0.25953383796841756
Ni 4.048647265611094 6.855501626748751 1.4796871812841417 0.16179875060877297 -0.5649143019573045 0.37376306632834333
Ni 5.902618620467995 7.857324325251177 7.983312961331082 -1.2466898705807434 0.2019706948419683 0.5787625206943064
Ni 5.156716108599916 2.603269204223614 5.0159500991307375 0.043738321428214995 0.8677799699441378 -0.5143679564683206
Ni 1.0449714039558748 7.4056183511293545 6.991973479933186 -0.9185258330384375 -0.6550785189482267 -0.9030956145262963
Ni 5.040310970218407 4.431176615523372 7.125699342657853 -0.16006531285743403 0.39377139112947024 0.06806018600303118
Ni 8.201892541060705 7.089554759147872 9.130906414788074 -0.6175877210916203 0.152033443691893 0.7346436202670638
Ni 4.511791114065181 0.33652117587576486 10.428940338035282 0.18335693639552295 -0.3988565189618615 -0.557187365626692
Ni 8.369398859726676 7.024358875453965 4.877425732906676 -1.3207224721171253 1.5208820818922841 0.3187340024776575
Ni 7.297516929389065 5.9537288069527206 7.063970846064673 -0.2407110488349596 -0.15668148398686563 -0.7783467175819692
Ni 2.106280055186338 5.228477512284548 2.5382399352345475 1.0549670787190284 -0.1770585049813209 0.3485999367991545
Ni 2.4511544818047604 5.245400162576141 11.165561059913731 -0.0765527968550746 0.15116235394084934 1.3191134757587928
Ni 1.0340198644377383 3.4570750014262277 3.874644774696412 -0.3926506472614657 -0.7004777730186323 -1.0182175299038208
Ni 3.472142374463927 2.7241324117346273 2.6584024603652066 -0.5224620463303647 -0.11602514391808405 -0.2118488731876287
Ni 1.1944383034978103 3.5469748924377726 8.265133178677813 -0.40728253824202765 -0.3528512558763407 -0.7183657090426467
Ni 3.5692922566860803 2.5604807467806316 6.931931844649009 0.29146616790063995 0.4001305005782786 0.6924320198960204
Ni 4.113536938496105 6.850097906591775 5.814431708746212 0.077601292724247 0.7476107219506931 0.7139161579117254
Ni 0.8403505340117452 7.286844582079039 11.432696667733882 -0.11583333962225212 0.4995023522103978 -0.8757110518657563
P 0.24626734119393795 5.5720820646660805 8.010664791525638 -0.10382114565272442 -0.6386134314136679 -0.6538688149108416
P 8.491513929074056 1.644910428183791 7.915995216855537 -0.17252256478418032 0.22934857263428887 0.8948598568800653
P 1.8168387911782202 3.2947562541109523 10.372061680282988 0.2973308542115331 -0.6247544140433886 -0.062068487195970516
P 3.909879731979969 6.102988563888638 3.6820237659808717 -0.04169789395941851 0.32129276434376924 -0.22889451581600578
P 6.9006677210608025 3.716336488357639 10.387338897786783 0.3269059967654886 1.5763186655940336 -0.01318050324601601
P 6.334718096620261 7.716944681773223 10.296808572756923 -0.23671632585326974 0.4417438052436909 -0.7085659493434054
P 2.3896331278175973 8.530961086219975 5.672440856041452 0.37621512741326174 0.7084242815592187 0.08199479380625233
P 6.762215404438834 3.862660224008267 1.491906793799115 0.3926398486281883 0.43167382260219844 0.7379955674584323
Ni 5.0448320827497435 2.7651016167247615 0.47881914000944653 0.36852752896101687 0.2107232442236177 0.010297782381582266
Ni 1.4620035070704402 1.2714233033341844 7.07141807306101 0.35492536479655 -0.4073915530160661 -1.0043065762496834
Ni 6.889067735123828 0.9091308854097785 9.224099873235296 -0.39665308355263945 -1.4927328731515777 -0.48347280955136096
Ni 2.763696649483948 1.6111822082040037 9.260875791383615 -0.37299584914501566 -0.1467138312511925 -0.5367854049315723
Ni 6.2969190741222185 2.0159838913632817 2.6234187760689487 0.3485153475051482 0.03524751034838445 0.37934930216686924
Ni 4.1961778320967795 6.92004906402382 10.48073049263976 0.05203527132968458 -0.5255725669348884 -0.8186500451867063
Ni 8.065331526493678 7.135387312279283 0.13612511447436365 0.08908075411875625 0.7206419066713331 0.8036767117063256
Ni 7.587156329802938 3.7449491865888227 8.147449159859153 0.5757561297678149 -0.032783107968291925 0.20534603907210439
Ni 3.038989172881052 8.263449919848915 12.23999714864554 0.5700107426436054 -0.1381659416811814 1.4634706338523504
Ni 0.21944507557476509 4.841913384655061 10.188325288125542 -0.9391643352243955 0.14636647521410276 0.2384011697548604
Ni 8.62650786479556 2.398152993265095 5.834876683960127 -0.332943204098504 0.7392860041350816 0.14263914696118662
Ni 3.5091128265378995 2.6432927581862775 11.585615643836096 0.5769180112864 0.11223148120360672 0.008274067083334138
Ni 1.1215601309807375 3.39868780513011 12.566093647718473 -0.6791144768515078 0.4113019438140659 -0.6446688935791284
Ni 3.0490040675719796 8.299699875901958 7.814814159396279 1.1797283169585298 0.3374884002670252 0.909403559022195
Ni 5.504049227889762 7.8485793047971395 3.612438260279449 1.1342863825756464 -0.21512471572542305 0.3646024828749979
Ni 3.2580199632437825 8.370398547955716 3.473295168097415 -1.8170860215882252 -0.13437227896670406 0.5691540510702651
Ni 3.503925255187203 4.263436135650599 9.227065614981449 -0.25510665543499933 0.3181071675269361 -0.7006747195207869
Ni 7.112349452010045 5.985304545069978 11.36620929492246 0.5398776707036509 -0.6965637826762069 -0.15062987847614703
Ni 0.6183882254638557 8.95015467739733 0.232426612631872 -0.3218614923630457 -0.03859842909848836 0.2313730592634854
Ni 4.7234368202133785 0.15951962027396185 1.549641941196291 -0.8804637360593932 0.8179995560869009 0.14505495549153083
Ni 6.0899205673090195 5.616473625755633 0.4189008896688526 -0.5815999901431016 -0.149876031029258 -0.15568980949755767
Ni 8.008574452444915 8.841161641831139 11.18040327794489 0.006332627086247159 0.24082880535974655 0.3776899121865753
Ni 0.25278783018335477 4.979618186655314 5.65931251792008 -0.18751441020732224 -0.7332847922463243 1.421424612524894
Ni 8.036538704257262 8.941319594940676 2.5514475279182216 -0.5393804193522581 0.4923549425323391 0.06973783081577023
P 8.298565094668993 1.7964127289848537 3.7766140860886717 0.5365493776613662 0.09268492653024683 -1.5766719351683942
P 1.577679143230757 3.0986192248132745 1.4993675300958456 0.3762930318390487 0.6585127414407562 1.541152659215862
P 4.590892570963037 0.9846748932042926 8.162502122976434 1.0117226662080965 0.01514559739218682 0.08798135040699041
P 8.604109444744896 1.6069763126818246 12.34675394468677 -0.8365276967980755 -0.09661537193290456 0.170108556026049
P 6.496280323113559 7.849461912422778 1.5134190037440334 -0.4802769283218825 -1.0366801074843823 -0.028386264452176922
P 1.6967681292902301 3.296719605767987 5.9756679107900394 0.7422132050842056 -0.11969256546734226 0.4615438706887535
P 6.761368821614242 3.8447739102886787 6.012681592625268 0.6086148281690487 0.6630579376092773 -0.32981931375754164
P 2.34426889709979 8.478256802288943 10.202732506684063 0.15961614113515737 -0.23066831988697692 -1.0949243358382563
