# total energy = -340871.6555557861 ev
CRYSTAL
PRIMVEC
9.24956309436427 0.00000000000000 0.00000000000000

0.00000000000000 9.24956309436427 0.00000000000000

0.00000000000000 0.00000000000000 13.53767054876899

PRIMCOORD
 96 1
Ni 9.011174050598985 1.2787058422986193 4.260832487817254 -1.3512178124925052 0.11882738925356955 0.0770806443340866
Ni 4.861894067898547 5.4559842523175 12.138796322717912 -3.1528949557248285 1.7916431560350887 0.8422124058876785
Ni 1.9401513447660976 1.6686211721991457 4.904955408625671 -0.041968888232618046 -0.1206814117431728 -0.22072586396228439
Ni 7.417298597316366 5.0892020795770065 4.182178828516835 0.05255026329289014 -0.02195722099738154 -1.564548412431983
Ni 7.490730878281383 6.071921904634092 8.542202705405854 -1.5771231637732 -0.6046884965314488 -0.5266187488112156
Ni 4.766558821657657 5.850302374224494 1.3428219633709586 -0.6564016086350244 -0.7801038094823919 -3.2130027196500017
Ni 1.75607579073098 9.047423088148035 0.4152545078453134 -0.06980287972575075 0.8619582210560381 0.01871454569036777
Ni 8.51130916485627 0.5528380582222171 10.509225880712268 1.7547349701548294 0.47317914093483665 -0.25213574573213354
Ni 1.2891208502803055 0.4556288505096664 6.977667791038606 -1.3284370671525638 1.408108355031962 0.6683888629038875
Ni 7.569897888330455 4.5097909517006265 6.679568248642705 0.8055523314624836 -1.37907622946567 -0.05516301832538886
Ni 3.88026569128004 6.457776676360586 5.671485196776933 -0.3712313010454252 -0.09839457532051442 0.7589528864363897
Ni 8.317688061765113 1.920505272871691 6.5797682383229885 1.6565627952577664 1.012783246262127 1.7929639317290411
Ni 1.9142895665096187 6.2157711090134775 11.209489024384668 0.794076212502084 0.9020298922659432 0.1348062811803291
Ni 6.475841072975358 8.184226116678296 7.082097207659241 -1.9560695740746954 -3.5413181951685075 2.1654306478434644
Ni 2.362356899235068 4.575065118065424 4.706777045825299 0.1499595918819998 -0.41300170011399195 0.39333301804047094
Ni 7.018281697385663 1.6978127931495919 2.5905954169552294 -0.34567890649761757 -1.5142805174153664 0.7094822905100878
Ni 3.545376011897322 7.1442607459740906 9.49013677378663 -0.0011724230415463678 -0.054742128737886364 0.10002851137951159
Ni 5.277245696155768 3.23876224672421 2.6220161825980264 -1.0375033747166262 0.8592788744516621 -0.327560599630352
Ni 0.61965135187667 6.062792585914798 8.978806129701017 0.5991657669410068 -0.5747824530006359 -0.5740926260224629
Ni 2.0668981070867454 0.43307749086477315 11.50029158649926 0.047981155864968976 -0.21855919532826878 1.1173829219520885
Ni 3.940110364141063 2.013102648453097 0.502854344516857 0.26339666335793344 -0.07852611853136153 1.6762795569604034
Ni 6.189493100420252 5.99806414376929 5.881196839730382 -0.7167371723002882 1.4197739642953484 0.17901974247274974
Ni 3.7850784380477704 8.324717729674598 1.2055501232684624 1.29472296272957 -0.13459853604489722 -0.24565913686885432
Ni 4.217153276279138 5.573509200288466 3.437092302358419 0.7687721865196567 0.5556750427472237 1.907862932462482
P 4.8652146610294755 6.923399679733674 7.7860962498430135 -0.4661363751554424 -0.6492691113553011 -0.6104053444105682
P 8.741651033211454 5.23483644962288 13.06377112572378 0.3262858466829865 0.013314714831035133 0.9898904008243531
P 6.435540726815316 2.5491518248035914 7.467081595503784 -0.33009930689180567 1.8185546357139522 1.1755507885420724
P 9.49014417343706 1.5821192586603074 8.753552445973474 -0.4221951936878019 0.05652133212549621 -0.3308084171436883
P 8.808997101696942 8.83763374886506 0.6040898870201963 1.4748678199456986 -0.8453447808690732 -0.33464630283253977
P 1.9291721134390445 2.111462501807674 13.1423295145249 0.14294356557548285 0.5952206662503298 0.3339371925806571
P 2.8438521527827327 7.896203973213168 4.4674446021964025 0.8404787110260235 -0.2515341075923926 -0.24673540065216862
P 4.885101221562891 4.2283822458082385 5.000043691533426 0.007264651982213295 -0.14893629282380802 0.7268884018016772
Ni 0.061132212036023245 1.1135086464256883 2.036092437386029 -0.13023074599450477 0.02970369771201981 -1.5593807521881144
Ni 4.895026002703522 4.411218358396157 7.371153452272107 0.6802030819299963 1.0349343284378694 -1.2254427882765089
Ni 0.952991729450389 8.598430799118706 5.004078350930949 -0.4277490336264955 -1.413708731937875 -0.42604953443688554
Ni 1.5163641150174931 3.0964207211201487 2.9981607630463905 -0.6402887622335619 0.06581998381860277 -0.5565867559282156
Ni 2.2570783727274697 2.3720781899888443 9.486021643190668 -3.120941799856999 0.7614118894998435 0.31375891786056936
Ni 2.913085132128135 2.983113573894874 6.603363873634962 -0.1744038409672932 0.5736907625983539 0.8309774564038076
Ni 9.2836014307807 1.294134113447334 12.761840414317213 -0.9200651525010992 0.12703743586818766 0.003790320280367665
Ni 4.839806111361898 9.44065901117949 8.864561076783609 -1.7693468065307334 -1.1027530878540557 -1.4908531396303615
Ni 6.693261301765342 2.6139450138903713 5.035472292840933 0.29514361675222717 1.7677403812755619 -1.4047422667732066
Ni 7.979866270899095 7.673936973390854 4.2534143382601375 -0.2363802826700897 -1.3443815062969622 -0.45388609703317956
Ni 6.800741224276174 4.520548193514749 12.339681107663436 1.651769230523865 -2.1760827282406714 -0.049476509463572856
Ni 5.428772037857356 7.834416892113998 11.501063000056694 -0.7873311804687666 -0.6340746630030499 -0.08867529115022148
Ni 8.603379315344464 3.861378083554815 8.680340304608782 1.5717593283581253 0.20020691807332616 -2.70119172527558
Ni 6.036338835623836 0.7904852314654444 10.599968718904394 0.40054573373882635 0.7695802842432488 1.2129066034827112
Ni 7.202782731320565 4.576461802084282 1.463394642363209 -1.257958244405711 0.23322065399518543 -0.10949582743999851
Ni 0.37362222460768396 7.391011339160103 2.5655374257268226 0.6426292374412804 1.8114915582195832 -1.366833407542575
Ni 0.19988398222472703 5.118042217131979 2.0653071822440725 0.7737899514492222 -0.10853372063704535 0.4370934509558731
Ni 5.759434666931343 0.9034011221741778 6.256217598269533 -2.0217754009129374 -0.4909603761776577 1.6428205059710093
Ni 6.755002135049319 3.478806906707094 9.863695176409344 -0.965406556750376 -0.1891519458107452 0.17900045919904012
Ni -0.20635035174515068 3.0648519624687314 10.638713288561311 1.5074845775394554 -0.6357463942785181 1.5571881154121696
Ni 7.376868757273781 7.867345336532118 10.05996442939851 -0.6474104608800075 0.1037571251840084 1.0234019023182375
Ni 5.583498728370368 7.655650587263151 4.054342467670216 0.0025783022501374947 -0.6057120526999569 1.2816496744853798
Ni 1.3982564445750822 4.219382420971488 12.442391955471464 -0.8089436165322198 -0.4745582806705504 0.28684615263012536
Ni 2.3349596935141483 6.268216131443461 0.4469231617775498 -0.48097164039606194 1.1891562951406487 -0.7213242774503384
P 2.3743998303115825 5.509844457892419 2.493625772925384 -1.4728806143123407 -0.4306973176215421 -0.14571521478334903
P 3.3676364085437815 7.737435223652201 12.60478930861255 -0.1359951592821077 -0.5057316209495613 -0.21958995058562827
P 5.139639946827572 3.865743877309127 13.848495729328661 0.12859578149424306 0.5322661769049801 -0.13317800154828677
P 6.282358713329783 6.034303931755301 10.558529751534277 0.6563465870273729 -0.27797121873799874 0.21476990348916558
P 0.6375131830608927 7.772676058830021 10.223851887145146 -0.29163328960612356 0.6893963183934901 -0.17610025483310962
P 3.423975497013099 0.8037269059117875 6.3618254092213125 0.26619248093551573 0.8513115399754694 0.29540072706835574
P 2.658167174778864 4.277497425544255 10.725354870502036 1.1005087719045692 -0.47849566805174365 -0.8747093500741194
P 8.555124344971055 6.845647852829538 6.655470362057726 -0.47568313830361303 -1.1209377291828824 -2.1261655316952544
Ni 7.192756204986508 0.6544722568925287 8.42185294088284 0.2442118628993665 1.4173131614596817 0.36978659817909865
Ni 0.030551306717149545 3.503040761868744 5.132996910653107 0.9113853653389142 0.9708783784982248 -0.21493008321611368
Ni 6.948142260862459 6.698080324108556 -0.17953124371415607 0.38750252740162294 0.006574053673091903 0.5050297097865302
Ni 4.1894785836670545 0.0154301210613227 3.33486983147884 1.276498983522376 -0.15541907233467428 0.21593846987597004
Ni 8.772868308467396 8.14518371109153 8.220561175163606 1.6116314819627144 1.4224016317261825 0.6223375770717798
Ni 4.734287096215292 4.818448870305313 9.74414457413288 -0.7163821029537147 1.427377230563903 -0.8508320292358895
Ni 7.3193087264833405 9.090415057152368 12.625164246074416 -1.1428424996757738 0.11273284632005745 0.01391146787476959
Ni 7.984315310720757 9.068327100615718 5.96655180745241 2.503516315374856 0.8694750982583735 -0.16642313675466175
Ni 4.298604928398793 2.0421740250840386 4.630790035548966 1.219648293081919 1.2149511447165655 2.052276654825588
Ni 1.9712668748286137 9.435386760247376 2.888559915730762 -0.597604593101474 -0.43217261661548795 0.05332905044044364
Ni -0.029033453422482806 3.197333453873434 0.7413728265983391 0.21560756889911256 -0.10210313452035319 -0.3041972423140632
Ni 4.208985912115879 2.6533759011247664 8.669510916202956 2.9755176339515077 -0.4111674751187306 -0.20682108095573415
Ni 8.450937266902034 5.658568181993251 10.822568702996104 0.28534539971488276 -0.32026715129273226 0.9766985847244276
Ni 2.7632977082778414 4.016521004404572 0.8580810381529796 0.3562145159216188 -0.26101427916868597 0.8175964071112113
Ni 7.3111413623200825 8.37818020403885 1.9728309759384746 0.003234961997529913 -0.2133725089210067 0.7461819599239665
Ni 1.5792611436813189 6.28523532743485 6.6787422626633415 -0.33057341831474685 1.5625920600365606 -0.9443224823865672
Ni 2.665779565159795 4.889198777989079 8.458769796883288 1.0245074766775903 -0.4094517779792045 0.8095761079098961
Ni 4.742787444647947 3.1872884284132996 11.303792019390428 0.13271777408241656 -1.3785707505841613 1.3129749669612225
Ni 2.0877188734870797 9.1735778784342 9.241477070789408 -0.6703817249642002 0.20957267555894227 0.2050148809849308
Ni 0.5325852149924651 6.065511957448204 4.412576194250253 0.02193382395861384 -0.21318816082434255 0.8351195035966392
Ni 4.407278044541629 0.4714252542673255 12.53173995955734 0.2672319779436237 -0.678540863736225 -0.36126030587564234
Ni 2.959342196885163 8.193096447632504 7.366198461352223 1.4212657183495265 -0.9881801030014657 -0.8794162686314855
Ni 0.4749807862994394 7.774202236731423 12.358972921293457 -1.1117717464128982 -0.4725847018839474 0.23444475621027364
Ni 6.712037914734102 2.1596064774246173 0.25861593265218225 -0.3634940803021675 0.537058456087301 -0.8851750254921336
P 7.350655495621828 2.1996848340717285 11.620343515092426 0.015053294788696655 -0.06454908752597915 0.7083186092192899
P 6.327579827026467 6.53468679302819 2.4627461067203567 1.8521427560820425 -1.3799606889531524 0.2409889850866946
P 8.278349670161104 3.340738679226957 3.1124326396966118 1.0263273034951486 0.4796948305661674 -0.36336655358536774
P 6.540218031725392 0.36502660567572903 4.391579686152181 0.4967080772947122 -0.0008368940789985586 -1.42579548789908
P 3.349479516298621 1.9013401782553014 2.8430733395748655 -1.3248069265991442 1.2604810108275646 -2.2241091355212794
P 5.791586148054204 0.335602820693009 1.1591441405465095 -1.6684562042612427 0.5451610305897772 -1.1002899710255438
P 3.795363952146914 1.4001618545610748 10.580651006497865 0.8524194283276674 -1.6777895658470265 -0.6981861487709782
P 1.0434154577176775 4.395105619582571 7.232013200435774 -1.2411069771763272 -2.0853970915286406 -0.8107099644040231
