# total energy = -340864.24619065877 ev
CRYSTAL
PRIMVEC
9.33894037481415 0.00000000000000 0.00000000000000
0.00000000000000 9.33894037481415 0.00000000000000
0.00000000000000 0.00000000000000 13.66848323310031
PRIMCOORD
 96 1
Ni 1.0875756595392403 4.429608921223589 0.7709267399040532 1.7828916350947037 0.2503166902455237 0.23074493876118327
Ni 7.777394970280647 4.556441072698846 6.860198008061149 3.706124365145037 0.7171480345854617 -1.1867021771732016
Ni 6.531001287916268 3.747119146552231 8.414113663470864 -0.8817842546430298 -2.1102668581871264 3.6448223238014457
Ni 8.840241115269672 1.5145146652709838 1.7311678129669794 1.1750067431131443 0.6878392583190154 0.21170566274154506
Ni 6.694451425249302 1.3102160020155016 7.516135306988862 -1.6634155565135416 -0.07827440753187165 0.8878476872282902
Ni 5.063508188264747 2.282026154619518 4.120870084225877 0.6784516464565283 -0.6237061752845323 2.234719564047274
Ni 0.9360606882164692 7.4364862848044115 4.596792766984559 0.10146241561256074 0.2709037703682561 1.8011004447932466
Ni 2.3832696090148686 6.183321870548452 2.2596874088475714 -0.7096622677313779 -1.3915720479398357 -1.4718778840794393
Ni 1.3094969035939132 1.9160330748525431 13.080902723697614 -0.5538891544913944 -0.07516337270671572 -0.17362531093005582
Ni 8.638790828878923 6.527368440046165 9.0847710004779 1.2409861353277467 0.7426122402948372 -0.15646422576973698
Ni 8.63512062524666 7.354023439835226 1.2643524650230133 0.5657815350536063 -0.2825891771259843 1.030834447336883
Ni 5.903564567728868 8.40594302439232 1.7123059547581159 0.09887948537673293 -0.16803830376058157 0.9641238333832106
Ni 8.676706927471777 3.814471585727516 4.465343443306272 0.8084713048814914 1.3462077608724234 0.9510032368408525
Ni 4.575006886492587 3.1859889041996237 2.213159873182681 0.34491888840314144 3.6509387211118285 -1.7063141556492807
Ni 0.4058946371186558 2.5561427373528747 8.412719359648225 -0.3566030096092891 -0.664478729216204 1.048424392504504
Ni 5.988717027573606 1.189874414215623 0.8506458041425542 -0.8389327066951423 2.185905113647732 -0.5894603667277848
Ni 0.8620869401982449 7.836912038342779 10.966443311401212 0.12434574796863745 1.0009924242747856 -0.495483717969308
Ni 8.758245217327492 8.784524996007365 3.4446626148558517 -1.3131798838831772 0.32752331863451334 -0.43651315297237075
Ni 6.242932328015985 7.9959822125625 6.125736095390017 0.7231209643394448 -0.1206821830741212 1.9967503396235093
Ni 3.9817973833846962 1.1819549926376085 2.2413849531770604 -0.7168055636443784 -3.279730817105171 -0.07343944803707353
Ni 2.477508858005135 5.8827574082054985 5.542351157730322 0.3228436537706569 -0.4092252637906952 0.1766124185828378
Ni 9.20981100926351 1.71582486755363 4.152020120397419 -0.1925056927743265 -0.8496056130279561 0.32668359634203736
Ni 6.608645239566757 1.1778365198594194 11.895708052586642 -0.5352581696537685 1.6451676660469474 0.5596610239781652
Ni 7.2383513223054035 5.8890705320106145 4.912862672306259 0.7495886716126703 0.7214677450067382 0.4352653966081988
P 3.1441784674015434 5.561852733366183 0.11079438888572238 0.27642752839996265 -1.4485096416671441 1.109796367854082
P 6.66834908643969 3.6656182124586767 4.854621303521907 -1.3425683643476232 -1.030914922865831 1.4907279269064067
P 8.526079155500316 4.253523197339784 9.008829537687875 0.6070328283939095 0.8559089295381647 -0.19095814578154854
P 7.188472040880668 8.196012979991151 9.41482410147031 0.23081975786317666 0.06542763347619054 -1.3816455328547432
P 6.9674473351178445 0.6605936946810125 2.852803522550061 -0.6495773866243393 -0.7271383130289542 0.3178868239860138
P 9.04847147249254 4.919949994282151 12.98421200281557 -1.3311148710950431 0.7484195910052336 -0.5939361431109513
P 3.33958645926284 1.011491310958951 4.4269893484020875 0.5425295065042011 -0.5940076197788351 -0.41307600499535313
P 4.60451793859934 1.927398565489859 7.5217255967961725 0.08381950571981693 0.15687020295890403 0.8631072470588168
Ni 6.316074910326139 4.658319575050923 3.03280413030828 -2.1568189949150534 3.5933848339567596 -0.3761467360691716
Ni 4.9150377115580515 6.360705707167333 5.1330347327977695 -0.8278983032578516 -1.1631264467357905 -0.9127326233954282
Ni 0.03384712219952659 5.652206983091764 3.1874355060892867 1.699764527456221 1.078908162915658 1.0074417794445554
Ni 7.497936513558346 5.318825483690858 10.80158766351689 -0.6036556843915604 -0.4676088459359108 0.4728772934237017
Ni 2.0143534408588386 0.439620353091161 8.249340198263296 -2.390216283697419 -1.1369487598991581 -0.714643522996053
Ni 0.9004158199629712 9.095483699171462 0.7680522140058069 -0.26563403732888446 0.47751659196792595 -0.44373615308337133
Ni 4.688484352995484 6.497633253366449 2.2587170929254534 -0.3533821886791462 -0.39127510707017776 0.9370058941204961
Ni 3.162660230730425 3.312475514874895 0.26227480612849513 0.2781586521584564 0.6801326337033771 -0.505597152254226
Ni 2.9918136524896224 8.276187784528009 3.429750194601401 0.719062220889039 0.07330857888616407 1.8689261461879685
Ni 5.05287113498956 4.679453597493196 12.516640200687853 1.005973936649777 0.06809798121950209 1.269779405410355
Ni 0.3530605149070283 5.550907495053172 11.04204296896747 2.3827698547217024 -0.5980949024743313 0.10618578923015906
Ni 3.057858639989292 8.305082466559114 1.1912257589117772 1.2031240701746506 -0.10161256803717984 -0.9986475781916931
Ni 8.250178835123798 4.471428696962209 1.6696466082649402 -0.8270760644668723 0.695992226443453 -2.3220771648273364
Ni 2.6207588669499073 2.2392818237674272 9.297657753454068 2.455676570183758 2.0441632816898343 0.2536714656503696
Ni 8.684187418844406 9.374241735353253 8.236805472270358 0.4455986602134068 -1.4035505604579506 -0.3571763656142558
Ni 0.935547046486763 1.1690859325733345 10.49565984762175 -0.3008825761185334 -2.504780783909576 -0.3265799808846375
Ni 1.4556419841061201 4.522867581457144 7.668661685572127 -1.5906373962095508 0.6695867398667308 -0.6077913038264887
Ni 3.777470703307594 7.102058824063014 12.487144090885964 2.3134228315864482 -1.1210791398567532 -0.7576549935605725
Ni 5.204460817836651 8.483932516842792 4.234564214149304 -0.1244341939173857 1.7518126543017118 -1.6070083813684066
Ni 4.898797293958798 9.056979247324582 11.628721750955659 -0.8877972936063291 0.23393439223275841 -0.47429782792031216
Ni 1.5402527853995314 6.790988053612436 13.161861065345787 -1.9946541192161131 -0.17967151712413573 0.21011260722281233
Ni 5.245720257142865 1.8073464848467242 9.840078362328617 0.5606586120047441 1.126490026459679 -0.37332083658460224
Ni 7.74758507207661 1.6431772490921017 9.591037768839515 -0.8430845240799867 -0.6073295336987218 0.5860318006622101
Ni 7.790394775512483 3.1023119969602235 13.307307593105595 -0.21797992578603106 -0.4403808634578931 -0.030072651015664337
P 1.36360672508332 2.564762579471398 6.485039692048109 0.24995313625851792 0.0706801401243815 -0.5272697521316533
P 4.32261267945553 7.133895272364255 7.0330085654975365 0.3230223454403663 1.1197123414162136 0.37000719883033695
P 0.5678038492625712 3.359506419434898 2.538251195066129 0.4699192392366423 -1.0905454900442701 1.080675539228726
P 2.3083526280020927 5.831682742391629 9.357567057018885 -0.3041730739443471 0.00666429939405304 1.1267841606613302
P 8.555963765228674 0.650694417708494 11.58778450509808 0.8342836379589051 -0.6012139077192872 0.8092346654100773
P 3.504633555428233 5.204983798506897 3.7377970161050915 1.6906859621937207 -0.49603650514898445 0.290602534348764
P 7.432909470577549 6.589126853837923 2.8855122278977476 -1.5745921698212302 0.3291883650417621 -0.5852406722194824
P 6.192221880883179 7.9846260608657245 13.245962894379762 -1.035431579789262 2.1292590830189138 -1.0665388427170277
Ni 3.742066779720031 9.346878639570727 6.626439656871885 2.3338420186727484 -0.7788285423143941 -0.818463640207513
Ni 4.088270644482509 2.2777302419710668 11.911249917433496 -0.23692535654028227 -0.16034144933695613 0.13331478423646717
Ni 8.579712691022177 7.2625205004232125 6.742238783993053 0.049980959903817145 0.12971189737655725 -0.3107833801720131
Ni 8.672336303299005 1.765414641821623 6.4421608804522394 0.3116418715175665 0.3895408979878904 -0.13580438342754028
Ni 6.512444813063067 6.3264598122067435 8.057448317515354 -0.9618725754551886 0.4267542738133941 0.03838219932262422
Ni 5.5569030948799245 4.361247876469973 6.629788600949569 -1.825803089746249 0.3002583122709732 -2.2168694232397304
Ni 2.6046678723992946 8.970332556993426 12.620589146157675 -1.8818215140933978 0.9405061939642705 -1.3576286011148555
Ni 7.133064106656184 2.7302019111394755 2.6347644760779128 -0.2500600941500274 -2.050425203439146 0.3945720326538947
Ni 1.6284217230387252 0.9365649910056352 2.988163060632493 0.6835329176341777 -0.12615323349102142 -0.5542385674110132
Ni 8.057535169662376 7.034538283958008 12.761566056974983 1.8072721208215972 -0.5010846090958532 -1.7900434156481366
Ni 6.323630113223089 7.284924618778939 11.10560193049536 -0.9444757201349798 -0.21587187830409274 -0.20311792107253407
Ni 4.439153318455583 7.051955408065315 9.325445771031172 -1.4528285807574721 1.4774309526871847 -0.4818568712144928
Ni 7.919141409798462 0.20129245829562015 0.24842422341345555 0.19493204282763202 -1.5929984402425597 -2.704358553039336
Ni 8.840773434880457 3.1062530298681503 10.890377640702003 0.20049308185517728 1.0528297206610515 1.456511686036014
Ni 2.004071267324176 7.400419296438501 7.413539574003304 0.11936526403491056 0.022442388163916187 0.3127214777349905
Ni 4.1058932252817 9.375642576434272 8.920804419732999 1.304271525649954 0.19118208886689655 0.1579482665144312
Ni 3.0079793585645556 4.773048459586194 11.516380833516493 -1.763759542250943 0.015048666803006342 -1.2974125937465912
Ni 6.442785655574374 6.263711470717733 0.698379048106304 0.21961026230060243 -2.081644309354428 0.9218752091266446
Ni 1.7448689726333773 0.36278608758550057 5.792457324335052 -0.9946322863847128 0.8766978412590579 -0.48334296884171596
Ni 3.408900075951548 3.3502702072407273 6.241220500214982 0.31552912238711467 -0.8079419147405826 0.23215698861736145
Ni 6.822432266410991 0.7983327948130648 5.2875157516360805 0.5419471516381699 -0.322036070267697 -1.9312185764692869
Ni 5.16082928763325 5.197746119588311 10.155792454015739 -0.8912587697923683 -0.4358986593168235 -0.15577954099788657
Ni 3.5663265966362103 5.248830124342722 7.673568364931902 1.6192805138675403 0.4165174265767343 0.8162146962723362
Ni 1.9587026941803134 3.7879022998908987 4.4211394360477625 -1.1206140272948764 -0.766367433732906 -0.882642488878267
P 1.1091205953652779 7.79026403034492 2.4751302298495688 -0.6338761738389986 1.1631549859808807 -0.674352279576174
P 3.2889413847138145 1.1362502176343021 0.17082603257161397 0.8736086608107729 0.5384075139160276 0.8155132993299374
P 6.225767355303259 3.608557285758595 10.842975980202558 -0.1228110564916659 -3.295814095820279 0.8248919123313599
P 2.8691840242574167 8.708571392594639 10.460025252202849 -0.5106699387914431 -0.2944450480233058 0.2582400588576585
P 6.066435690748414 4.023887988398979 0.7663646674502087 0.014320273277414046 -0.5659597125026834 0.22467996351402594
P 0.2965599246393529 5.604466319050713 5.752941465227678 -0.08451113247020284 -0.7056089235976106 -0.156538273540782
P 1.6923934657384898 2.946594502394402 11.161697210743593 1.682270998657148 1.9294843673869995 0.6933792143006381
P 9.096912557074099 9.102525260338707 5.6693728896985425 -2.007909955784755 -0.5338718308292032 0.05892377091940174
