# total energy = -381165.29094385006 ev
CRYSTAL
PRIMVEC
9.29059545215057 0.00000000000000 0.00000000000000
0.00000000000000 9.29059545215057 0.00000000000000
0.00000000000000 0.00000000000000 13.59772555199988
PRIMCOORD
 96 1
Ni 4.017299921031553 7.885216357990844 10.933332511484771 1.6813268895763236 1.453604282581232 -0.01557908538517962
Ni 7.853758401832582 5.724400380068665 9.884730876010927 -1.9567478310886428 -0.06545180184590663 -0.10400086576369831
Ni 7.878722231778609 2.96784355077727 6.954583916229565 -1.253589168803738 -0.683715723068945 1.1098894417885208
Ni 1.024232403635949 0.006946578210139318 4.880971325221936 0.7780957779134277 0.8546030662425476 -0.6984010929952618
Ni 7.090545277070332 7.818602788689387 7.379621225111878 0.7786588495057493 3.6100453253315767 0.3484191882469161
Ni 2.312512820258884 5.82709862205727 7.401908434511775 -1.012305792405076 -0.14423245959023548 -0.07807771814003328
Ni 5.121152727584305 3.8177565121812487 3.4734981434670487 0.9912664552362734 -0.5916866849551422 0.8288161870864306
Ni 9.426795568677223 3.7759023797261495 8.907679832255106 -0.18130879561724259 -0.3427457920112226 0.09955928505257693
Ni 2.8657863598739923 4.082185439581256 8.759056318889797 0.4286550903805328 -0.6603932462929207 -1.0292290505229758
Ni 1.8080520690830852 3.0797023198692552 12.789014676207714 -0.9906673881996939 -0.8466411310829935 -0.5861140759633713
Ni 5.451674950941154 7.3594429808767545 1.9318427498980635 0.4857322950094989 0.9980788501724166 -0.46947803793416565
Ni 6.864421474667522 9.289536311653555 2.7130183118831086 0.48899759602433207 0.21721142305112268 1.7167636331173788
Ni 1.3125474519109972 0.5183762050251323 9.487840355072224 0.18666388928156888 0.9053281034012408 0.4903301987928265
Ni 5.210481802735422 1.8425108875683156 9.051435073610097 0.5213222762989667 0.5373448769794681 -0.6822982738961282
Ni 9.055822092776644 4.137724619118788 11.444240006836063 1.5598949728203715 -1.0033866355385752 -0.29107433177886
Ni 6.996422254672416 5.8551097673074635 6.828356312230796 1.7281698180717913 -3.1609134551539304 -1.3403304761560402
Ni 0.5666891594297951 1.378129765118665 0.37245625493272866 0.015632821441250496 -0.025623871215691357 -0.0959088327841832
Ni 4.942113662869051 5.113599473491964 1.531756264128162 0.4250187791795261 0.3991267419041126 -0.6009249157239586
Ni 6.080954851847088 1.2365225094292929 11.081153317404103 0.7459605879417799 -0.15078543021740481 1.2090707746763887
Ni 5.868729780221821 1.5320098973836611 4.525730543638664 0.6554271605368971 -0.9108770582439281 -0.34386910698238843
Ni -0.04530187242271009 6.220815475593827 8.057985199843955 -0.04562808225176013 0.10558466531105042 -0.3246331415709119
Ni 8.34948599329522 1.3793003801440464 9.984347427492237 0.682309843860354 1.6835007572991907 -0.8234618647530527
Ni 1.9757194449803495 4.216258022369166 1.3991246526929233 -0.5530278349323637 -0.40911496346507603 -0.17817616352553187
Ni 3.378775877663283 6.361326441021335 9.37386425927957 0.056800811039127985 -0.8159203049603689 0.6035150450486381
P 0.2363230180763298 3.3441033754829435 2.6538957496845486 0.7689992149287983 0.02530428309274352 0.18648468339122723
Ni 5.722291414903891 6.848934052069819 8.987131146334908 -0.2880100910312395 -0.7485936546892528 -0.9718818800620745
P 4.20025032642685 1.545397645412029 3.218309642291202 -0.8364315375398433 -0.1432040183257211 -0.35182872814909727
Ni 0.8013677421133275 5.68723799831053 10.108494867172094 1.3458138678681144 1.7497398309330836 -0.08400076849268759
P 7.1351958787527305 5.858333603924982 4.611301572934489 0.7109300787002079 -1.5514563551347151 -0.23823456227000908
P 7.452534747180882 0.7318815207019674 7.370619567190514 -0.41931735791937463 0.20291506103310863 0.1500441811760061
P 0.4303933371532045 7.57827366585953 3.9162535469120963 -0.54986949180904 -1.8319565109421547 -1.2203080381531048
Ni 1.2511830690328771 5.4889766916308815 12.701607825253038 0.4481335108201185 -0.5891513201277983 1.338238369513702
Ni 5.176078727822828 5.741560109845484 10.914363902775875 -0.2966849930974181 -1.5254982405080566 0.776658788356585
Ni 2.4501808634818936 6.939647425941426 5.427940266771778 0.39252980541288524 -0.009357272845183884 -1.1602974619274273
Ni 1.614733359177269 7.861079391038936 10.920306167619001 -0.355249323794872 -0.37578652451627537 0.9389226515272346
Ni 8.786924388970222 6.820579154788362 12.252706692924738 -0.3210958178416148 1.358047433819829 -0.7526421137270134
Ni 7.631239350460311 6.087857764258662 0.7498346673293222 -2.1650056444909036 -0.11039725620834535 -1.6138125487744337
Ni 7.529758176474286 8.902573721001536 5.208010504348505 1.465553227412992 1.5177936727749473 0.28833122181608406
Ni 7.662697306618572 7.1929369294094325 2.892589727717047 0.9037527884943208 -0.45959111783775686 1.0953724791192685
Ni 9.274541290614147 5.044561058780789 4.447408036904764 -0.5284401182906706 0.23485536138513105 0.013948234649975978
Ni 3.9261963421514854 8.852794710636516 4.387605403120029 -0.2954387793951428 0.9755001935409524 -0.3504619297085577
Ni 3.5585117370365014 1.5808505576092895 5.426172266459634 -1.8511986470012183 1.935117397303061 -0.891470114472226
Ni 7.739484077926319 2.4032354847259305 12.29534866787311 0.4175713217625453 0.3058887710838732 -0.23385674491728758
Ni 7.0810409979356885 3.377019955125211 10.31656704263589 -1.461437662582722 0.924967217788407 -1.697517640403573
Ni 2.8991953410745555 6.656135615508617 1.2235277535880171 -0.12176024662964835 -0.37112022938885764 -2.060668735544025
Ni 0.10864236495081873 7.240467615678087 6.0640552587425764 -0.324097580782416 -0.26376895909568765 -0.7803539778199851
Ni 0.33955454024316417 9.416761725602527 7.112807401862542 -0.8143095088298234 0.8950933130471099 0.7455461261121805
Ni 7.279590313073963 3.3898038144500098 4.740330291458276 -1.4486004016087375 3.1120000172826794 0.38053792315833174
Ni 4.766307725366756 5.5670362745138435 6.492710325489044 -1.060411132552735 0.6780053029477292 0.4259531180683373
Ni 9.104207513825736 0.5487657427078468 2.517700265838705 -0.3849674196845951 -0.6459762995366423 0.6972749498106185
Ni 3.6628079614407065 4.376455759533045 13.126061684741748 1.0148761242354134 -0.3752381082119731 0.0039810961349350795
Ni 6.987029462683048 9.018455317918841 9.531271101573413 -0.1828699694567754 -0.9063938256615938 -1.87226395231195
Ni 3.2353848276495207 6.422049772814127 12.215911289686465 0.2679829971770352 -0.22241482162893306 1.4690653543313086
Ni 3.2246727711077385 1.9334007827532735 7.931254045572365 -1.0980654525703992 -0.6491590681399981 -0.7622482693582098
Ni 2.421249949283186 4.427470419091524 10.8260735161949 1.0760501246415726 -1.1011137524784198 2.1991285543165415
Ni 4.541419572157404 0.2748511173640759 12.645925570545737 0.8518586707281909 -0.5872911269906079 0.8113036321239641
P 4.230630573514125 7.732209541697163 6.786583937015566 1.531217659490337 -0.9512408067729554 0.24814205119170812
Ni 8.91008981271212 0.38954909242238267 12.001461120453431 -0.04417438052436908 -1.4985523080468321 0.3492391130450502
P 0.9354886359975234 2.4759901376129183 10.493133879904683 0.7635695592727947 -0.025286028260298386 0.6396896951969822
Ni 1.803676198631065 1.5973320739190222 2.4301717080837704 1.1644410517821557 0.5179896123813079 -0.3249648138787178
P 5.139715337272492 2.193398096128623 13.478296958700332 0.5215109952710051 0.5842788225268454 -1.3683277326999144
P 3.9074665017453856 0.7266406958145265 10.743372351830347 -0.3881468458538412 1.4123450188211288 -1.9236425638942416
P 1.3620477444128325 1.9899805089800333 6.048227800351786 0.7041817042327808 0.37556746652693385 0.623245947818662
Ni 8.878789796676331 4.02073744134418 0.3338259590951477 2.1321919403949923 0.16646401729492621 0.3953436207125966
Ni 5.362856858539213 0.46731509248945524 1.2952715896911842 -2.3378717086574317 0.9360615279293557 -0.35128339716858853
Ni 0.3413578448179776 6.184749384097557 1.8874318455780048 0.12006743230825774 0.6420252853086943 -0.9920501274798335
Ni 6.649074762974571 7.499935365113383 11.126746914523617 0.39803273750898543 -0.9074114682928308 -1.5754218648113771
Ni 1.93924456728474 8.448616646635044 2.5621102410992194 -0.6804409089724152 -0.21566927537498343 0.40896815347456666
Ni 2.004650359179057 7.902338925385904 8.399831729982052 -1.4872008875897547 -0.4323657064629005 0.45328985821007745
Ni 2.674818170614378 9.017052438007472 6.588070855199505 -0.4141725804936416 1.5726376171980205 0.03946463375352558
Ni 5.100704127021891 0.6184182657775746 6.682139992143871 2.0589635799274606 -1.3973948252692 1.2844269801202008
Ni 4.078552816764398 3.0060000262474342 1.540417886256439 -0.8337791875186609 -1.6436859392950982 -0.09908028853362937
Ni 1.9350730899323894 5.588506840574606 3.2665677821827717 0.13810654919815568 -0.6029861691283616 1.5929349339944758
Ni 4.2421137494773875 8.851772745138168 8.891267066351626 -0.14888435653995005 0.43535615654979215 -1.5399362703102577
Ni 2.913186977806493 3.9046328701363278 6.28478679955228 -0.15623925424312446 -1.743124382499095 0.5554027629224435
Ni 7.524555443028147 2.3985530246244053 2.6763316086114783 -0.1874514181798707 -1.1811871608922433 -0.13085398140080046
Ni 8.922018937256482 1.9916063631819518 4.716044674979335 1.2093438258321172 -0.706993205539647 -0.39641654206180116
Ni 2.5482988419188084 3.319325357445707 3.879009407914094 -0.5952466343922588 -0.67161302626814 -0.3736939036533048
Ni 3.6221244440109883 6.946624663116515 3.290228141588632 2.535711412050162 -0.6187058938564636 1.190634422348072
Ni 6.599035615937243 8.203484285962947 13.055217178277127 -0.06030805286143807 1.132387880001353 2.9322688505652015
Ni 5.2555133188308405 3.1001044674544707 6.282788392473237 0.7292520169378472 0.6115582270680887 1.1230717448067498
Ni 2.9720614811068184 9.458104875308452 0.6874046531542878 -0.9900744918107012 -0.39171759392423505 1.1217874787776874
Ni 6.828336801980373 3.350774023008529 0.6069601744219978 -2.705837708688024 1.3747544621618646 0.577643833708831
Ni 0.5915257082183005 4.071956494002329 6.57590110423326 0.2811197916693094 0.2691147967886333 -0.16942489969546307
Ni 5.872966291742247 7.5353789867152035 4.617352537744257 -1.3384520281864045 -0.47964238006167725 0.23103418786682794
Ni 7.46711169142551 1.177155604570673 0.587094094193643 0.4523920289861563 -1.7103507876124993 0.17143730213980155
Ni 7.705768507076251 4.699852096187772 2.549329168953053 -0.7823949195094139 0.2534770902513764 0.8895078485395326
Ni 4.661296125113707 3.2536965912608418 11.062470859034747 -0.23173404214732993 -0.3759775574811589 0.4398417031249715
P 3.7000539585577967 4.907747750338216 4.638143032218846 0.17793756515216452 2.041085928316091 -0.6300989661847536
Ni 2.2004403674717894 0.6350066239348621 12.183466672292527 -0.7335871539780914 0.4652056358110569 -1.3098513337305764
P 9.008960329379638 7.7105438731321705 9.839436436064567 -0.4519235739901701 0.4835085478853028 -0.09103042164595936
Ni 7.189824579937188 5.038512881149654 12.168536685421195 -1.7498773849522125 0.2145583016989918 1.011302290841226
P 6.081122082564999 4.4386562960007225 8.164210151861408 -0.10403634698732404 -1.0075482231154327 0.5676921218127579
P 1.3927438717450513 7.6343145375507975 13.498951810481504 -0.07638207560516523 0.41831771301026666 -0.08502483888182777
P 5.193117679858933 6.627901495967874 -0.1211001243756894 -0.6358029585480662 -0.8794970012707498 -0.5126939112000074
Ni 8.633090709682424 8.185934351177668 0.7819262420965594 1.138528702791768 1.1335572177191058 -0.19632378096883607
