# total energy = -340864.7224896061 ev
CRYSTAL
PRIMVEC
9.32081797502844 0.00000000000000 0.00000000000000
0.00000000000000 9.32081797502844 0.00000000000000
0.00000000000000 0.00000000000000 13.64195926917310
PRIMCOORD
 96 1
Ni 5.865068680938961 8.630312983385842 9.000091263720362 -0.1501747932165994 -0.5617582728268261 -1.095415930762694
Ni 8.249986333537716 4.371808422331508 2.4561799651517866 -0.8635319933010612 -1.3205566359632226 -0.7017234725002753
Ni 1.8682740423048712 6.781929566283792 0.5787221210604397 0.8816834673991074 -0.10064737591043312 0.6947269865777842
Ni 4.193668952380097 2.154544319649873 13.36501346585513 0.08747510019453321 -1.8592472283373078 1.7542050657932886
Ni 6.993623980344928 8.583028474644554 1.3408723440966952 0.28076240832989063 0.07486718162253558 1.424361840776347
Ni 7.990028724865425 0.2807840439830616 10.18836038241493 0.42055508698121763 0.7174128582110743 -0.7988515224035403
Ni 2.217851314203555 0.3684864149862956 4.147578440400046 -0.19017087399356278 0.729055584656325 0.32305808377430817
Ni 6.058429046371256 6.594637053244672 7.625063714847089 -0.2313568613135693 0.008879304767500838 0.4794516042071098
Ni 2.182683868613001 7.79480419587148 2.807091978160613 1.8428150509232135 -0.724884483997771 -0.8380976123883566
Ni 0.20678607140330815 5.512676522062183 10.98712464196558 -0.45054443425445634 -0.093225115304433 0.6535039753722552
Ni 3.5039750386581097 7.417944890248027 7.820921127370216 -0.1830059808140074 1.0717671809955025 0.5981933757254085
Ni 3.51108682264581 0.7933470002404921 6.406836555635004 0.5307116879336666 0.9694241625502015 -1.0250749191452861
Ni 6.455290827011229 1.7966528782662232 3.407597782520731 0.6294603041594902 -0.33136840341221646 3.121359089900076
Ni 5.7192258446931605 0.0948943140240852 13.323364323560714 -0.5811320493677476 0.2820844695754239 -0.21889729539397784
Ni 2.482730314678607 5.48376334522097 7.120011473579553 0.8693727683525544 -1.7981958695519416 -0.6182595503476642
Ni 6.178341367474484 1.6457674795861565 8.317884762943748 1.2733648087687683 1.4808672320622431 -0.8571690271975108
Ni 0.6830733368327826 1.777107123322308 5.805554327151458 2.3625044196044476 3.2175065210576266 1.4061170356335462
Ni 8.174636842375767 5.280588158636579 9.06052558222554 -0.2597549528402881 -1.552879974955119 -1.7036265815147886
Ni 7.630235836648891 6.675793413901167 13.29043294216236 0.6004389772264757 -0.3210829623258083 -0.9675624267511144
Ni 5.682846692787534 1.8214928577252285 5.80118845609007 0.9757745302482614 -0.7599329909614719 0.43521937386161175
Ni 8.182503612605936 3.0434427515699323 9.993117211785366 -0.24421469111284394 -0.023051739613140942 -0.4636945984831692
Ni 1.6015868031750176 8.901008174173247 6.453642906422728 -0.8953535086870322 -0.7539253513148113 0.43554024753614023
Ni 3.143939809178561 1.8467802364390302 2.0434560167657216 0.10776547501245311 -0.6235128283268037 0.10588625571186926
Ni 3.7577995492125686 4.624057714676371 10.681544426367212 1.1322076456697467 -0.04663904001477775 0.4816113308625899
P 8.48094687800852 3.17790486927185 13.781516073780663 -1.5744484451545144 2.170600879190494 -1.1522612218865125
P 2.192097894599341 4.609153727000968 2.011110914807508 -0.18431312966120517 -0.4774741687657648 -0.09035447862485729
P 7.789314234182417 5.761104279105661 6.499957118030178 -0.13581209673702416 -0.43528210877874707 0.482329182865221
P 5.252141022685779 0.943145591564116 1.7715584404810525 -2.3193397112915153 -0.007233284523645607 -0.48364738745601227
P 5.56809810475008 4.897213601365156 3.843594880892233 -0.3427877009927516 0.20037943909544845 -2.045895690999909
P 2.090799246659202 1.7978459429456801 12.361319841808575 0.041222496984896745 1.73666474291668 2.1972943293212803
P 6.94254589875568 8.576354769093841 3.617983553761588 1.7474746890479904 -0.5603061137613318 -1.2162495518130152
P 1.881360470507664 7.218721730414338 4.947924442732758 1.6318010149320543 -0.06483345153561738 -0.8432665581838058
Ni 6.850950222153936 8.606367802436429 5.695572405341147 -1.8853737502210306 0.11150180212643376 0.06307121742887202
Ni 8.87997108838001 2.736442975419367 7.721089576153097 0.47649920644700516 1.2464317318233502 0.6747551714415476
Ni 1.783818112144253 3.722622782804206 11.250400461777613 -0.8837899722191489 -0.9854357074871094 0.5747181754216037
Ni 6.087435431390552 4.269083689266706 9.901088117155538 -0.628076536438086 0.08410181284692612 -0.05637272236277389
Ni 6.033933937171155 7.9167764177103335 11.362469314695192 2.483445255656594 0.7739506453968025 0.08527192189562734
Ni 9.31289511312013 7.19298695244574 5.6669379209524 -1.7553258096612931 -0.20483156132953112 0.438556922875277
Ni -0.1135434062948461 8.09733930029189 0.7914940216602107 0.5201318555352913 0.972054658194513 -0.35488551269755014
Ni 1.030537579334335 4.8224233592717 13.367891734394318 -1.2747768586249466 -0.8881055688753672 0.29020941267540346
Ni 7.977995549074966 8.182186704800454 7.55394867121543 1.0753075900485933 -0.15451867200759195 0.6163661899796933
Ni 3.8550622830417316 1.1624085096855572 8.640175340708758 -0.41083117482523435 -0.8487697473902222 0.8945587806998787
Ni 4.970568437516139 9.305764687496813 3.9189937723885673 -1.2477926167266187 0.1300422841327825 0.19706014491422835
Ni 5.245420713046026 3.4249065411906647 2.367112094339643 -1.7638539017369623 -0.5822293961969843 0.3500364121353649
Ni 0.6831646808473035 5.581091324774791 3.5851752071583034 -1.0531313110618703 0.04766979527213726 -1.1501693723544901
Ni 4.542416671493847 6.859143221007394 9.935657166242803 0.32609275683557387 -0.21543504787699028 -0.07349961185104761
Ni 6.847715898374471 1.3038985240149006 11.843225912263724 -0.22834841350454865 1.556358420422023 0.3360521820411309
Ni 2.645350622979269 3.1355231106977044 8.97122469096819 0.3494980231333916 -0.3873973692823264 -0.5180605748285594
Ni -0.019342561115695236 7.848081990463478 3.213500140399803 -2.2760775581687707 -0.011564822019463954 0.5172655897310897
Ni 2.372427756735692 6.022338839817684 9.604470799961591 -2.1119450172204983 0.5523516348009454 -0.29413291609952574
Ni 0.42392011473734337 4.677726983616316 6.089648193538232 -0.21426493882828906 -0.1631182407511449 -0.42683063557728423
Ni 3.956239760350363 8.358872127173777 0.7375255544686209 -1.1880075262481864 0.18400356884058633 1.165450723993593
Ni 3.438626785004419 4.346782026516338 13.675790969463383 -0.5391497913986908 1.070748252812685 0.6068762482113871
Ni 0.7784821599998837 2.4962082172293467 1.250834176150712 3.3550237734112156 3.45205026473961 1.408465995481697
Ni 3.8279480240375117 2.024714648398659 11.074187604867166 1.7303575697517297 1.1487758344410732 -0.6944691049307072
Ni 8.950622887366599 1.0987286824195444 0.10905822876551277 -0.8600232088168542 -2.3467358439162807 -1.0951179399063011
P 5.673898707691607 7.041346567523204 0.3900128437144655 -0.6071410718369995 1.407852530267414 3.3468368667250488
P 8.513029132904542 2.5883258596283523 3.8176065766792506 0.4157422389736066 -0.46846862283304475 0.6156550228452816
P 4.8923015303802035 3.7424388414645606 12.192705315575422 2.0692783315899073 -0.13132500749994802 -0.12014636517530922
P 8.59091388651034 8.880576941537546 12.356558768072116 -1.9402410916828714 0.02518164147195018 -0.6520911541851285
P 1.4981816504102126 0.19173388272475364 1.456716128226619 2.2681554751082165 -0.19826419252465854 -0.015039925052257971
P 2.385952263375473 6.7365558251931965 12.14630908077126 -0.4337049940996143 -1.3655329435635968 -0.23373461751712646
P 5.467638330412685 0.9859747493930576 10.162945308497155 0.5282663117169676 -0.21898085624671965 1.5510097545155999
P 8.866055107392281 6.209687277763652 1.5692211954176254 0.581672752362566 -0.6010699259422552 0.03588128727764143
Ni 0.6636124013309226 8.756209269521971 8.968360403655712 0.30470734918126235 -0.31504781187532194 -0.40294842964304795
Ni 3.8707865026842616 8.309742096506454 11.915132293327307 -0.661689339396525 0.40149832746008274 0.4156769329533099
Ni 6.293565317220159 4.5574325089829495 0.842880622318913 0.7999768942572352 1.0642233072099734 -1.5418635692399574
Ni 7.132783790222207 1.7418371487358628 1.3428772520072514 0.6087865778602225 1.4766267116183343 -2.178443000942732
Ni 4.080029541661826 7.102323357624823 4.761616208054193 -0.05589552561603923 -0.07213461318272094 -0.3680089374533856
Ni 5.233126554356934 5.972164877555836 12.451398089271134 -0.9984244064372932 -1.8296926546086425 -2.3301311454800646
Ni 1.4047497727002431 2.9191216836433984 3.7852204631226805 0.1745925599393316 0.4054827660291275 -0.5083034954417955
Ni 8.897680642215699 0.260229776552293 4.979465158114121 -1.9195316270496616 -1.9789801601242818 -1.5946357187356666
Ni 2.645574322606668 5.082297080583718 4.316370062171556 2.6999020599298795 -0.6006395232730559 1.0177236209865375
Ni 6.70872386321774 4.018773127025961 7.512885808361154 1.0658474730769578 0.45232543741427905 0.003566634305335793
Ni 1.9336782208654115 0.9808949036875575 10.511279183300218 -1.4650675460258251 -1.5106706885769208 -2.7294692320640346
Ni 0.5266262061665289 6.593210968120009 8.014500532021005 -0.008947181890958784 -0.2501421123408724 -0.30708870492924534
Ni 3.8827264702966393 2.347075132297232 4.3412398682475475 -0.041571652794199374 0.40690947117332504 0.2781180287285081
Ni 7.89550631147189 7.4120448125754 9.70037455855431 0.8038736582084801 0.42820334755509476 0.4262508518144143
Ni 7.169601020564823 4.2321732507460075 12.111044698675501 0.4826888801974848 -1.7438784870562998 1.1420025202729815
Ni 1.5857880169900218 9.085625612501396 12.840043569013128 1.1876180041192514 0.5546648563151544 1.8716494586564023
Ni 7.6475539161366335 5.859560077614281 4.203619857472193 0.17579197956407144 -0.0008816312740049332 1.9642420825831588
Ni 6.181342670808743 6.662035886816181 2.6919127683404183 -0.5184740082168943 0.47859131308934355 -1.0144308091678786
Ni 4.033779643697255 5.9599918894982515 1.8252118640307229 -0.22722664119527966 -0.21117832948316534 0.3112654620147543
Ni 9.17769665081136 0.8771616581359021 2.500598322417036 -1.6470594837530217 -0.7673519091333623 2.3693065301279455
Ni 9.26620713671857 1.9427194141394208 11.610712519546066 0.5367524948111078 0.26372576456257807 0.5525429248761452
Ni 5.446349582538625 5.182300134848509 5.80556737629639 -0.24606819938181496 -0.05659743677907027 0.9558142850762505
Ni 4.584080727096756 3.327923431895749 7.273374345633054 -2.1864476164147635 -0.32225821358083206 -0.22747706664318887
Ni 0.6988506851368195 7.874003184788241 11.207169576701135 -0.12711302630112947 -1.330220898525864 -2.149028295226041
P 0.9001812818769547 4.23301212434875 9.188773510694693 -1.8645951229127824 1.2265681601302036 0.12470004598426264
P 4.3803276498082555 5.0777951255823295 8.551802802905112 -0.04008452672571161 0.5423166191624467 -0.21953852852240255
P 2.7246894241631545 8.325923036221589 10.044410604265988 0.31186247216880486 -0.4648446529272124 -1.392690477814995
P 7.937151725439183 0.9471815056750914 7.306073638667981 -0.8251436233308499 -0.6477531889314069 -1.389395609113807
P 2.6381922349025277 3.3899348327740833 5.881921651618071 -0.6254905208784647 0.01659235714104239 -0.35498758549305315
P 1.1812272408404285 1.3106747585615035 8.094129210638727 1.6341851988935148 0.17279433038832823 -0.29957748415386465
P 4.73450008488641 8.362479283665573 6.413426373825441 1.0788834803253098 0.3980450788041596 -0.2858405941837464
P 7.165695597903164 5.938106609284464 10.940360234857991 -0.09370334049243217 0.5789409552536997 0.304640757609385
