# total energy = -340869.0032257375 ev
CRYSTAL
PRIMVEC
9.23233094059611 0.00000000000000 0.00000000000000

0.00000000000000 9.23233094059611 0.00000000000000

0.00000000000000 0.00000000000000 13.51244954987766

PRIMCOORD
 96 1
Ni 9.142038715863931 8.536563989981008 2.5400699695083886 -0.5499476533451431 -0.33842916691373975 1.152520131974854
Ni 0.49458335283048566 4.366634016198012 1.234261087319114 0.5016235123184587 1.2995208983388458 -0.01827668682200078
Ni 4.087596046708129 8.37196076214766 4.9444348301716605 -0.7516545530027635 0.583634246964311 -0.8255688837937266
Ni 5.961980797823598 6.756312084846179 8.446254252231105 1.6163983072237387 1.7180679537510992 -0.6614615396564351
Ni 3.6649307052173836 2.61235265791916 9.839995546960395 -0.23771288543858413 0.1633812646045444 -0.20101810112071186
Ni 7.801531964407391 8.558776978155725 11.615598973480939 0.3595718624296259 -0.036388823041679265 0.8368583406646167
Ni 8.070229723275627 6.790997952083258 7.147870010561409 -0.9404149198020451 0.5322026706568964 0.811177648069061
Ni 8.650001639899026 0.06509624202872594 9.510912804527923 0.7063285753724545 -0.21572481120326717 0.33245932248355003
Ni 7.007689990923155 6.044111613618396 4.641148143540923 -0.2920477514357228 -0.19502023166606414 -0.42821903128437866
Ni 8.593185875465439 4.704352680965743 5.6595545644338765 0.8051715510842973 -0.8070733960927003 1.0981515845263021
Ni 6.680339233769809 2.7340440116726716 6.518864842882599 -0.45189503474507975 0.15894174077595208 0.7639698800350069
Ni 6.88682954695174 3.7321697712508275 4.32822659637023 -1.6525850415569412 -1.1497919344104135 0.5656252119814
Ni 6.042976036916198 7.4334020016149225 6.138516813360945 -0.7337424486090331 -0.6266184638353208 0.412619891294541
Ni 4.009444365536482 6.17189630577395 7.408591958754608 -1.7216960374219898 0.8591289791373592 -0.09767286666314147
Ni 3.5401926822628504 8.809988702276282 0.011212665892848807 0.7346942709993411 0.9699862057012585 -0.46733039546354355
Ni 2.9745554642660057 4.589234746821707 11.32236537198048 1.1376182751623567 -0.02561718634747201 -1.1860460316464412
Ni 1.61830758860419 0.2540294315149555 1.3493725588315115 0.11290433890091524 0.06842194021782409 -0.7776237233730156
Ni 0.7879849827535458 1.2564648431629193 6.8549733891392455 -1.408391947710652 -0.8652600317357614 1.0478278965710857
Ni 7.763420902401891 5.9948478958709766 11.926614967551357 0.49259251246444197 -0.8277327242142649 0.7228846799589228
Ni 4.455993747097051 4.201172181589831 3.592122697177709 -0.38422719908446085 0.5584286942329608 -0.6586045298236141
Ni 5.485601755085758 0.6310861350664161 11.235142002454522 -0.6552957771653554 0.5181549343145786 1.9921526929504982
Ni 4.870950092276123 4.045902840308702 8.20321868036638 -0.111938118332904 -0.5209710636071351 0.7157395842737092
Ni 1.9672804647538746 6.882028734877403 1.2284908804989982 -0.3164097252198551 0.9382546789259325 1.3179688206313882
Ni 5.345011819955004 4.441471290572184 12.231591170739023 0.38175714027741353 -0.2782159877589531 0.02287381927437996
P 5.340617230440804 6.795891087466717 3.5358839534261333 -0.27421175169556644 0.14394089649174563 0.5321473919389287
P 8.759386296546596 3.973567527611731 12.835246204199157 -0.23525722480924 0.4889592865872289 -0.26863117228399547
P 2.7743339037734476 4.795734292334551 2.09161872777991 -0.16673783978160317 1.4134433940916302 -0.7425793301743727
P 0.02865530868524012 1.6462353896135498 2.176950392701963 -0.3040545460886119 0.42264719362355596 0.10821696072757492
P 6.185661711164019 5.9272764659246935 0.4987499037711548 0.8497493376946721 0.7639714226969035 -0.8285554772258762
P 0.1076148188117032 3.2649861301015246 7.184542675410791 -0.14690872087081797 0.6091766142097896 -0.6900354946393858
P 2.704242047488138 5.181793441758484 9.015857679587825 0.28811139249579415 -0.16358283909238924 0.15906695349990668
P 8.613737044075963 6.703641636992163 10.011076178161733 -0.2350214546493501 0.3008820618979011 -0.8101024127270113
Ni 8.946516411805675 7.219230389114052 5.112908251123397 1.737666187598001 1.7923450671981196 -0.2373321050603977
Ni 6.754825679569318 5.066998639196374 2.4607116226865196 1.3020652620272541 0.8362209641909341 -0.6350118301053386
Ni 1.8063240076308396 5.122540341964079 5.163579899334925 -1.810575731273533 -1.0735273582197187 0.9307583705488874
Ni 5.811179904703967 7.333692827763323 12.410643919683034 -1.362470759698505 0.65394132001999 0.12105345037061087
Ni 4.892350635330568 4.4255639844104895 1.213380324495025 -1.2463540845078793 -0.6209630653217563 -0.29228866380193536
Ni 8.947291927602299 3.7762172220328627 3.402934695358303 0.44467717684040187 -0.37327609938959583 -1.0734725937223837
Ni 0.5078889881411268 1.082130738548128 11.273274298821118 0.11720708004132717 0.18661709520403344 0.6415195493168694
Ni 0.5491842810782396 8.10019786941658 7.900269897047028 -0.7745967636212338 0.9561814386076822 -2.713256112639282
Ni 6.1771218050702466 5.133609906727789 9.896910097334743 0.9167157764128921 -1.1990049057999543 1.8318940331353353
Ni 7.863804036410079 2.5547706100198617 8.782281553975723 -1.696351388009614 -2.30952426786299 -0.6852169902048199
Ni 1.3279046197614075 5.8018644828135715 12.823057680928889 -2.06092610297047 0.1656788023894695 -1.0718350581189606
Ni 4.322226504510402 8.691270159076494 8.83808822464061 1.6593025627864326 -0.6033723488231867 1.1432947567218439
Ni 1.9859205408655762 2.736204377106123 2.305318568171167 0.20703345407685633 -0.367621986427612 0.665878437777208
Ni 0.9541706321052424 5.759977397464987 7.644505710553673 1.545921541359415 -0.3380733262362178 -0.005750529330532032
Ni 0.9658402983782445 5.194589452402773 10.46079778862373 -0.44492528829546596 0.8797070603990269 -1.2919489995288589
Ni 1.5042144431914064 0.03961316224491261 4.8564414842476245 0.36512030305168086 -0.7135459190565002 -0.11900428115106601
Ni 4.404957421814492 7.461643701875297 1.6700843468259066 0.3526949328041345 -1.0842815114124296 0.03813537341914078
Ni 7.7237957381267925 3.0580342003739833 1.17706125791958 0.027815993771003706 0.28518547709825076 -0.04817193171953639
Ni 2.3065778581075893 3.5699207878000867 7.410524285614528 0.8685088776903623 -0.039526597339712574 -0.2513957822423154
Ni 3.9803532908321873 2.086599109462955 12.285478439807267 -0.568210456210073 1.271418740785991 -1.8214692382575857
Ni 7.195438672353352 1.0292294824213073 2.4595492722246752 0.03856397631612713 -0.02473504085283482 0.011868469302811817
Ni 2.5908782562174175 4.047684680174753 13.483519246491696 0.5710265855026295 -3.0517824672525182 1.312423722443443
Ni 7.530941577702158 0.48913073819374914 7.592969916168765 -0.511365679306887 -0.7726969754953597 -1.8562992014525772
Ni 6.772145532360577 7.719281128310734 2.091362068980551 -0.10245023344712678 -0.19326571086880265 -2.1358249091618897
P 3.332243660796793 1.7243686061233723 0.6496274252373573 -1.0412553855598907 -0.11622568996466434 2.060776721876799
P 5.606988441919168 2.6620595275503645 2.686288856796303 1.515283504758584 0.1686952206182901 -0.5480152122091208
P 5.966319993352324 2.9869544846810703 10.5249957248547 -0.2199877002446792 0.2055473564496331 -0.03536706664538425
P 6.47914827853147 5.082453561143372 6.881822853898062 -0.9684947087573965 0.9094845487717756 -1.0655242854095843
P 6.160494377097402 0.17827077051574702 0.3877265083866729 -1.0901683092105097 -1.7241388425355273 -0.2801756825884852
P 9.11701909909191 5.929639942638213 3.424595590144472 -0.2683545215838411 -0.17370810045184923 -1.0903295173787222
P 0.23504498946022928 8.135474605832039 13.311343660844173 0.5644538173811182 0.3562253145548962 -0.4361290301600747
P 1.4641738240252598 0.6896495797416798 8.939363201814915 0.30787366272438593 -0.6060303552713241 1.2822148029602305
Ni 3.7643444444797924 6.139370803970322 4.920450157694894 1.715314045155046 0.3877748072264031 -0.18606302247277634
Ni 2.906319306494046 0.41396294637292047 10.794582557189779 -0.3898936533416188 -0.40586380351762996 -0.10331386699900272
Ni 2.1549460552058615 7.687678859598324 9.225489754979172 2.337527695054452 -0.9778236994678065 0.5441454448410694
Ni 6.052429943770274 1.4565848480154435 4.540534201259931 0.36734739260998667 0.2535693928548665 0.4468009080516241
Ni 0.9198845247966606 2.1380139603129136 0.13625720223366625 -0.21059674594808245 1.165754885497573 -1.4555819751328931
Ni 8.279822099644052 3.974712336644842 10.420652844118273 -0.8883002013846766 0.47772279444146115 2.171042080492971
Ni 4.6448780052294465 4.365941591379598 5.903454282471983 0.43477200191154797 -1.877354993681612 -0.04419829178376904
Ni 8.669528019778298 6.62715177538471 1.0484198054553753 -0.4447723076573695 -1.2251445403097998 0.43335326718715045
Ni 8.060295735214115 4.730406318799929 8.170748572548225 0.30486855734947493 0.5776913991173147 1.0310697032761404
Ni 5.221289353400811 0.17461107454215682 6.668988082913277 0.22004400740391136 2.096986596138453 0.6183641942463285
Ni 7.644249974987406 2.2388402462048873 11.957883025884746 -0.7220866095376596 0.013722748902731204 -0.004098595549405845
Ni 0.781880565554409 2.7595991036376 9.244380027258595 2.1673067818202547 0.05336710276723067 1.05958529421733
Ni 5.591136529742947 1.5443935473212362 8.835736749957276 0.20889056189025312 0.7904938944674644 -0.6915105365230154
Ni 3.7482432593689414 1.4864514385163623 4.820201815718025 -0.32938402599233596 -0.11772515732832628 0.367367961435277
Ni 1.9550014646406684 6.985707811021243 3.7045060149055558 -0.9497400538577129 0.4920759778393396 -0.527501151416169
Ni 8.12889195389165 0.7426219248165242 0.20216958231502938 1.6729425221673704 -0.8616041801507289 0.27340545374418723
Ni 0.8718496302936528 2.5841571193133466 5.033414189037118 -0.5085351518366275 0.0752081099017221 -0.07256887250666212
Ni 3.5973223459474517 6.057286149830084 13.266198485916679 1.8895613059398169 1.2249501649108065 -0.8172009714450056
Ni 1.1237223893075219 7.660369624760081 11.23496658816719 -0.7525292422982329 0.5940924661831575 1.0999737253367055
Ni 6.78292889486601 8.539546032865644 4.1480788929800365 0.45102394499403614 -0.03377066869254184 1.7320861224070623
Ni 4.80118136757274 0.613239116180071 2.3529232360536674 -0.18008572184341887 0.09490815943381074 -0.3604596643512179
Ni 5.622821889433566 2.257083332087365 0.3488076174263565 0.25607416155459123 -0.18529040597280994 0.6049237524707066
Ni 4.269833026583751 6.5043340772599105 9.946649280124142 -1.145896198900433 -0.048602334388735645 1.2543905816591108
Ni 2.8749663107162653 0.3988911661587783 7.396863205563768 0.5180081243240692 0.1868855183740717 -1.6394325633353832
P 2.000599947015951 2.612721951155647 11.354281539943905 0.19890465432213483 0.2874819864419113 0.307364070077819
P 2.995503623105754 8.68913749063578 2.7747945970859655 -0.6003196780397919 -0.33153963888275806 0.9902711812025399
P 3.4870052238777522 7.686552515227038 11.748196479741015 -0.17735701005834617 -0.8401591229030757 -1.6256789611947164
P 2.743774888454115 3.2619671578932405 4.5370212993478445 -0.04357505637747334 1.2640124210195909 -0.5475375012417538
P 4.267718822804861 2.301878601673287 6.877998822434235 0.6618184087752215 -0.9139865504071871 0.7871162362444831
P 8.541198620098925 0.3626810410880971 5.230317649799837 -0.13294917336693232 -0.313698239825963 0.5075740734749388
P 6.583113556933586 9.032450947936296 9.79940375763879 -0.21427290924808903 -1.792691651904261 -2.6173336530083438
P 2.203268075200238 7.349581669263195 6.06661726668303 -0.5059247107969739 0.14589107823958103 0.18711203256258097
