# total energy = -381165.10310584423 ev
CRYSTAL
PRIMVEC
9.26043547357156 0.00000000000000 0.00000000000000
0.00000000000000 9.26043547357156 0.00000000000000
0.00000000000000 0.00000000000000 13.55358337473660
PRIMCOORD
 96 1
Ni 2.8214324505783863 3.8843359784077416 11.43410142615793 -0.8197160245573754 1.3282028396545706 0.45133890513129366
Ni 0.573370051311086 8.75084300783622 5.69891553919067 -0.9675660262955401 -0.9016948775240278 0.978217078251483
Ni 2.5801147615263367 6.246886067974723 7.101075122065184 -0.628008659314628 -0.5660543290990186 -1.3975146386765158
Ni 2.7038990030382424 8.73209988635645 13.203088158732605 0.6256483866125677 0.5513152231166312 0.8630313995155587
Ni 8.719283443605459 4.040457660733559 2.4709536737341478 -1.3795626821837854 -0.1733579162012821 0.5120683618008665
Ni 5.148366905159597 9.274603980056753 13.10094833314692 -1.0714344802464324 0.574062801225792 1.5793114296737703
Ni 3.9814501656401307 6.473248153672113 13.174639174790903 -0.21192806316499632 0.044336874244162355 -0.02834949767697053
Ni 5.578014071254186 7.326208347969905 0.903688860041954 -0.5035672663083908 2.153463448179259 1.5205108145957942
Ni 7.661926916648823 8.026602867179147 13.311488964769119 0.2859020435493012 0.906520066826813 1.170079995235488
Ni 3.246680909803957 3.1565583513844264 2.080841158934736 -0.10724328396039594 0.08217554235849074 0.3002817093097409
Ni 1.7242004882996682 6.57125134271382 13.267697291268284 -0.9478335808636194 -0.8785138114218741 -0.10632745701434593
Ni 7.392087086214514 1.864449784154969 3.4241228928130147 0.038687389267868855 1.167362596304325 0.19502511676207057
Ni 2.3993232789919663 7.102429923780842 2.552858521678803 -0.33521888750655815 0.13208528270474026 -0.948945068760243
Ni 3.723398869614788 0.5639892301356868 10.908194811028867 -0.7078229005297939 -0.43504299618474757 0.2675991314750552
Ni 0.2645058195784061 7.644295047430698 3.603030802763894 0.7776178098357447 2.0853397559281444 -0.32379830437444235
Ni 4.44474975439158 6.7386337146243225 3.444561600035348 1.1760030455881425 2.0475604802968412 1.8837197595573754
Ni 7.889566942447106 0.604996290677545 1.499053371741678 -1.6781634042466775 -2.124881522776508 0.5315133578993556
Ni 1.4923377039071277 1.359311547752529 0.9032971436197236 0.1862345150536341 0.19226658018032694 -1.3314663408971907
Ni 5.576495359829935 4.910475577247625 12.107375833921688 0.3295616892207808 0.4599929812618659 -1.8668093569552815
Ni 6.6415010065209055 2.6013952423368676 6.185530126435014 -0.9173176716629491 -0.47710521546212026 0.6667729245670194
Ni 4.052005423819169 4.216155903735383 13.598852317326042 -0.8779332563280557 -0.3200321524637908 0.4830920291731745
Ni 7.163632142091022 1.2124503009404315 12.924873190419689 0.7241267798961399 0.28657644390850645 0.33999933961433704
Ni 3.3334604510030346 2.674626766379371 9.4373598383846 -0.7285562764224034 -1.5327983737138957 -0.15119243584783637
Ni 6.870539358081761 5.460267633697226 9.938477193686984 0.7709995331882786 0.9186595304028243 0.03256893507495681
P 4.637477938303137 7.651545968437943 10.158018042584965 2.010321393439725 1.0221168649582268 0.640015196857201
Ni 7.044404034851868 8.187197339858093 9.131211692388094 0.17996102334009653 -0.1474669073671331 0.4835476286533543
P 2.1377993196489786 4.863015845239806 1.2141005105489766 0.085319230193795 0.4867946748357423 -0.10548053563301835
Ni 6.515568343969816 3.63923077123058 13.67990242707278 0.5559300961808232 -1.712279114983464 0.6312130251845387
P 6.390793235857943 3.956132134945618 2.6048225295204954 1.1148758392595186 -1.3726109334563006 -0.023463887449895075
P 7.768949769880894 7.544115656043267 1.9096731209862243 -0.48248704859932384 0.7307998210409413 1.0099010396183252
P 8.195633596611092 1.5289719867994072 8.867974552475069 -0.1893236955019191 0.19473072545010334 0.2554259864476311
Ni 0.4804814008036071 8.424736771220543 0.8905788614851795 0.9505214121084276 -0.7182785486454791 0.8828630895295053
Ni 1.8975928828585757 1.7474164001325663 11.842565346014881 0.1270106963953103 -0.9471041588967624 0.5067706037370369
Ni 8.091722249711632 7.652592397650992 11.195002537454968 1.2550050753146582 -0.3365923708153171 -1.4941765475766395
Ni 2.319998388381434 0.9377950440389876 2.9441369253093916 1.2226354007347007 -1.3344405930341663 0.07114705245847101
Ni 1.6986509467173128 0.7397430357505931 9.807535561566523 -0.24275764695134322 0.8109873864351258 -1.6141804736368137
Ni 6.373828117996807 7.35820315266981 7.028902065801899 1.0430975809749519 1.5990945258379687 -0.39018598777105706
Ni 3.274091798924571 6.31567258297064 10.881304358384126 -1.0243439545165325 -0.4204381017873791 0.9062107631165103
Ni 3.1347222444430733 3.1861917450283332 5.302256822526609 0.0044426091523858974 -0.3902068137066635 1.1468747607636185
Ni 8.0922408341004 5.97601832919839 3.6169362727312975 -1.970713806350432 0.1357521900333662 -1.0714951582810386
Ni 0.362449741832825 6.378236085301338 5.864391187428898 -0.6351254728650675 -0.12196130689686091 0.3230457424791339
Ni 9.612702480662698 8.297035365486334 9.199332382070576 -1.6593624694900906 -1.1412880107044603 -1.0185772272360845
Ni 6.078244276834354 8.836918755936253 2.9206070847125782 -0.26249934835464467 -0.1271917020578648 -0.37831314759287105
Ni 4.9373215798019014 5.331584621798562 1.9320768926245693 -0.8521520335988938 -1.796442634306261 -0.6323538236572012
Ni 4.10494733365111 4.326262481993523 7.501610257035289 1.4015535846325797 -2.62585531732611 -2.428833481848985
Ni 4.743269153611883 9.09298831876166 8.670430942096377 -0.582068702249404 -0.47150792388000085 -0.4159026758108708
Ni 0.9578901891037617 5.362125538122814 3.8006957248478153 1.0282304340551325 -0.9882772907009625 0.31745642131681456
Ni 1.2660126599517925 2.847204242613071 3.5366584833064034 -0.5689545334649492 0.7483509425508272 0.7321658481505326
Ni 7.822891806748317 4.242270331884076 5.033421749345538 1.5542184912608847 -0.468508989152677 0.36006037203027025
Ni 6.892106912393217 2.7821496831291825 11.27141779922709 -1.5211312217886126 0.9099874565501231 -1.0715789762440964
Ni 5.906972522008088 7.322596778119554 12.11449062652688 -0.7036916519702396 -1.0377154907274322 -2.3734740312420737
Ni 3.178931563585576 4.833539878999632 3.9128386728754223 0.24614764646949866 0.9097694270020462 -1.3414764168350253
Ni 9.17464683912165 2.6730617527775524 11.903258240371809 -1.3192556577636119 0.09697609770643298 0.15295621261647852
Ni 4.815963572394591 6.22420726140162 8.225357742523032 -1.6094645562183831 3.054296234813308 3.541845785537203
Ni 0.520668912802501 4.179577183456186 13.271818185071888 1.3066395116614982 2.31426615342335 1.2913010815322146
Ni 0.8156989799212335 3.198035842050382 9.80238490733379 -0.22036385263717534 0.05707051976074687 -0.4224787863664918
P 0.19510533770792857 0.4347413316706861 12.763626783080577 0.025342849640162805 0.17852506222451833 -0.4055989798920176
Ni 0.09623074168438066 6.072817661623313 1.4992839565859697 1.3323829391741893 -0.11760894346543616 -0.49652835718373844
P 4.519509250293848 2.55739891321118 11.597394389745574 1.2019385345069817 -0.029580027649961958 -0.631445452910319
Ni 5.9202890282768195 0.3687755453322477 11.002636436571997 2.0588702488827058 -0.13140342614636724 -1.2089782149625823
P 8.39551083673924 6.562555793766436 8.020089076838795 -0.6420962477559459 0.5158365705940471 0.0900703717255352
P 2.229681360816116 0.19171046204859854 7.600294088087255 0.43431717376231654 0.6312757601016742 0.5146188961368621
P 5.953821065272002 0.17861805831930014 5.73868170137369 -2.397178059727233 0.5373980988149067 -0.4719987474734903
Ni 9.26108374420672 4.575294113828502 7.466343740468386 -3.618833098826535 -0.2523360346683977 -1.6319169716846282
Ni 5.871579137474647 1.6644428979296282 8.536724143931519 1.56355108151572 0.8096915504418377 0.3166706921907256
Ni 8.102584740569226 5.749165440418773 12.473633466837756 -1.016848674580752 -0.9569666535131391 -0.04752864170858266
Ni 3.948010733000085 9.261917183402954 4.185834459732807 1.8115530075851383 -1.0602923475866837 0.5130888326455809
Ni 7.702802479006387 -0.28839959529090836 4.692765516450704 1.5256900448038886 1.3540822785244937 -0.39795971817920495
Ni 6.614951337903068 7.096781058117473 4.77659468289511 -1.9042914130611395 -1.2245750409595748 -0.0027130280557888763
Ni 7.053044021186169 5.669007110612006 0.9829424452990304 1.0457581585262505 -0.7323211427814743 0.7005723896149677
Ni 5.323935502064229 3.7191112879719355 9.337511044545009 0.22084824847276155 1.0705785600040403 1.5698559406878256
Ni 5.035324768843608 2.0645122329933923 4.427752225006146 0.25214165926940446 -0.5879714408870841 -0.2726094402054531
Ni 4.5285474353552395 6.015856722778417 5.804539140616617 0.007490909060406454 -0.5227371543686223 -1.0161321081297017
Ni 3.5482840340503286 2.0200343612209917 -0.09272937101664282 1.0014472524240172 -1.1420505999020976 0.35485748767309205
Ni 4.018991971212754 1.7695858827524138 7.03894500811653 0.11048261683330005 -0.5599970671613452 0.08670531190804422
Ni 5.517071145138389 1.869394856719296 1.634738198932266 0.009357272845183884 -0.1453819998136464 0.14157188203893684
Ni 2.7024080729205333 7.808260318636639 8.834605499144926 -0.06944703904822878 -0.07489314976446457 0.8945338409992143
Ni 0.5859355362596536 1.7673633782291207 7.514594313669077 0.9217736505517738 -0.06373584759606442 1.0605589709845091
Ni 8.844706782203295 1.866672288678262 5.517677703664538 -0.290580422861577 -0.034938463748397895 -1.5008758139736862
Ni 8.82536173241513 2.487158509839608 0.9641678383385129 -0.6952458351957317 0.6170591022816597 -1.2171908326803618
Ni 7.398486047154495 3.498888871020142 8.540194029118512 1.3532456415558112 -0.029884960484890467 0.18365261325907084
Ni 3.9905716946211456 8.005100135916287 6.629789333726703 -0.045424965102018544 2.623772466655152 -0.8875499534822134
Ni 1.5971380526159058 8.045679364337412 11.21694606544828 -0.7546509166269262 0.03855934833043682 0.39466767769149447
Ni 0.6429122178449234 5.6501713847770985 11.11410152072 0.6935594486322442 -0.1791963772599301 0.26004548749751344
Ni 5.55963210675945 4.358757350211169 4.621229578150762 -0.055998883963122914 0.20102967108493766 -0.5011206045401112
Ni 7.510935515597605 0.3718666787067277 7.1598566625320785 0.9213339919111939 -0.16155783824256048 -0.12337335675303912
Ni 1.176751322035038 5.841140085941047 8.872527908617165 -0.1428242663887992 1.2855976033895342 1.7185862881484144
Ni 8.406484452823 0.7685587329386381 10.804279759955202 -0.04077898168957493 -1.0947651845525728 -0.28648748373912597
P 0.21016465794034128 0.9619369994232576 2.8752161339985247 -0.5368890203889721 0.26910734058946556 0.5989433665175556
Ni 1.984631716252037 3.939185537955509 7.736642888504177 0.7058032989966039 -2.159821786297119 -0.39870893764040366
P 3.212056141418155 4.883685137306431 9.361540948659563 -0.5658656101269803 -0.7092344361653399 -0.08809705004924827
Ni 2.1478191108748246 0.9600293497074311 5.6249404021764144 1.1317224785032123 1.8124240973361818 -0.8784443916365194
P 4.143211453193805 -0.27608969836251934 1.6917991504807106 -0.12737913547832258 0.3251658741459303 -0.033800236378896634
P 2.4241875483463065 7.897651302650585 4.718775301678091 -0.8525623816634349 -0.9037461036261016 0.4399268066396101
P 1.0106191089188876 3.4997037893453493 5.676783098312877 -0.4185115741886276 0.5401023851199472 0.07416012825318194
Ni 6.321608522134936 5.126910476074307 7.1897289754122395 2.5716706037535904 -2.3684768351377987 -1.5055858178548456
