# total energy = -340858.96247720456 ev
CRYSTAL
PRIMVEC
9.45241842622064 0.00000000000000 0.00000000000000
0.00000000000000 9.45241842622064 0.00000000000000
0.00000000000000 0.00000000000000 13.83456983187279
PRIMCOORD
 96 1
Ni 1.963730461669164 4.304877083577494 11.341095673682048 1.2567639669872936 -0.18182275913918364 1.7619446005293915
Ni 8.422804236850183 5.836887241534892 8.33195231779241 -0.7181399661850858 -0.5330182245796562 0.341698838803947
Ni 7.763091602318725 6.824457006849145 10.42892784961774 -0.9465989371255699 0.8142963962037009 1.314313226156672
Ni 2.40059288096824 2.866143389986958 7.5965626766367595 0.18536985306049367 3.609627006847235 0.36900832525217736
Ni 4.803095150445003 0.30793710433298527 12.963766811846366 -0.1773161295180817 -1.832682847585218 -0.5870954660400342
Ni 1.7643978633140367 1.584990962859735 3.550060832210373 0.06699523507362655 -0.008013871443412006 1.1273063517133877
Ni 6.728401531484729 4.675827789659086 11.628896291184802 0.31961074865565603 -0.05338587182030806 0.061269388333442865
Ni 4.498424801896897 3.5510845291186555 9.728926172314607 0.19009965443599516 1.656243978465767 -0.444773336098634
Ni -0.03674344064520346 0.49830975532559235 7.181095806293337 0.9399760324924135 -1.4202527037039798 -3.9777117918438787
Ni 2.290075205514515 4.820222932511557 3.763072025172846 -0.44312988695794003 -0.8602337821657636 0.7707187687230662
Ni 0.9291434221952821 6.405109918769343 7.338270618767211 1.8928574601925852 0.5033829182117266 -0.4231189910536519
Ni 1.049038841902996 3.2095686538070685 5.599749695952841 -1.6034011236331225 0.5149914489849324 -0.19847348032198722
Ni 7.965212664089764 9.209831494259355 8.945571179437918 -0.06501008632279771 -0.5687874117594656 1.184201779348851
Ni 3.9500332983796804 1.271785080533429 8.906308669300033 -0.5798547253172207 0.1179627272604291 -0.020752144945686838
Ni 5.645031506101753 8.185851013426134 8.777356887562538 -0.04058306362868495 0.08951784165617487 1.2524702247079462
Ni 1.5620783007574575 6.184660617800153 1.5001649605058411 0.5475089619966635 3.1270407136658855 3.1526013357438094
Ni 8.294695610830312 2.4961946402514226 12.450919237084593 -1.9431749775002147 -0.8821061567588228 2.331537538909288
Ni 1.5057796970111024 -0.3682860693461828 2.018546926216824 1.3418173451142117 1.071141888706678 -1.7142256971868737
Ni 1.5495065843399536 5.957188169990207 13.194347214812758 0.79639560466388 0.1052841033514961 -2.393987063593761
Ni 7.814002327600435 3.354786157056775 4.2115892763086 0.2960324471150837 -0.4984296879715094 -0.5716192247813059
Ni -0.1975243507230457 5.103407934129598 3.8772629104008876 2.3756674393489665 -0.36333801434027746 -2.336990334493743
Ni 4.505797688216937 4.339236624312551 12.350577089994358 -0.6346942988649198 0.7057369645350425 0.07508212584681907
Ni 6.342752314854853 2.0419208663350217 5.450544217397462 -0.4214117785545582 -1.091040684513134 1.3627674650033175
Ni 6.326172773053122 5.835015662699804 6.924368123662207 -1.1768383970052443 3.8990704878908913 -1.2742484969253023
P 3.4144403693205843 5.804635590093897 10.04764659551157 -0.9043562264062748 -0.41008092692277115 2.2147199809968954
P 0.5395232446127789 7.59825087855568 2.9474133925541866 -0.7178831129792732 -1.5663186169585281 1.380485193998055
P 6.45663505124439 7.409665679874766 5.221013978110756 -0.9447294880169989 -0.6155655484552689 0.4384234826212063
P 5.400204418184637 0.4831367333756848 7.4444231674227375 0.5609216358581437 0.9016406272473246 0.3198141229157137
P 8.21323466941223 8.318440085748183 13.474940363316756 -1.2908603944503703 0.025436180684917483 1.2446694977166048
P 3.3263721874695453 7.964116183560117 13.926293339960218 -1.2019825003710396 -0.09810815442834715 -1.4062252790766363
P 1.984866069119945 2.3617339890942866 9.52853206737776 1.1662277113689334 0.7247299606977776 -0.21674553915829767
P 2.3393128527466787 2.9192848860013987 13.018039762338383 -0.7869992510506445 0.22028337710822707 2.8448276889323973
Ni 7.1666723611193 8.883912109240159 1.7667987775772291 0.6865079411021017 1.3310909598356433 -0.9198769477496932
Ni 2.442939715216674 -0.5099116536194601 4.60534866789052 -0.04108520007608408 1.2943632653973063 -0.5034731639326877
Ni 6.273891447109353 7.1996045866821445 12.821699799635724 0.4962979863404873 0.33617328100002747 -0.1466122726763217
Ni 2.1929516068755297 1.0086203009998034 6.679524021392044 0.03405014760617362 -2.3273214439454115 -0.954259281884305
Ni 8.051125694554946 2.776666797800424 1.3025555380175642 0.32793418091968685 -0.22436757447992972 1.1770273730875986
Ni 2.852711503498783 4.315567768741551 1.258255834136156 0.3439143583980271 -1.0517763396958726 -0.31169509335300516
Ni 9.104777316617147 8.687018234821661 4.725625965299939 1.1253281449410941 0.5194677395887312 1.1848568964343467
Ni 6.550828400192078 1.245431738148466 0.1875010062951352 1.0116843567709932 -0.37092379710733536 1.4898624935823181
Ni 0.520425578560204 7.178969957404392 9.712338123336355 -0.08730000806924965 -0.47626677872122497 -0.04953975860134049
Ni 5.701566420307084 5.774378398926657 3.810815245062447 1.6812654402107692 0.6635402765623346 0.0201510210265782
Ni 4.938746806315376 9.226722965866932 5.494635022833137 0.06572690988416423 0.7578539969452561 -1.863257377937965
Ni 9.00483689730717 1.0276007570647263 0.1445322029186776 0.9320572918659691 -2.479244844422001 0.5084107104436212
Ni 3.2277078446380383 2.59834692545741 5.222010263005798 1.2830771509605257 0.684855235990027 -0.29579179185918736
Ni 8.784642811633674 0.8514908601340526 2.9372038354846035 0.811729663917789 0.6478596326022843 -0.33443367260110146
Ni 3.600331628769178 2.380468682281875 11.489291633956684 -0.20010330261592635 -2.0224269184540073 -0.6516792634586906
Ni 8.891303900396917 1.9515935564961755 8.54766123095455 -0.2407251899023467 2.5726465945136145 2.0588319394456027
Ni 8.330094917584862 5.187846387330773 5.809993220819792 -0.14909775810233675 -0.12799877134019247 1.8834011998756919
Ni 8.077932753021143 6.963624962349075 3.732732597965882 -1.9114197965758049 0.01639798174204918 -0.5912696520223817
Ni 3.9272151604609933 6.919019000112835 4.504743743569906 -0.8122479983151044 1.203964820908391 0.07617998689668815
Ni 5.5278498757049155 1.1372299051927026 10.887765251117878 0.7301369906459619 -0.44999884616363145 -0.28083337077714216
Ni 8.45988607407264 -0.09299667278343532 11.536523478013063 0.03223160634019611 0.016874150047519326 -0.13270543278724242
Ni 6.273106896385554 2.2743747386201743 8.935416446394816 0.41766233881445486 -1.5826140116844423 -0.5614487120062073
Ni 4.734158663352631 2.6392569921152718 7.089636096735079 0.2980841874377899 0.663728738424057 0.32937965511696177
Ni 3.17890500865039 8.986489753272302 10.344757845097963 2.445987110810136 3.511733282422539 1.3305803387478117
P 3.568836170796905 0.29722089763935816 3.032011591625628 0.669913269968214 -0.5059501647182707 -0.5742093541059853
P 5.654446114787342 8.377706748859273 11.05270049906451 -0.5237031178263174 -0.2061011720705741 0.1555306582118741
P 1.1508886497214943 8.855214567102157 10.889479919808206 -0.9844558600723432 -1.0612644816919659 3.543554026477562
P 0.5520221774089182 3.2793180488783165 2.8635203438923287 -0.640501392465 0.5970872871454234 0.38655327611447626
P 8.75036834266385 7.768129741304086 7.322859395874656 0.6327518304265684 -0.14425739929089992 1.0364510221927117
P 0.1301522388690923 5.66766059565326 11.389945771761491 1.0813849065909247 -0.3617565287857705 -1.9131820306825502
P 8.41372046280716 1.2519255495611168 5.12518252506145 -0.372428663787636 0.6266071509814112 -0.17635530826670917
P 3.6834940054918826 5.88151210860785 2.57410147236651 1.1560093760750347 0.663728738424057 -0.9991088340988278
Ni 2.65780263693568 0.6815533923918226 13.61174994043611 -1.2124296638462926 0.05387772385506205 -0.05267599023747702
Ni 1.296370820685254 -0.05021691777415824 9.00748073872219 -0.012069529570024376 2.551657136746141 -2.884135999613717
Ni 6.087366875630705 4.132342091270203 2.2856921191214354 -0.1474378539014106 -0.9407887582016959 -1.242082453715719
Ni 6.914047028055988 4.099608366492898 7.790910069549335 0.958218266532053 -3.419214192046195 0.8773208195550375
Ni 4.549486765872352 8.083651466128352 1.7581942411450084 0.5753447532620092 0.23076062249046708 1.205720370146917
Ni 1.1323146476460095 1.6570467480105855 11.176146247107877 -1.2063526044142772 -0.8289676250626304 2.1532479897343437
Ni 0.8596851616094917 8.403181016336847 13.059985814048392 1.1416723906270725 -0.013764400773944035 0.33191296306177676
Ni 4.313667832651387 2.252341151425286 3.097449738683325 0.00041240494707025745 0.7686994243001922 -0.7438980489857963
Ni 1.5629668280832059 6.92303627791542 4.881099342469188 -1.671927450639295 -1.7726709858079601 0.7790388585529874
Ni 8.779651934740109 3.541651015596348 10.72298124186499 1.2254880396921475 2.5240532589859432 -2.3822656613917745
Ni 0.42963415497992935 4.420291111741193 0.82944214906979 -1.1432068249937277 -1.8285264022146834 0.14968654072627124
Ni 1.4788970191980342 2.0552865858946836 1.3444335323153902 0.07596401423114015 0.8989358267216518 -1.8871308421214534
Ni 2.8013943242276347 7.640966357120116 8.805261371800215 0.04827169052219429 -2.435583398978309 -2.251702728868832
Ni 8.514577766697961 5.840412993582807 13.146632352178235 -0.8019257904534899 1.720783295799733 0.36699540858720664
Ni 4.545743608202178 7.4678736721296435 6.856550802903543 -0.8308779547114657 -0.5661247773256379 -0.05207743742152966
Ni 6.759065176641407 6.774614404842004 1.5987366696374299 -0.4810965960097005 -2.665832886160312 -0.5856193957151399
Ni 4.460000721267459 5.932923812062589 0.2761240451038494 -0.3570033303715013 0.9580804554026081 0.7556773010089115
Ni 1.0696356615073122 4.471523219247111 9.39212327279683 -0.5099844826886443 0.7577100151682241 -3.4005202151811176
Ni 3.737533481250431 5.467902638471977 8.067975575521745 0.11369598156427517 -0.9909047010214805 -0.6736328849116463
Ni 4.3498422377113775 2.602770657249434 0.617810063945899 -0.09282068077716273 -0.5943657744492021 -0.6325631114545299
Ni 6.476608011237011 1.2011944202282274 3.2762753154085464 -0.1752754449389691 0.013009781996106628 -0.7396472441292423
Ni 7.343356965086202 9.058507728749717 6.57010660743531 -2.545779852029758 0.8045529436636918 -1.1516395291421133
Ni 4.407804467088921 4.948473344806814 5.906669720070395 -0.15676684461182033 -0.6041573066183273 -1.4339584833258465
Ni 3.3347753873907187 7.418721096662712 11.770382924908201 0.8454329697075053 -2.143544132183018 1.6726969818154678
P 7.6683122034327775 4.789975193762676 0.8688927623330184 -0.6623650253073109 0.2072774517668624 0.8475389603069144
P 7.77031324994502 1.710793198800004 10.427613018224 -0.7718731940424836 -0.8047200653691754 -0.007128640624981271
P 6.499719174124828 5.34963397996385 9.545147528369256 -0.5818650708790302 -0.5317807526281294 -0.36925052316997053
P 5.431302874585831 3.6900823410881234 4.35604964084775 0.07681736337037093 -0.8903264877860861 0.7039796155243037
P 5.70635879641511 2.5421333934762864 12.676989891251894 0.004375246249560207 1.0746761271121814 -1.173792668200385
P 9.173855589984903 3.802745715509347 7.453595794198336 0.020806138112073845 1.040154439186228 -0.16679234716862243
P 2.4169455647293536 8.336768324946334 6.620643962191839 0.1459224456981487 -1.432999718957003 1.1864394104301181
P 2.259430465194555 5.0006223368935565 6.40602869383384 0.48869009208624226 -0.9588625849842712 -1.1026741549870043
