# total energy = -381169.5124052879 ev
CRYSTAL
PRIMVEC
9.28346720339492 0.00000000000000 0.00000000000000

0.00000000000000 9.28346720339492 0.00000000000000

0.00000000000000 0.00000000000000 13.58729263941335

PRIMCOORD
 96 1
Ni 7.460491491708365 7.12533975081993 11.326040990205799 1.6189200452043278 -0.20610837115942568 -0.4935697887760468
Ni 2.2057240091925565 2.881003429507907 13.495687588300893 0.5860333433241068 1.6104960828066912 -0.02904395264083385
Ni 0.8803716393075264 2.5812866837712964 10.182018876098219 -0.39313247199389073 1.0466392755796234 1.7494300130021485
Ni 3.8867185892610463 8.99112174993402 10.869005677180132 -0.32794575088391265 0.061035675056081984 -0.8723164243619106
Ni 3.109822334538603 5.470951588384431 13.206876131745537 0.679984795271603 -0.7019407307174039 -0.6688840573727513
Ni 0.000833655374543835 9.180959375257483 1.8677909414643283 0.34390098866158836 -0.937607789370553 0.08728509567091419
Ni 0.7784465937820065 8.312249627726148 7.17841147738109 -1.7133913742110363 -0.5851704811031793 0.606256098128885
Ni 2.6541340526359454 7.93922133975376 12.636059856949025 -0.5918769465890774 -0.4118331337271875 0.4937353678196336
Ni 6.182427248180255 6.785193504458169 4.096664205021724 1.5350012949024854 -0.7866297835263678 -0.21429090697021802
Ni 8.687738034565507 5.533011568104091 13.135012810427675 -1.2415975436595004 -1.7718037527116586 -0.2643104334214545
Ni 0.13932349403721062 1.4456122635700606 4.122465746029181 0.06368776796694839 -1.4787147044956146 -0.6721321319964036
Ni 7.416719942811103 2.3433049963945565 3.395138565609375 -1.2645888623483512 -0.2056705122910587 0.30773276627114743
Ni 9.189054558849936 3.928893381761632 4.012178153049439 0.16567237463156628 0.3115297714197344 0.14123223931133097
Ni 1.446466342572934 4.5161283970416415 11.68469104383416 -0.1205834527127278 -0.14962637691229716 -0.2565264186006614
Ni 5.183442602308456 4.206116285933436 6.006928866637644 1.2622833541436262 1.3319257970321126 -2.2532932132844032
Ni 1.4462435393547932 0.45044962123612026 11.482892599083502 -0.17044537054017742 0.03475180165888853 0.1136432739494688
Ni 7.255484680616478 1.8980327649399853 11.226215865011257 0.44413673095589956 -1.480823266198185 -0.3953050541651773
Ni 4.826047673475622 1.5349563540445579 1.010544419506342 0.20102350043735057 -0.052846197266754144 1.0704093814160274
Ni 4.148568071381129 4.438277239236245 11.33882710988686 -0.5129985869246197 -0.4649516108187219 -0.337307908825103
Ni 5.0039653266285455 6.796714287529537 12.009577126446755 -0.3385926890747975 0.6675825649525083 0.1319677832902695
Ni 6.337266201320752 4.226029323554778 12.409519114823821 -0.2549138226979029 0.332969172240433 1.2517228050189604
Ni 6.219728220284009 8.63520289242137 10.096527424604075 0.13767460386705965 -0.22239219592111378 -0.09778496676097352
Ni 6.734013748557722 0.42124290437807616 1.3949393849908838 1.802197277401851 -0.9291275198136837 0.9821351823589666
Ni 4.7684901754558915 1.8963524573365063 11.713048323423044 1.6122115228359009 2.9560160735834704 -1.2305389718524937
P 1.266859098349108 0.9006857227215221 0.06226235930947207 -1.883429996231098 -0.2594482202331467 -0.1215401601990423
Ni 3.214391311586061 2.0210758421582926 9.995695971540929 0.19769032229905953 -0.12256834435324054 0.1077248515825048
P 4.272660180418182 7.415420257371947 0.39817163113958687 0.4482762070455699 -0.41928007692353597 0.3175726351797047
Ni 8.580671804781387 5.44357464295537 2.163490730847208 -1.265109767848828 1.1218131898093002 -0.8226468250509251
P 7.427860103718147 7.667494248296099 2.1660863883385493 0.12025640839061226 -0.5420998751659503 0.2143713824991663
P 9.211724786295772 6.3400048242104 7.674823545826191 0.09798448436628932 -0.6980642784811333 0.3162552019198618
P 5.1464758350319135 1.0391449259416945 3.4608599448804847 1.5566648959188483 0.6882025551957051 -0.7098427591733001
Ni 4.465709885469842 7.109307202581208 9.381496196785418 -0.09032593937976702 0.9559058163487925 0.15358407600846452
Ni 7.309598012222446 6.77930778611228 8.682755597599831 -0.18907609826748728 1.878951134524138 -0.1737474383302169
Ni 8.667620760660869 9.246398537118946 10.23996813644318 -0.8052078036388713 -0.3855898837599424 0.8575477506931684
Ni 5.4296401583541405 1.1327965453002493 8.897421856544868 -0.1854590703401903 1.2148164189109143 1.2254417598352443
Ni 2.21294654684729 5.975452341994789 7.910766583756942 1.2402744539727026 1.6418956801638949 0.7197273652768638
Ni 8.927223643664698 2.1792011427663676 1.473324342173076 0.5246688241736964 0.6119253805995203 -0.0110040644199875
Ni 5.962074865438914 3.290840665810655 9.94449857705238 -0.2578230259248979 -0.40399409729874297 -0.2849944441333673
Ni 3.408016591617918 5.950062058594151 1.8383604930414013 1.1929661558050422 -0.5891492632452692 0.46923429735447575
Ni 6.8217610826355415 2.060465594432118 13.482100305381266 0.8590420758505075 0.9779339997934255 -0.7749065815521686
Ni 2.5728387284167873 6.5890245543525365 10.691800065978518 1.2065814325956317 -2.4363426457418367 2.0449315273144264
Ni 5.449729581856511 8.661057349193134 7.4928889363195355 1.3789749280011154 -1.7009328367327092 -1.1443712776154742
Ni 7.644517666425319 4.546243965360351 8.457586951959676 0.6043694226291333 -0.6435736036324207 0.9304794058558878
Ni 2.8054081542861877 7.790463057775026 6.142162993275226 1.2410534982305723 -1.9591998921735614 -0.7715644045528132
Ni 5.88387093587146 5.633180181593268 1.499888055855924 0.6165165995146286 2.28698649177179 -0.6425263933148289
Ni 7.80994905589493 9.406659035234204 8.036911267441118 -0.20872318307445345 -0.33178337946244796 -0.40062800903998746
Ni 6.003144925316218 1.4056933536531508 5.659528518831912 0.10277753487955847 0.48581971251698264 0.12146405554546823
Ni 8.674165605193757 6.3311669632241445 4.457990682308003 0.5488842450776353 0.42117986504941013 -0.7230728847103288
Ni 2.410238796511049 7.959756369692411 2.247175619580927 -0.5649875783974011 1.0105317312237887 -0.6148471822320056
Ni 8.153827256160552 4.051277332792939 10.9842395016026 0.8936444964157255 0.4453014406879621 -0.9079064056513784
Ni 3.339838806866806 9.052615438140906 8.11179078732456 -1.831725111657639 0.0011138018894690496 0.8918321257973351
Ni 1.0389035557887085 4.167199990498161 8.529477195333063 -2.2221414702719473 0.017866081647143425 -0.7329443781877699
Ni 1.9005578680789155 0.5247693480339836 5.962484266352248 0.8245838941726381 2.368688694038288 -0.2728035584941302
Ni 8.194006103165291 0.09540897974164092 12.988568896877378 1.4651575346364702 0.4392102401885597 -0.7659753405008098
Ni 4.904687926011934 8.73915916061894 4.9755309942600565 0.8779867352738104 -0.30441372920024345 1.166315128876417
Ni 6.078099641285783 5.469614769075585 10.384346478491963 0.5270751196223439 1.1810580915135467 -0.6718135723147204
P 1.861762257720133 6.5272616455903965 3.836032713827478 -2.064979189993921 -1.2702015805494382 0.29063981534460265
Ni 8.17764863356678 2.2486414790869453 8.924568571981851 -0.05282562844146385 0.2287515624802383 0.12947612721666735
P 0.4116985715209657 7.094091599475669 12.350822535351345 1.0710698978181619 1.8899747393281516 -1.7963495603718227
Ni 7.414928233598553 8.059590778354377 6.008395654490404 0.1354472571984377 0.05474855649578959 0.08538170800061425
P 7.830289133017709 3.9693043154519363 0.7282026113977511 0.11079037788170597 -0.5980146840556991 -0.40623584214506814
P 5.171216275712974 6.768288310281728 6.158195541513948 0.11091867592945412 -0.19521177885157995 0.30222597752030533
P 1.6682205288950784 2.740572417807188 3.080416023130974 0.13403109357720142 -1.2377061790248942 1.087937620107778
Ni 3.343802847456229 3.5090578510448127 1.9334714734787786 1.5016327467443686 -0.689380120443574 -0.23263032870935418
Ni 2.9313476733403263 4.633118653500454 4.5881430388784885 -1.1930643719458034 0.9118080546986297 -0.12936685533231268
Ni 8.152787507809228 2.907554146336364 6.409669820442604 0.5714099369839772 0.8384154007390915 -0.5168524134530712
Ni 1.4100287329394756 2.7854115654580425 5.487242217017498 1.0289256603499441 1.276195336239028 0.8899642193506608
Ni 1.4737690202626157 4.741094663091984 2.3513621177705764 -0.6132523269410599 0.8464482983458971 0.1663290343789587
Ni 0.9294793252792634 8.397388307458236 4.318925268665138 -0.5368789930866432 -0.28544258741437933 0.008119029562708598
Ni 0.25146499546123247 5.939209685177205 10.004649875869966 -0.7513064256347255 0.6133824247610211 0.20691004112511466
Ni 3.2660073904553677 4.059780988951983 7.06048730409957 -0.8041760199402473 0.047263560972654085 -0.15815061233322442
Ni 9.416870849398997 2.5812866837712964 12.53377461288751 -1.212124731011364 -0.3807441256318668 -0.041919008831289094
Ni 1.0727789284135465 5.314163107085201 5.945636629673827 -0.6537687989978676 0.0042484908637088125 -0.14034083784531312
Ni 3.388976199934295 0.9535792067081698 12.978840751365302 -1.3704447790429173 -2.092743761701699 -0.38461415011023437
Ni 7.3600536576639355 9.199247806079882 3.8570384155644524 -0.06867622232047528 -0.3220792648008066 -0.2733162364644906
Ni 1.6860262194115048 7.832786385754372 9.316997450173858 -1.358341310911164 1.5486016592947396 -0.9645969163648872
Ni 6.175548198820155 2.9417915741906806 7.587932147444728 -0.9908617635986872 -0.2457432119422284 0.38023067633055807
Ni 1.3417116961770248 6.432542427478251 0.6975114680988433 -0.9533280283192872 0.5732739867759095 0.0555769659343559
Ni 7.085355856631062 7.419885605202188 -0.08447955354508796 -0.9436110581418393 -0.19321377458494465 2.0097858326512292
Ni 4.882426171132689 4.5975908236744045 3.3231118552648784 1.2213372507485676 0.7555993965831245 1.7455772149149613
Ni 6.087030336946262 3.4129182624170182 1.7925716466732213 -0.5364943560537146 -0.9956802680332529 -0.2691759890438719
Ni 2.7278355005034673 1.033417026541989 1.6267791303208727 -1.84807912753563 0.2940308433040227 1.0525145034134777
Ni 7.436549429225642 5.572178517159776 6.321895564309257 -0.5942122795904734 -0.018331708429652302 0.3097464542670666
Ni 2.151879898141841 2.2822940484936427 7.9312152774485645 0.9153474353104557 -0.6091159361751833 -1.6444361871975617
Ni 3.16594089510784 0.3139055973452173 3.747375599942248 -1.211622851674281 0.16829901362113595 0.9626886435985806
Ni 4.010587895079959 2.654932430834283 4.546416637854411 0.015175679299173865 -1.7565182873074974 0.16537438377517324
Ni 1.172251281846032 0.7475345039584425 9.077303891404402 -0.5124334584497691 -1.8379016727819961 -0.711236039976401
Ni 3.87268198651817 6.923489318651704 3.958875268149458 0.5022637170056189 -0.5369350431355592 0.9314417697691572
P 4.51843069696243 3.4304640158456134 13.534397790759387 -0.5552428403058114 0.451419637770558 -0.6541171834762218
Ni 5.7599923465851255 9.35402177494842 12.369422890679141 0.7980519093203804 -1.5695777473257744 1.0130197877529652
P 4.174171874532486 1.3886860413350628 7.0553786119769475 0.6245345847230986 1.01015043662497 -0.5783102636482362
Ni 5.1015995535113685 8.277965782534718 2.3017958285081663 -0.5694911226947096 -0.40806749603716824 -0.19272963585967454
P 8.977038729854032 0.9753396543465968 6.3017866455253 0.41214809386444506 -1.3272430468444625 -0.05142643410109207
P 7.1741243721253625 4.140519305125789 4.672126855263214 -1.2170676768389361 0.3946118847528946 0.026852344306153755
P 2.873038214459371 4.18885831999494 9.555019056460514 0.25808322156482 0.31165472703337294 0.13784069713127875
Ni 5.051375994755443 5.323177353952485 8.180026129573692 0.6570343571230168 -0.5694859804883868 -0.9514200126632968
