# total energy = -381175.1889088096 ev
CRYSTAL
PRIMVEC
9.11134857111551 0.00000000000000 0.00000000000000
0.00000000000000 9.11134857111551 0.00000000000000
0.00000000000000 0.00000000000000 13.33537962305557
PRIMCOORD
 96 1
Ni 0.8589951395514669 8.663971989120949 8.815072767093357 -0.29500529140215 -0.41999741470553476 -0.5948668824553368
Ni 3.5314674884119013 8.724498675891816 9.075285585522762 0.8770886489395734 1.3347208432787465 2.6505281374824414
Ni 6.274703123860615 0.6606046416214874 0.6452802649121812 0.35713651351525594 -0.8848670073334115 1.1538385936759614
Ni 4.025612352228127 0.8759276692360941 6.8848564076637 -1.8439342521293212 0.9360730978935815 1.9381970646696491
Ni 6.890001586049897 5.263106567271385 9.312802035331629 0.41725841850781686 0.15222601931867333 -0.5081685125258281
Ni 0.9331387363598258 6.406389440870902 0.5760859525015243 -0.2813715026687993 1.0003720170819674 1.098840897283843
Ni 8.016847587312421 0.8540795671424826 8.988018913754884 -1.0234389262037598 0.22514918984096063 -0.52201673126283
Ni 0.4220467647016891 2.871395860666087 5.184662414064433 0.482861144109291 1.2210667706960006 0.16097291227336794
Ni 7.747397683974346 8.561314427801161 3.589337306017875 0.16521111872443162 -0.4147271674455309 0.5208314527054773
Ni 0.7049677965044243 3.690834081563976 0.8292019417384219 0.9589674859932518 0.4143805827393896 1.6427189473961388
Ni 5.684606651074947 7.684210483499265 9.880796199406056 0.4304816020663102 1.68770605362979 -0.0839370051342877
Ni 1.09852793073959 1.034684713186758 3.6896322947229288 -0.7198291809620506 0.7499807648447664 0.24055626842465022
Ni 1.1335063968713615 0.4641630610933276 6.2462383606300165 1.364776010792914 0.1715596866502787 0.4493154469433616
Ni 1.0613262956221057 7.803314028504348 4.292178513828589 -1.0043695682771347 0.05849593935336378 1.1943643217041495
Ni 3.7253114235391314 6.648887975931359 0.9405945526754362 -0.6270344683268169 1.5646574272060214 -0.2885358816277224
Ni 8.1688613223847 6.996604361184497 12.299500186491162 -0.012057188274850202 -2.363459584428865 -0.3992930922786478
Ni 3.650407029147547 3.4292472718106137 3.3797580723729137 -1.3033711253228715 0.41544167701405227 -1.1337148263428927
Ni 3.0064624878964543 2.1880265153117966 10.517453484285129 0.37234433160394587 -1.4760530985030516 -1.7490410050938459
Ni 3.7478528992385334 6.926811433190392 11.373638684020227 -0.9994973277864981 0.9972208730474955 -0.9452079703153142
Ni 5.131575143182233 1.7044781495709156 12.39075398427604 0.15558053761320303 2.1173988412462177 -0.5257543439283913
Ni 1.323459786273594 3.409457423298447 9.293679137515177 0.7575614054055018 -0.5656115851346453 -0.6400738180092782
Ni 7.024056853618731 4.036135959517056 12.357242445220907 -0.30342719691725806 -0.5379362307065638 -0.06311312641040098
Ni 6.017535318033772 2.6946630376502054 8.264081290085484 1.039112885295591 -0.572741254200891 -2.0519089870735243
Ni 8.454237862554852 3.852296284825534 10.486289028552617 -1.0722284369026374 0.4507370098812366 -0.5371494731392104
P 5.6274056064343485 0.7086159803645863 3.5958054521775376 1.1451348952543763 -0.3030605576064587 -0.5521750000137652
Ni 1.3949200910069839 8.534080607726176 2.0423670345454052 0.2643651979187899 0.08423756709384203 -1.3393220894961837
P 2.0812415132111552 1.1923019274648288 8.624616431264847 0.6900784320621792 1.0587466003661183 1.2879316508393497
Ni 5.827162806609643 2.8957960514191177 3.4144039742916585 0.9676012504088497 -0.5446714925478684 0.44791213883793185
P 5.792639907892977 0.0682531101310497 8.028631294071532 1.4227700708091948 2.308421521717115 1.6399478124089046
P 2.122187912480804 7.0600102340188275 9.502471150666835 1.2291986557745151 -1.3011838878635655 -0.03236787480774425
P 0.1368624739807116 3.1138579503333363 2.9429983024329895 -0.24188527164871892 -0.7663985440811575 -0.06965658395587358
Ni 5.488120424940107 5.014968107611926 4.692786275975431 -0.35353414087597823 0.8837922862119941 -0.8149995929183126
Ni 1.100022191861135 5.440531852758226 10.554525738256723 0.712795928264353 0.518591764741681 2.1818641108091392
Ni 7.818766875224714 5.3099844542857015 6.865800022689853 -1.2885209476839163 -0.5472917037795348 -0.293757535037978
Ni 3.2112582636828115 8.558954588590916 5.245271102970019 -0.9255318320426255 0.3771484378608085 -0.9980994189977069
Ni 3.5685780100463647 0.27011776516862085 11.714036834317115 -0.7654868309001654 -1.628925750266788 -0.03952016958180936
Ni 4.730502702271984 5.797068023167799 9.064630774818283 -1.526307109562597 -0.13479548254705173 1.371740357925889
Ni 3.745675286994331 3.367034985603858 8.445708729409255 1.4851964555652164 -0.5464717789814009 1.1346324530611556
Ni 7.31119188401119 1.8945135411078673 10.942412235904168 0.00660027892533702 -0.47323236277027536 0.7361050353039388
Ni 5.587288339860191 3.468653853217207 10.260160852986548 -0.27089682838972057 1.5044879568049767 0.9448315608125019
Ni 5.527855014885577 5.274395527817689 0.5473323595297493 -0.5868208722224086 -2.0951199752433594 1.109006010742303
Ni 3.0232820368621356 4.3758434696126445 1.3055095189836219 0.3578127136466741 0.45582290904457623 0.5737133883061732
Ni 5.135319907334397 8.146684300617382 1.86874027016571 0.37949765481927544 0.9423910696918093 2.6357658915716025
Ni 0.4413746678549391 1.2171941310261727 10.919568263441137 0.8183898495467841 -0.7138292546248738 -1.2084359693058673
Ni 8.127641582665989 8.051388708725693 1.3083076140471976 -0.5533857324924146 -0.7526683389792586 -0.9434153971912655
Ni 1.4533693903649711 0.827173755606374 13.13401495542454 -1.0240210239594751 1.7497514008973092 -0.21404048152230878
Ni 5.885876335068391 0.7175833693635154 5.792301876870969 1.659397179382768 -0.07373795311409882 -0.48363273216799285
Ni 3.525572446060441 0.7430104090701929 3.1765276262248574 -0.10007967633242118 -0.12707780218781986 0.8068070298051911
Ni 8.667252074509706 2.347620892171424 12.816246660905584 -1.770443382029022 -0.5135017518132834 0.3136056801121566
Ni 6.732293258288806 6.610201191040632 2.6966939571867434 -1.320281785035281 -0.7631514978987696 0.07689912445089982
Ni 6.14835605695536 7.3720101339277235 0.026539535334364112 -0.12791881003187644 1.071266330099684 -0.6949581287519838
Ni 8.452534040422359 3.291283235820178 8.078772866047661 -0.2163526745952532 0.8497783911603947 0.12738839144970318
Ni 1.4574877197975216 5.144340142153479 2.9656154023232983 -1.0405527030659112 -0.9263568990470821 -1.0546657454285258
Ni 9.055204173864928 5.79984698439994 8.747795482365461 0.3688399179951131 -0.24571878646219614 -0.5196348612942148
Ni 7.861316871795533 7.800024831767289 7.612688221597421 -1.746559890543205 -0.38827565812222165 0.6303483631913983
Ni 0.8850463066168384 6.931494666217673 6.915434092565556 -1.689968881522038 0.6406307189540128 -1.4869417203910973
P 8.421746794509554 8.652628360484831 5.853351555034376 -0.5224291362099003 -0.36148502029193874 -2.5394590520180524
Ni 5.841804743331122 5.989882375936891 11.450823648891827 0.5077913316920674 -0.9991065201059824 -0.05482029027398946
P 6.210787015521366 9.083412908208237 11.809811683129496 -0.2902479792228227 -1.3580692881966998 -1.267291605991495
Ni 7.692228470005115 1.5375491373280963 4.375204764096667 -0.03684827917660106 1.4896951147665183 -0.8918637503662188
P 9.057846464872537 6.776155289015127 2.691893187766366 0.13452320272227153 -0.9345211800254292 0.5312279654484529
P 0.8339753771138935 4.798272910943022 6.858838952587047 -0.21795395764410205 -1.9810684101118785 -0.42316552802087126
P 3.650598367461891 6.447818741600562 5.760896881543283 0.6092298360452282 -0.9999632116793229 -0.5721051632787889
Ni 4.538198585007809 2.610865967315769 1.2371816957964952 0.1111978977327698 0.23349447648186236 0.6694111335208148
Ni 3.6581334525077303 0.5246022789204943 0.9210789557471629 -0.08259591772536097 -0.6448486136901024 -1.6013704663563388
Ni 0.13360334469304955 5.591133328843678 4.866146988984704 0.4700619354620937 0.18181915959475783 0.8675390575779252
Ni 2.1200740796747164 2.578174449607825 7.1382020028778115 -1.0056258092817392 1.2429036640654334 -2.3739915943084404
Ni 5.441297206015602 1.1733412116481536 9.950393233411665 -1.4594463431843057 -1.9152697664495144 -0.49857958328581237
Ni 7.7083373338032315 4.635088662852366 3.5049106415157634 -0.1700990429443522 -1.3179734486170787 -0.12488670807377203
Ni 6.73612002457569 2.804983242892062 1.2075023898372264 1.7082627947352191 1.5380521659136672 -0.09632997948200184
Ni 2.662809763986055 5.295880087114047 7.983558365155861 -0.9298654264209727 0.8125799277332264 -0.14235786827534191
Ni 2.9265104065455048 6.893728127505457 3.1723400505452113 1.2647176746167315 0.7625822556588608 0.9879240211266018
Ni 8.491731060818005 1.195609346898492 1.6069265878396253 1.0497348837858116 0.8752927333814151 0.9787675514383142
Ni 2.164382566467841 2.17087895780724 1.7632709467598924 -0.5430699523887035 -0.18682869699420726 0.3066611304735235
Ni 6.592014939829636 3.260359319682842 6.028324976693122 0.7145319371188532 0.007104472255265184 -0.9490947069642299
Ni 8.119222696834846 1.5707326678443532 6.657514600503791 -0.6020425742681695 -1.120852368557928 0.6677720552554951
Ni 3.2821627761697734 4.466747391622722 10.764945038215139 0.7699201840811708 0.7898228365423687 -1.4139424452152358
Ni 5.140249146765834 4.889304391829328 7.072604850776824 0.08050201131080975 -0.07446300420558144 -0.8168608144967674
Ni 3.164353042623588 2.994371728699564 12.676864899119341 -1.3596361184631875 -1.1643307514565366 2.089440665470395
Ni 7.062424741318885 6.7817405455243165 5.259513962635865 1.0752916492089932 0.3909087248696945 0.46458651416981916
Ni 2.8751952929080637 7.695125878765183 7.331725218544807 -0.39448667202893994 -0.6580016061322926 -0.4243333230767273
Ni 1.1991081046464993 3.2706551432642175 11.638439066319739 1.0486326518605682 1.1334949970226027 0.4726176120044119
Ni 5.196356829610181 7.461219345153609 7.204785002865085 0.5954538653070583 -1.8223930356234357 -1.1447476871182867
Ni 4.269395587399181 3.044137913125648 5.47135918860356 1.001140776927192 -0.41094790290875677 2.2829166925777913
Ni 8.169963795529254 0.08518472868084674 12.636898880927 0.9214676892755808 0.7807123896006684 -0.7802511336935336
Ni 7.834921295764342 5.208146914313102 1.0471608824168268 0.2743246231243469 0.5074298345875906 0.586519538931906
Ni 8.100517098770629 7.6007960897935165 9.90742684822344 -0.6936175555636893 -0.15108239263253337 1.423653758965729
Ni 2.3621626040615795 4.5272194103037755 5.094221348548103 0.25883449790854773 0.8881122537435866 1.4928791689214547
P 2.643101917608607 1.7972590093312255 5.059589113651812 -0.6749734580999408 -0.45593346648051153 -0.1255953041050224
Ni 2.6063831839511344 5.510816793560645 12.743621925859186 -1.0183753956379236 -1.290257213648733 -1.8418755698280795
P 2.376913876962683 8.154018936000575 13.285665147699564 0.49601799320622325 -2.2950422721967314 -0.6285120813136078
Ni 5.200001368931023 7.808616833216172 4.427678841238136 -0.05411349401495196 -0.5960071667073671 -0.7630190860859634
P 4.863100154112481 3.971673170279681 12.195257250566808 0.7684852514068571 1.5138935663895927 0.473369659679088
P 4.48104309710872 5.454563329143464 2.7215378706020865 0.8524662224052029 -0.27305604082456847 -0.39024280915092147
P 9.041673821636305 4.871291256236072 12.624563937595612 0.28845617742972257 0.8982917653797498 -1.9597917601212893
Ni 0.956099334081124 7.81463032309556 11.15191128968407 1.2024355287480581 1.103919340248015 1.2489447280531911
