# total energy = -340861.2864872127 ev
CRYSTAL
PRIMVEC
9.37211247582503 0.00000000000000 0.00000000000000
0.00000000000000 9.37211247582503 0.00000000000000
0.00000000000000 0.00000000000000 13.71703395601640
PRIMCOORD
 96 1
Ni 4.05729061292712 3.692068759254756 10.494258070389423 1.2930445465858826 2.3509820207871446 -1.52120578378029
Ni 3.3629201667588373 8.93013308719827 12.099946498284472 1.8985591385630527 -0.7960171382785388 0.7580350026078106
Ni 1.2062002563444527 2.439626499625142 9.830380729589725 0.2730616972515233 -0.31722862157672466 0.5828554598167575
Ni 0.7077884996955152 2.8799752074389438 5.107716049489855 0.2899379041815716 -1.3476447504292663 -0.8086263424021171
Ni 3.095552540143702 3.5340643138991554 8.053682175763717 2.4903201283995564 0.8634728579283516 2.386880020235335
Ni 2.184152083826559 7.368101833949132 2.0871151049830443 0.5270267828829116 -0.3398255330406341 -2.2973999737956303
Ni 6.561959573597868 7.867541711343992 5.849931130188083 1.6918190473568993 -1.6684222656995138 0.5553521121901661
Ni 1.0706513926409085 8.132519449260766 6.518485155146534 0.2609111779319184 0.9114339591886625 -0.15600914051018938
Ni 4.5701794718206035 9.067162744683543 7.916868076866922 -0.40235373348184256 -1.5885226638593932 -0.7662841299904802
Ni 4.716075147771171 2.3160364515259486 0.250113567424219 0.797815110719226 -0.5430316429516002 0.7983552994934121
Ni 7.200078600285498 5.664870333133266 3.5065815310792514 0.12263133638069201 -0.21253021552536946 0.8953234267800451
Ni 4.4567394216050396 3.572930464613295 3.382167674287564 1.228236548971562 0.16928477457317298 -0.5461817585448077
Ni 4.2073756231842285 1.8409359504042064 6.997360743200434 1.5042750694632223 0.5277801161091685 -0.7136006835538355
Ni 6.080064290882745 8.178320963256425 3.6210365810831777 -1.2695657467376522 2.2794145929618037 1.2446054772478887
Ni 2.1134863552553966 3.243931825918058 3.0354285637604503 -1.4690411859615926 -1.3754861981215667 0.7203873674583658
Ni 4.163176740433353 4.582691242064967 13.027959024083366 -1.0344429906237476 -0.2896931351606172 0.35246970416720586
Ni 6.961473987063585 4.087309489401051 9.650358380237806 3.6037234968786067 -0.8697802882036183 1.2505912625176785
Ni 5.821975055684778 9.356507975211063 1.4471881977859473 -0.46473280993969646 -1.3772438042426216 -1.1059751943357792
Ni 5.48813103480502 6.530103763065589 7.806459905058887 -1.064379887392496 1.2419945219876027 -1.03177238577012
Ni 8.726027220245646 1.1888618481406525 10.738365988096348 -1.0193992089167476 1.0330278554437757 0.6104225708017488
Ni 8.39879991082096 8.595136296475772 3.8316476313516152 0.7581201061224492 -0.07341605099830582 1.010614263635266
Ni 1.2871003318121281 0.2598408830321778 11.67117984715081 0.8737966084518629 0.5939703387829964 -1.074787198768749
Ni 5.130360010604018 8.949833267762802 10.279394892660411 0.11905236078018205 -1.2323305165352776 1.3796249028802883
Ni 1.946175402145 7.266526878212493 10.968551632621248 -1.685338324728562 -0.05551191702437536 -0.9354084677263891
P 2.774763872035778 0.5433144850517618 10.054462317215632 0.4134141050610622 0.2743202522489727 0.10311974871032563
P 3.5983476338288107 1.8173838315846664 2.343568906542328 0.210409826748257 -0.13274965576161654 -0.8579758393695225
P 5.337380604557388 0.15437837501287058 5.819109063669252 -0.3085442064288492 1.9504547989910799 -0.031840027328732264
P 1.3428081687653095 8.336316036499483 13.48812412665723 -0.598220372308602 -1.024175033038836 -0.4381666294153938
P 5.292797465192265 4.447395425400073 1.1993558025545956 -2.9732882304003567 1.1931846995737516 0.6237090034980097
P 8.791838194519745 7.017462987393045 5.739029048049054 -1.2449762303237462 -0.06370370880654834 0.05931714970307849
P 7.42010768644799 3.3021420169201123 12.302259480107697 0.6815056027915037 -0.21301126892684605 -0.4509110735652556
P 1.0482801600017355 5.557156643681228 2.7168095397061363 -0.37932616223841764 -0.6251796745062652 0.8186683000191515
Ni 0.3212085387498322 2.9226089473952057 1.0797695209335987 0.5613193855171946 -1.718446934357073 1.0192012339733287
Ni 0.3559978205079429 5.062149775519015 11.705883842684782 -0.2821274069982173 -0.009604612969299589 0.33452623231490775
Ni 1.968612239571971 8.388940448426151 8.784114636573392 0.9726781507111248 -1.098960710691159 0.29108230219865994
Ni 5.9895203116087385 1.5578138026049697 3.0752769118690533 0.22644991093025515 0.86571306011278 0.35426716238726086
Ni 2.976667292540891 5.225365115448299 3.9607522304708715 -0.4844649982613011 1.3423454497035399 -0.04928881893279898
Ni 0.09945029782323284 6.692578706104007 0.869753599811616 0.056082187705548577 -1.138348211349846 0.4750146514816787
Ni 3.625105015137918 7.4457497863645274 0.41241793801436166 2.1062227700247402 -0.7592531912856278 -1.1007288583351753
Ni 2.625897236409207 4.6848004082165335 1.4017437612781607 0.8275784580245876 1.3903790560729992 -0.833613608475074
Ni 7.385890103554976 1.398965867120536 5.080789032943727 -1.345872746130508 0.11163395682892387 -0.8097020919647989
Ni 3.6220871948992026 6.0708046436906615 9.181428478014109 -0.8572505311677237 -0.38895005848142694 0.276818078970162
Ni 0.2326814380949932 5.131203500732852 4.967542048246541 -0.25451684436980043 1.2927229015804058 -0.339159617321861
Ni 7.300594507304825 0.2445474697851721 7.286776264572023 -1.6978205163559728 0.7283732138773198 1.7868927858342967
Ni 6.768202282210202 5.297492893576105 6.235009678704442 0.44002785099384856 0.6821373228382316 -0.2863638136770681
Ni 0.7624016739037217 2.4280425685224953 12.286306270137693 -1.082633434286045 3.111694570227118 -1.2429612567762465
Ni 7.449208095892744 8.664358719715375 13.250572938885105 -0.3922361854318664 -1.0163470523539853 0.32959228534840007
Ni 7.514278673275978 7.424540695680636 8.024834813357609 0.3213146187206402 0.6591897129031228 -0.11111613665224089
Ni 1.666914564713312 7.37036988518444 4.1043564249047755 -1.46015468210524 0.36328479250483886 3.633180625797459
Ni 8.604920781970241 3.6409720016725307 3.0973613578644223 0.42608218744703397 0.37012341269322707 0.7028951242108734
Ni 9.102073863904709 1.2120671987961167 6.470626462447776 0.8286922599140568 0.9462466959924736 1.7995251298863266
Ni 2.8723744241668996 0.5088710342464728 5.8501232584952065 -1.1289580283841976 -0.9838364813207895 -0.6920404408845566
Ni 1.4199875155535753 1.100895199815861 8.059209847741338 0.6548543187525626 -0.08970218975283906 -0.8885853367252633
Ni 9.059730659437266 8.79380633815369 9.176271004481919 -0.6234842890817134 0.9850341011733166 -0.6919039153066922
Ni 7.657531413489535 6.422596260089488 10.313111067532393 0.3007684191381723 -0.34276610372619676 -0.15744561584639982
Ni 4.0732700648122435 7.672236258068866 5.227946195242528 -0.04020099769891786 -0.8540965589197743 0.5659697398050124
P 7.993221740540184 1.8394270402848487 2.0140173132070784 -0.6810672297025046 -0.9224524217863532 -0.34699196888208633
P -0.18229133779847972 4.561444662930906 0.07163761664182945 0.5964229140885471 1.7806779152728363 -0.7328093952718024
P 7.791655716086606 3.755939706232537 5.1588671653248275 1.258896182838948 -1.3908197431548435 -0.7761592230123472
P 0.8030935121411584 0.39685273350362077 4.914744252237835 -0.46753891192992375 -0.5897678706658747 0.021621177814201475
P 6.976094482630033 0.5023902184232687 9.801520246226058 -0.08944173700260082 -0.7531864162662577 -1.9307912591238812
P 3.1444468512784174 7.279122997469741 7.361876876798341 0.9404540005700964 0.306408133922453 -0.42414357566342437
P 8.640619158644984 2.562391801820587 8.505301786121242 0.6934226659440639 0.1533354503327682 -0.1267060206706979
P 3.8625006258418364 8.324122918081567 3.1718443478741842 -0.6212538570892978 0.22458457558674225 -1.0476420058125249
Ni 9.009880392823206 8.130213909575287 11.471925922861487 -0.7866518950135549 -1.162963438795365 0.7149163170414655
Ni 7.165158108951791 3.7975518859216564 0.8986093971190101 2.0174898861637063 -0.031840027328732264 -0.17617584526605146
Ni 8.411246076277527 5.436809346521772 7.893302837089822 0.7550502089478738 -1.8707035498033653 0.386468943930786
Ni 5.033339901563079 6.393617688107786 2.6981684078589163 -1.273250394678091 -1.6891510136064327 -0.7527531853835809
Ni 3.108129915175864 5.385534518801237 6.2619769953345035 0.5982360560378858 -0.2488290499564037 0.07495691312286447
Ni 9.474174848183337 8.785474530103324 1.6756043874628057 -0.22476403858740002 1.3839538692729456 0.4244662491101658
Ni 7.038175356112179 1.6571675676690139 -0.07880728273691423 0.2700162255569801 -1.182018655654603 -0.20737001148066866
Ni 1.3156290423917858 6.030588908770388 7.800849758490889 0.9061313160288265 -0.1770093969109403 -1.121820388898152
Ni 5.940954024413015 6.610807024169871 0.3033565387786982 -0.5654606613790778 -0.19055859635028471 0.29963893351941945
Ni 3.5152076234634553 1.916315851584294 11.729559673389886 0.17854691660138927 -1.5568101632474607 0.6077843618479533
Ni 9.398823063340878 0.8657938822623698 13.457781912300579 -1.3931946711449232 -2.0329792400485567 1.9812782121298391
Ni 7.942837263511196 6.096624813745509 13.012801506468225 -0.9504406794691631 0.05830259239563508 -1.7517789728502993
Ni 5.771899858369696 3.2103609187904847 5.685779516215796 -0.637001863952174 -0.12261565265140818 -0.9871763443273
Ni 2.053120578368546 6.162304578444011 13.097449489741686 -0.6828047812189015 -0.34187110271575316 0.15026735293040575
Ni 1.9943949211766485 0.430498617531535 3.235724666964508 1.0880335222556938 -0.019443196326276193 -0.868358211045111
Ni 1.5748710474324916 4.664837808500808 9.803180047357353 0.6682507946641265 1.3374899213834515 -0.6154035689561078
Ni 1.0768182426939357 3.615676669920068 7.349463513735674 -3.180207527496852 0.3104118557652073 0.5450070215104162
Ni 6.423064865716618 2.724510604582387 7.8647853730452155 -0.03649089583718231 -0.49058268112326486 -0.026688050814147588
Ni 2.728868636914693 0.10639690763980386 0.8790207446937334 0.4469500320349787 2.093198075630298 0.3480366080965167
Ni 6.113532104772349 2.1268134992909657 10.937867336156792 0.14584634104457464 0.007213229918987578 1.0220294474507432
Ni 2.435849538270477 2.5425979001306276 0.15967736744445352 0.40908822399219874 -0.008648162593301234 0.5523068976059392
Ni 4.50705829384623 1.6257053858635242 9.301603328302782 -0.652753984580108 0.841879448028292 -0.3415332597603602
Ni 3.919501814325896 6.5221093510667565 11.63872515862706 1.795096918911644 -0.3826948216003345 0.19154615707453465
Ni 6.056690242201514 4.767865441681549 11.580633056243041 -0.49559838917030136 0.8339918177500991 0.7701076175016285
P 6.048236596688094 6.972270660712654 11.676542569947681 0.4779133131857124 0.8294880163424746 0.4600505739726786
P 0.3029554123618752 6.756402792519076 9.433766984955941 -0.5766457314616197 -0.35369149238944897 1.7466015424144177
P 2.3199633666812955 3.7050303909011637 11.660411289839368 -0.4144471743112669 1.617542448130511 0.7324155022674935
P 5.395150306269939 4.691745143610596 8.683924879070549 -2.9046330911258043 -0.6593843454124321 -0.7114191025214845
P 2.708296849883698 3.1224692473660336 6.002230770639006 0.2944247363083316 -0.3643237752923145 -1.2251995619174514
P 7.193433772492799 7.35079154208296 2.1379784969629587 1.3957248937659448 0.07542793922201205 -2.229644977737844
P 5.417605887921996 0.06666196209296603 12.93285832369115 -0.5778929736051596 0.9187603176467468 0.15544581180755163
P 5.13286236465289 5.395140934157397 4.828861961742517 -0.9208570522747754 0.07729687410995074 -0.5646232530794469
