# total energy = -381166.3186654368 ev
CRYSTAL
PRIMVEC
9.24299295861179 0.00000000000000 0.00000000000000
0.00000000000000 9.24299295861179 0.00000000000000
0.00000000000000 0.00000000000000 13.52805449097342
PRIMCOORD
 96 1
Ni 4.230453091975391 1.0040663051025178 6.002343125555684 0.4933422461462729 0.09536812978936479 1.2273495183809187
Ni 4.328983394952403 5.686187482000486 6.322579550420858 0.13622630145630735 1.5419620424910347 -1.6409474573180125
Ni 7.0310891456656055 6.099524875886885 0.7804727640897868 0.07184690673897304 1.8392275906822713 -1.3883144602344863
Ni 0.3278905471818031 8.84943538523021 1.442429101926089 0.0012901795663332618 0.2603208526460872 -0.1619159929129276
Ni 3.738688904396689 7.944601850555573 2.2568310438928005 0.6908171100004168 0.47229005346166403 0.08078611821013183
Ni 8.344536904918833 8.384577549618308 3.629414546618506 0.7742357807373892 -0.5258042233297203 -0.923117566174178
Ni 6.127780704798774 2.312495119279148 7.4558379384314994 -0.9495683041665388 -0.9590263642556449 0.04284537730030041
Ni 8.470805429212355 2.4238177242561774 6.94887457353428 0.09897075953895859 0.07850195016164545 -1.0372066694118138
Ni 0.7273653005048882 3.304120356107082 8.70860360152106 0.5666032596239532 -2.0530834669975997 1.006743210715634
Ni 2.2537189282256 6.837023269370544 1.0119616695305633 0.1989193096101542 0.7413603701656071 1.3661746909126535
Ni 2.241536663748705 7.047033308201754 7.561573154276296 0.49953911898560416 2.3388644115880046 -2.433251408411022
Ni 6.8406742515165035 4.852155271979123 6.5381492494059765 0.43491007015130906 -0.1508309387433596 -0.3151411429200766
Ni 5.528548240230042 8.844666000958528 12.119283648428432 0.9721701007264547 0.4476486007639 -2.2509463103187812
Ni 5.023270797214905 0.8405013806642903 2.0994995937817493 -1.652961193949437 -0.303452907948871 0.6674915479005988
Ni 2.387049098998902 6.175696379342191 9.47759287138771 0.5621603933612512 -0.08741596482182365 4.319215483917884
Ni 4.905034433642491 5.910034281015241 1.8708621516119304 -0.06702557409092973 -2.215741223172558 -1.9993196430125824
Ni 4.020378352194759 6.78596497728377 12.90316615255276 0.0015120657691522345 0.31465109065753555 0.09981022472111842
Ni 4.334658592515995 -0.13451974394339053 9.18241050273731 -1.683418996218662 1.104567258244659 1.4784239127280732
Ni 2.4277459961853736 0.8421946969405931 1.6806311930190425 -0.575378177603106 -0.31913997966682456 0.45275661141442664
Ni 5.024010236636872 4.3152760366677025 8.076180474198091 0.8082831001300854 0.5563640983944483 1.81540014924537
Ni 1.6345400852493266 2.2124489654871047 13.159036224334322 -0.9417318388412556 0.5926806734372954 1.1710590713193059
Ni 4.145352857499842 2.282612523638934 9.836072178857703 0.3063507983219563 0.3993218886340542 0.27337562894751627
Ni 4.498296536597142 6.958004801797009 8.297945751240011 0.6133878240776598 -0.6985077937764551 0.4877434119022568
Ni 7.406345409320739 8.512343438741313 5.945417381655607 0.25114767078725136 0.1039692411948145 0.7218996903378341
P 5.376066588427811 4.071131625519972 0.2442109606957069 -1.449913463993206 0.14500584742115027 1.538625007698002
Ni 6.135507846758321 8.981027873361892 7.943943749470023 0.6306448113858946 0.29842383016539575 -0.7567707911834064
P 4.815395889714624 7.903461289715921 6.38989534249884 -0.13129209737948355 0.11381579497159108 0.7943518347609738
Ni 8.586999091381587 1.832922439170116 1.8306163124728585 0.09048689043766352 0.7115332595018455 -0.5206543036976646
P 8.429794270271548 6.69680706898018 6.908344050217751 -0.8965536996427205 -0.9503249798269053 -1.1283319647644245
P 7.107852200658484 7.9256906873387845 10.569549870484423 -0.0824352237777806 -0.525395932147708 -0.12137046739039743
P 9.16669186922486 0.37250554900541855 7.1717758143881944 0.4614523394162117 0.1340128387447563 0.4041074829481557
Ni 8.214728314392644 7.989661440331646 8.686485119811493 0.07169624009372168 1.3284481228961573 -0.6297716647523218
Ni 5.593110544760475 8.651080760287746 4.610645113772149 -0.7949940963306631 1.516951122268994 1.466304760867036
Ni 6.894791974211664 0.730457081587985 3.1032682745169256 1.3892678252866912 0.4103727471315771 -0.7180522915672859
Ni 7.538095028329588 4.532319993000367 1.9914915260136836 2.303658810221149 -2.2659893206948327 0.722913219204013
Ni 3.5443087663472923 0.14649126818502525 3.987597154020437 -1.1708019610031772 1.6954751560522476 -1.7889380983990995
Ni 1.6200285865932378 1.5716415194183164 5.977898182564755 -0.36825473491560445 0.9113537407700305 0.37933824642327574
Ni 8.776277097419417 0.7208369747082031 12.79169473539206 -0.3686360295144232 1.0880168100851455 1.3225726379519869
Ni 6.949482762458848 4.486631879715622 12.508783363949192 1.091810987020255 0.5771990328619284 -0.15129450864333943
Ni 1.2718912637387192 3.3634233977487815 1.9670604475119162 0.1730848650455535 0.24352100747992897 -0.46621145136775194
Ni 7.892915034960127 6.281547132596669 4.623808059782427 0.6861700981467086 0.7564218924844198 1.1582701470847536
Ni 5.843845209756481 4.741729237301229 10.378791137004105 -0.8347132692971561 -0.2563731808522488 0.015317347083360716
Ni 3.194748022605489 8.165269060055872 11.16923524169911 -1.567401565610062 -1.1008905807240204 -0.07916992276294753
Ni 7.336218823140008 3.6356018059818096 8.805032047941133 1.221881810398128 0.14846346695244755 1.1203962548571156
Ni 1.9745066024911173 5.715940675741856 12.181187668236896 -0.5202177303808784 0.5977267205016351 -1.5706552966606693
Ni 6.1913077941384556 7.411244195491265 3.127537600645138 1.8077750285999448 -1.596181980176864 -2.749244100698117
Ni 7.652477063915003 7.71972907934284 12.655954916402424 -0.28560816645796616 -0.17166535899020757 -0.5429701935860455
Ni 3.663783690951501 4.130758171908782 3.188630085687995 0.37827715214861307 -1.114081111272365 -0.8663722909633337
Ni 0.3226654833663336 4.828511696461751 -0.044860865431419227 -0.8655935038157803 -1.0331556392708918 1.2130881233658979
Ni 1.2421750419684479 5.933289650836082 5.8076884706208824 -1.8851876023521532 1.4991927698443084 -0.24811479749819848
Ni 4.649585842331451 3.475513171126101 5.988747607483556 0.531392258940459 -0.7866452101453355 -2.6636669888572446
Ni 0.764803118439043 8.916557998759203 11.313768844014477 0.2859542369434753 -0.41269368195526984 0.14150760445990468
Ni -0.0014252694858400835 2.4280510149469348 11.019560686802517 -0.19055705368838796 1.073259706380629 0.8494480044041693
Ni 4.665816537643611 2.380791592890512 12.328534837552848 0.6865886737413659 0.05500798080476333 0.02821425765068689
Ni 3.735176567142349 2.65066849592267 0.9760960846673643 0.5249346762405733 0.46213933818090736 0.4309855382859223
Ni 7.204044026463528 6.028871439118003 8.91129411437408 -0.5847583332664252 -0.6783045793557028 0.09761578817296092
P 7.916697255369119 3.2448080714726086 4.543735089076971 0.17061840578293197 1.7488633418654012 -0.4917031678809532
Ni 9.05692208703396 1.3648665280582095 4.477935147814021 -0.410490503656364 -0.205533215382246 -0.5285900136049736
P 2.211783470007335 6.261609997181903 3.4636008020382234 -1.5948925719414793 -1.466246653935591 -0.17604343345324522
Ni 2.04217455259381 2.0451692822527736 3.725788459381209 0.4212423428562294 0.35391826368827434 -0.3166709493010418
P 7.472617667514471 8.761026159341363 1.0927019843143433 0.38695771064174644 -0.5197297350008662 1.0439519585554473
P 9.295492973538618 4.672018585795353 10.26792883306725 0.0969652990731556 -2.3824759776303677 -0.5241564033136521
P 1.9250935631182178 9.075140025792656 13.254570873353092 -0.3659222301276859 -0.15878438926248137 0.3334368559054709
Ni 8.493395303553427 1.0726585544826688 9.285724054475168 -0.37019334669921405 0.007415575737780777 -0.7012473041948052
Ni 0.5076501192603705 7.143215891014023 13.371344995468569 -1.5645111314361444 1.1154178278059177 -2.0338043070530136
Ni 0.39650405544533546 8.174465837866578 5.575803965089354 1.1382371396932782 0.461944705671598 0.39141086131709363
Ni 2.8059230455572735 7.873310647285244 5.356501021322583 0.2110567163036365 -0.9894841665248701 1.1581678171789345
Ni 1.774802500603563 1.287419491600012 9.800358179076008 -0.17643629801628968 -0.5361166609993219 -2.4420034435720397
Ni 9.11982065286497 6.563023991560924 10.862594334906063 -0.3970264077316582 1.7370563219281439 0.8030110530978687
Ni 2.888185681251027 1.0180417101776813 11.635222571028065 1.2003205392875844 0.9244206012563175 0.7775509611535512
Ni 5.9581810303780225 2.995238023566201 2.6100760445545514 -0.45173151258402205 -0.42015476621900544 -0.33269637819502057
Ni 2.7886571350543603 4.780291003156772 0.6780317508698502 0.7967463031350794 -1.3679454096598314 -0.009578130606738343
Ni 6.267303680731043 4.994728435527005 3.8053872645573286 -0.9968244089400252 -0.5468597584484388 1.0588401885211893
Ni 2.7378021888086264 4.8281512197435426 7.716415466433153 -0.268128521615964 -1.3580662028729062 -0.6873191241494873
Ni 2.4996195080005 0.21778801725101793 7.529890947942872 -0.10108034968279365 -0.9941550896379783 1.2077744244624684
Ni 0.5424906562248687 5.473432274315227 8.164032347622634 -2.113296903262702 1.983890710052022 0.5037811820914098
Ni 6.63206914758703 1.1922351520073973 0.20223945480562108 -0.8223809729840481 1.548882937980584 -0.17194663767605226
Ni 1.5170154321205545 8.22481241950971 3.312019417732238 -0.38663709407753416 0.6764888663032027 0.45510120038720336
Ni 6.812594039467332 2.6085943928127864 11.107370966759573 0.3007295954804369 -0.8424409769587169 0.36461919504554624
Ni 2.374755918608712 4.272166718367066 5.074860561386218 0.9632303750346637 -2.0517927732106345 0.11005015728157176
Ni 3.9865305126542507 4.677767727301142 12.012953183848952 1.242398699404557 -0.3947478961101266 0.4158941911704386
Ni 1.1121538626084448 8.035506684493557 9.294314491959861 0.8779808217365395 1.309920496405615 -0.5215390202954631
Ni 3.298694719348404 2.630056622035359 7.598586718842098 -1.019545761796941 -1.663929520035483 0.6370453155955997
Ni 2.1322382741893082 3.3895718243080655 11.081154142053757 0.4290458980610482 0.5616304889997102 -0.4293603439776734
Ni 5.52416706165489 7.853234866978859 0.6687351487371787 1.4282843157592044 0.26680054683315985 1.1791526469607174
Ni 9.14636652811356 6.388063381330918 2.1109719964135567 0.4106396276397186 0.682759786913579 0.12969544231632502
Ni 4.211643601679123 0.32268581795043766 13.653865388317074 -2.8907375640906343 0.6961626905830463 -0.7561084750090591
Ni 6.6655565104093295 1.6898871259835058 5.183584961094313 -1.0860602005794069 -0.18257943479955008 0.6579337290088346
P 4.6272362858025184 2.020157743804763 4.036352092307786 -0.5174321972159411 0.9757891855362807 0.12820163137961793
Ni 5.082352007030014 7.137845712211993 10.613935646087228 0.931399346566996 -1.5748806475959265 -0.7640896934423227
P 6.195975505489617 1.4408716576435727 9.485939293863154 -0.4840729050292051 -0.3846758565861053 -0.9697938871847944
Ni 0.24028453736506578 4.785254490276722 3.776112857841682 0.32327225666764325 -1.1673903642184669 -0.10931456466712787
P 0.8136791399317393 3.9186684597032913 6.637607548857557 0.8948508580190009 -0.8126442053122587 -0.753157105690219
P 8.467718269625646 2.9692559708768593 13.181640887463832 0.2046677820581572 -1.306001620967183 0.17001316809876527
P 3.629399757830067 4.5195092050148 9.88025460861947 1.030733402982644 -0.6644350204624621 -0.5674015871555325
Ni 4.205081076809171 6.2919454994680715 3.943143904570377 0.6082355904527589 0.4909740030244126 2.0185103570084206
