# total energy = -340856.02261602745 ev
CRYSTAL
PRIMVEC
9.40151544442429 0.00000000000000 0.00000000000000
0.00000000000000 9.40151544442429 0.00000000000000
0.00000000000000 0.00000000000000 13.76006817265505
PRIMCOORD
 96 1
Ni 8.883952401676 8.556234384282869 7.6203802953057975 -1.053394849135902 -1.6714492254512954 -1.3730297661612743
Ni 8.869069803089353 6.243602663918837 6.089215681802212 -0.016306450469507402 -1.6465082392352417 2.659901865387858
Ni 2.052106332218381 3.458695228203193 12.717962698355468 0.7813664782448995 0.6904278449817981 1.0392532675281971
Ni 6.7396830157969125 3.8893222311487134 12.646217855440483 1.3871950019180628 0.8505412374683481 0.6214875703666587
Ni 9.436864913033721 2.8738833757181865 13.591163209631254 -0.41902296660740734 -1.6245034528293765 -0.43166508085145017
Ni 6.355226854076295 2.50922680504209 10.626281627987604 -0.30570236610467993 -0.7486967559260203 1.9971378048699155
Ni 0.21193741735875896 2.7024655487880995 7.04500380349139 -0.8834878675976977 -3.6087060376948625 0.7967920687713502
Ni 3.0768150816517092 0.7350537065429747 2.1230266622489364 0.5715343783769834 -1.018246583369543 -1.1658345896955729
Ni 0.3926561632918586 3.93701611783858 5.229926592591276 -1.1827131106184663 0.5004338628857317 -1.9098159424237946
Ni 2.585473093442408 5.0709422695341155 8.93280173458589 2.6405985370735556 0.8012804435600072 -0.7408178673985758
Ni 1.5875868669198205 5.907263457072797 3.978792690851608 0.16937527740445021 -0.8978258814869247 -0.23739278309500406
Ni 3.2469166964515805 7.14916601102205 9.843525573391068 0.048247779262794326 -0.5428159273963684 -1.4548584667033073
Ni 4.745424206701486 3.0614812103347036 0.7063866063468895 -1.5361541775600058 -1.571148948467636 -0.13256016545862978
Ni 2.7797930114382376 5.08963248178317 1.616409092116967 0.07311934569349343 -0.8430392726643481 -0.29131987213076277
Ni 6.222853519837518 3.838159185344209 3.13601548281422 0.30034778666098594 -0.09395787970539948 -2.4817645255200613
Ni 5.579865091197004 5.882283631144357 8.417515027273412 -1.1464006493406773 -0.6326623560365555 -1.8135744088905412
Ni 6.494933370183412 1.6556350340519421 13.034706327037169 -1.411569316997369 -1.1493283645104335 -0.28150905668792814
Ni 5.326625877343616 6.563385802469814 10.45260179649659 0.24486260910948796 5.612224806390457 2.2548980958776776
Ni 2.544651714375308 9.040976508810664 10.831897466515242 -2.0253212092826667 1.9279951844359828 0.20563605950869746
Ni 4.769463881108344 2.141007060099196 7.53392584168414 -1.3540074594225004 -0.31436004177967797 -0.48126268927391963
Ni 6.905732577538766 3.3395968334491566 6.698869157941986 1.585043447061541 -0.4787419797345949 1.0755994102573991
Ni 6.466804036657673 1.3016491831458035 8.799246629884484 0.28597403443781716 -1.578947104355816 -0.4973451966580789
Ni 5.5379437348496525 4.193921922626138 5.192182329454314 -3.1371276655882423 -1.1748506771512541 -0.27031113108957966
Ni 1.6820156857475392 5.247305293467725 6.757280771977889 -0.8516419267316946 2.6640701378329346 -0.8125588446873038
P 8.827289469470239 3.6027922519161 11.605626186201548 -0.2506365354787877 -0.699871249782885 -1.541934274576893
P 2.7726572613894285 3.8981690569668026 10.700846925467333 -0.43786118235983307 -0.369603278523699 0.4934422620592469
P 1.4281653734051232 6.708968265586822 -0.07668627931241877 1.8277514717218715 -0.8421296163658851 2.6768235808438607
P 6.961652790042476 7.570400900266965 3.8139333609360784 -0.3431317145957316 4.936518069668917e-05 0.7536623274614117
P 0.6231531118381721 9.49346203463297 12.490440389223439 1.140741908393003 -0.1866348358158463 -0.213761002608677
P 8.228948836589666 1.113712893981517 7.82185570653239 1.559544017238856 0.5089971790747105 -0.8484409032958937
P 8.916340621594507 4.471764901799332 7.597703840605235 0.9139356425645937 3.350832103927371 -2.0479078363339314
P 2.5966044874579413 1.5496517530239782 8.836248173319396 -0.46679740577820894 -0.5550662055186311 -0.209910004293703
Ni 7.295444186265028 5.272397937578754 4.6726301546884175 1.8746352807576039 1.6428690998207578 -0.6075136246850699
Ni 8.89218812900506 7.745767363587698 4.600885311773435 0.080636480006145 1.823922842004401 -1.7280880569912627
Ni 7.041340033011785 0.14186228354610636 6.032716335961208 0.44010678386090013 -0.22716313494719587 0.41074658553122806
Ni 7.960347546873624 8.9732009856198 12.54931925856557 0.34448951417520673 0.6398997543252593 0.2986297755286147
Ni 3.64584179008935 8.717733612660263 7.71243523154152 -0.4280205421203274 -1.3332447729538524 0.3117886815080759
Ni 7.808851530685864 6.30010577036593 8.584107996594739 0.5099196908889799 1.255535493896831 -0.9977330367972237
Ni 4.218751324311125 7.336904868366804 0.5376858173141755 0.916149619496777 0.2257927369622305 -0.29505054281778864
Ni 6.106726003891682 1.644907905190689 2.375111370033821 1.0515107447393115 -1.240124815768716 -1.5759468840769115
Ni 2.393653978493987 3.2823134012391515 7.151960141344192 1.1421598717864525 -4.157140339719273 1.1159747287506523
Ni 4.018367429001089 2.64501288930421 3.146969188192175 -1.223143707829687 2.8887012503868963 -1.8572358543342338
Ni 4.290381468740474 4.4586685911036925 7.008057728996253 0.734149968460097 0.6782025065601998 0.4519791098184539
Ni 7.954828857441937 5.799042615423468 10.962274859073702 -0.8342928939302857 1.0853973701844275 1.9903408365527397
Ni 4.569587667619962 6.380122066367792 5.1820691195366555 -1.858318031654819 0.7230844546745547 -0.3283905517308151
Ni 5.727215039174586 6.268996156516773 2.6108073564944845 -0.5217758188966175 -0.7374957450038783 -0.7098908388024161
Ni 1.1091813636474908 3.425178826458786 9.20621471978939 -0.42016067975627636 -1.9015382757960348 0.9586949490581556
Ni 0.3517370084665139 2.4105014937607403 2.075197393739962 0.5664214826304503 0.09718744238629069 0.08501301180728585
Ni 1.4733208509867173 7.496862248248803 5.722426847475168 1.108751985749968 0.45222927815604697 0.9279178157762986
Ni 2.7498209809301963 3.576524418403092 4.914766179071919 0.9098247057200137 1.0056232381785777 0.10661593478904219
Ni 3.08957293779958 7.301329534790133 2.514872414929191 -0.8575490362447489 -0.8127884441996066 -0.13390742351514356
Ni 9.114148501735407 0.9615399686982186 5.48370357311501 -0.1308686366888198 0.8144748307630941 -0.09225915184673787
Ni 7.588508218572639 6.664414484979041 0.4957823238457342 0.15443871069927598 -1.5899365134877843 0.11143418211329194
Ni 5.047231648159811 1.328011031810969 4.4045290255818585 1.6236637305369006 1.147317761838308 -0.865321223991
Ni 0.3510676205831474 7.225167860026758 12.086775051613852 -1.2226636828694748 1.1125348498311678 -2.3920659353116482
Ni 5.070857655897172 5.715933220915598 12.743391916711223 0.8794000706815693 -0.214260825063231 0.9882744624874851
P 6.125218784321204 3.5580222364583545 8.723634943761235 -1.7014010346183794 0.4913236730543474 -0.1831859580352974
P 7.579398150328507 2.8763371711895163 4.696861620005678 0.15001409926901907 -0.5320178083395999 -0.8216536078997204
P 5.967922033245282 4.625366857395436 0.8666984233525253 1.6643025871041854 2.35830297992859 0.7690611785149851
P 6.757357864402659 7.212795466002735 12.421694629662305 -0.31904896261491505 -0.5687457598882527 -1.564844346405847
P 9.13894029735953 7.5915073019264865 9.717910048289426 -0.12061790549508905 1.6444557275815872 0.13769028759634352
P 3.913935397983736 5.105314209163161 3.594969251105014 -0.6372615453714637 -0.7621384832532229 -0.6152554734140179
P 0.25680332827170577 4.315944188612295 3.0769438824101663 0.09136903593230071 0.9953205707009891 -0.5146003841941009
P 4.857114207465454 1.2144313264886208 11.715376654376492 -1.2833843977882995 0.5410223258310553 -1.0668843989819046
Ni 1.5246625255803226 7.630504787041717 8.358030700351383 0.5194911366274989 -0.763906373786923 -0.9016015464792732
Ni 2.622392843694942 8.803296802639462 13.420317934977813 -1.0695593747109065 0.0022517721486541866 -0.015587827135927991
Ni 4.453178106217652 0.3951569663392673 9.549638908502072 -0.5473534102554058 0.7357936747111069 0.5728273861567942
Ni 0.6732143000593824 0.22257805228002653 9.346595324537482 0.44546264885617476 0.8555942265112233 -0.3143839530390779
Ni 1.3030594104281767 1.6659672992741306 11.338791441194557 -0.5159890370115113 1.1014153428792386 -0.8312659341785038
Ni 4.8137168132292185 9.398685359742267 5.9035094320471195 0.07824766805899427 -3.777327467652424 2.257982905450589
Ni 0.23095104173123782 9.140369327672335 0.9073900615096472 -0.06000569112967085 0.4117508584260264 -0.5299516698391905
Ni 8.14205063144982 4.3785018708583765 1.2468186062556068 -0.04462638046012314 -0.198495077588542 1.153098373075827
Ni 9.087335380339882 0.45219125839605284 3.256388723031522 -1.7420164941468965 -0.015895588184333915 -0.15927521285597085
Ni 6.3100431719490535 7.107009616794303 6.246548158635955 1.8178856346713854 1.1109646771305708 0.7591272072307248
Ni 0.07662798991808066 5.014467367632671 13.080347862955422 0.2561978316166491 2.146997637949257 0.03538095060245519
Ni 6.109132791786932 8.97164973560919 11.031116514090039 0.4489683480165881 -0.39937099670443477 0.08731672023979802
Ni 5.221911800869788 8.655551991022815 2.862452073367268 0.9315407572408666 -0.4122254840695997 1.053012783206135
Ni 0.36056785170873573 6.814735311764823 1.9124844297482053 0.5926806734372954 -0.30836345787661085 -0.06671781304252382
Ni 4.31811593862715 3.3013702725816234 12.104786474464326 0.42932177743025424 -0.28658698543146777 -0.4521457173033052
Ni 3.3042753407833123 8.785668961609794 4.101628187903933 -1.0270289575478635 0.8569599965104984 2.363535431972123
Ni 5.767556940965679 4.644583554496577 10.652865352411863 0.4944056544137808 -2.636110419395215 -0.906987750491851
Ni 0.68339144028051 5.8128252367298625 9.843251049146765 0.33292546348669116 -1.2865396555878295 0.8533375692665626
Ni 8.284248549089131 1.2333753796485025 10.483864655043762 0.32092586792265376 0.32022704208341624 0.5826842243462158
Ni 1.7865417319170507 1.577630662306265 4.03197518212447 -0.22626761971612 -0.4386955053356703 0.5154048823732672
Ni 1.4814813661940511 0.23117103718728807 6.7954095570871775 1.0764900403924684 0.8322768919415214 0.49208471959008804
Ni 2.8776815878653785 5.814122645829646 11.829282592276826 -1.0962692799019247 0.019468136026940665 0.5837674301080656
Ni 8.156557169427833 4.13934612679829 9.389140941495164 -1.0312422242982628 -1.9079657765889335 2.6335166905261094
Ni 7.103249010707974 8.746097984066397 1.0932185309625462 -0.42181081376518964 1.7221637210870275 0.9735237865408719
P 4.9988138447983275 9.505025898348432 0.979091657454637 -0.4025167414222681 0.38627945362779925 -1.0754004068727159
P 3.2243718629640394 1.3124703271592149 5.95245372026069 -1.341765923050986 1.5595869546616496 -0.629825915029025
P 1.3825586230931695 8.835920060438363 2.809351375276783 0.9359980216812718 -1.2883707952592973 0.24138827740764235
P 2.5726494266880264 2.618312586091275 1.2934943088475992 -0.9744349855012314 1.4775394532405908 -0.5917113675454906
P 8.020752282135282 1.4954332147743314 0.584051269904046 1.1913527885713353 -1.415968474506329 2.8694634852032066
P 3.5200871225625114 6.446101900152432 7.347820967683895 -0.07620544081798489 1.0927424976955888 0.03901829024472635
P 6.060874814184116 8.224530124438228 8.835367251343673 -0.36442122010212724 -0.5364298213643665 -0.605690455433402
P 3.8623680870249517 7.847726796103289 11.810046151993733 1.6778214475262265 -1.1641219778798404 1.3626805617164661
