# total energy = -340895.0528470524 ev
CRYSTAL
PRIMVEC
9.07922699464691 0.00000000000000 0.00000000000000

0.00000000000000 9.07922699464691 0.00000000000000

0.00000000000000 0.00000000000000 13.28836644900122

PRIMCOORD
 96 1
Ni 6.533284435931733 1.9554384540399579 11.669391186392158 -0.09220850111446055 0.05617191920587746 -1.2338991465739781
Ni 4.507182360358204 0.41585218959958475 5.836702556261734 -0.09627135832992452 -0.8977639179007377 0.39015719141565064
Ni 2.7784703558796426 1.753362105013528 4.630689805149111 0.4175281272294357 -0.06443184522182452 0.7408736603371757
Ni 3.425710270036813 4.640365537060756 5.007574861604673 -0.20201414648539404 -0.18933475124551263 -0.15453486995750804
Ni 5.252514239959124 4.529299356639301 2.650656633857157 -0.7861782978112459 0.10588008506428216 0.25186243746608883
Ni 7.384670762806668 6.175699091707177 2.4755428644103556 0.5884666353559478 -0.22380655977013714 0.8909070428799043
Ni 5.142501249836769 4.5066739236620865 11.66625522148432 -0.9071430451227926 -0.3292058485432589 -0.35043801844915773
Ni 5.431365927045058 7.8238783552114635 12.476021465168705 1.3024203313738278 0.6239391172309449 0.03523594038415867
Ni 1.905584420140325 6.66843780483174 0.2974690603674009 0.07582543177074683 -0.5575576044819172 0.865495030564703
Ni 2.9160115614060564 1.8172526234166815 0.504638855581719 -0.9056528337305112 -1.5127710227493756 0.13552079074885048
Ni 0.37560670133389507 9.045188695418512 4.914157789997186 0.8942926715226855 0.7141866379642926 -0.31304337985078345
Ni 8.588939394467074 2.4090729376970788 1.182286915857383 0.3747138602773869 0.12183095196658374 2.1239158164291294
Ni 6.839417802354574 0.7590560387053976 4.6716716187015 0.12582027563163495 0.016147042073507673 0.20216815556475504
Ni 0.7515738479684304 7.50787586934792 2.62653857600777 0.9366261421835742 -0.6631399558001224 0.05755800092012668
Ni 7.740249597926904 3.7657817859254754 3.8043267350271877 0.5166876057404327 -0.2212082029153416 -0.2183563352888433
Ni 7.791665258821754 3.851280863913609 12.673592701898468 -0.15453589839877258 0.004242834436753984 -0.3873804000014619
Ni 7.763029377758297 8.900847149081532 6.746343925516966 0.2957696803720003 -0.2313486337834532 -0.17798564478128057
Ni 6.810455069129327 0.5776821424376534 0.40170766229813915 -0.10590939564032081 -0.1473203544869398 0.08668679996528296
Ni 1.6947012211990082 6.590029602909097 9.351474592850188 0.5072537140210426 -0.3235962156659653 0.14119058744011814
Ni 0.09707236828350095 4.990070112495496 1.1582042669921897 -0.019516215656056712 -0.028348983456338274 0.7438376280615061
Ni 6.248977530535066 1.8822144905723674 6.902269657221374 0.759221309606428 0.5217300532603466 0.3626307038606077
Ni 3.4391475255770527 4.422327907466934 0.49507570608135776 0.28908378371139243 0.2751928846619132 0.16512678654074142
Ni 6.127624586243955 5.6894701841382584 4.8718867262510726 -0.4293444031380735 -0.4341317972243878 -0.24552749638699653
Ni 5.362890399150134 2.5724173055514394 9.503853070676508 0.10967323355812726 0.20733195915388164 -0.7534121591238186
P 0.11224284820389731 5.700265384704032 12.379667263718469 0.6556901843902966 -0.5088028036757173 -0.21692114550421354
P 3.9762836573447045 6.284322960141926 12.532310854964907 -0.77807238087466 -1.2206677354853688 0.5388697982644268
P 2.416290922936599 8.575729119594744 1.539922195828879 0.31860827553307064 -0.5428583505985296 -0.5415512017513319
P 6.160564020770975 7.692365756224725 5.845950656595036 0.5414013064370289 0.5056295481540583 0.0385511208003207
P 4.749143752349684 1.0967342704316227 12.660171788966318 0.33349496283691593 -0.3382682158558432 0.2245858611383229
P 3.894416270043122 6.058713255466644 8.355339062358707 -0.4467973085071983 -0.49002809417137544 -0.8284516046581604
P 4.8729117709473515 1.1737805883468084 3.7429738604912615 -1.1159212498048974 -0.615369887504695 0.7580391163728687
P 0.18440726591368625 5.471414396091003 3.6091070180169664 0.3237085728741135 0.9985344496525965 0.2729899634733234
Ni 1.471606462324163 1.0548881144958355 2.6587898051496888 -0.16032936515209809 0.6631628386182579 -0.3508169990551313
Ni 1.60913858862386 6.548038179345848 5.019135440982637 0.7470036844943135 -0.231802176381104 -1.123576195246994
Ni 6.021960545718745 5.599776503407158 9.043317466792267 -0.3277634596697775 -0.7919517099599135 2.5579339708937883
Ni 8.581122180264273 2.122051343512214 10.162197787030477 0.19451295301234242 0.594225649326912 -0.003790834500999923
Ni 2.172568160962143 5.309595338324994 7.202693097962284 -0.038549321028107805 0.030657062764224623 0.036515578427530664
Ni 0.6975833183768156 8.911851171861782 9.07200691529335 -0.6619652187657309 0.8422627995096397 -0.18237940297360203
Ni 1.5728216817583471 1.1486492887958732 11.720006967413296 -0.5779971032831916 0.16412097098404638 -1.250168316047647
Ni 4.184779019659613 6.890252392739575 1.4853333451966548 -0.8715625769150216 0.49034305430863295 0.45998603928333043
Ni 5.409938951994406 7.586229595910265 8.104135925492626 0.03558252509030001 2.235171306872712 -0.41858690751125327
Ni 5.2197836276465805 3.0991395642754047 4.754750174847047 0.1399644283425009 -0.42472130254376533 -0.11717828368592077
Ni 0.5982711048623842 7.467427914326455 6.976060164436066 -0.014432116264929984 -0.34847061031014176 0.9094043303531434
Ni 5.11510014360674 4.560531896543642 7.0676568510869195 0.3267090502633341 0.4310924961774318 -0.37663961654519007
Ni 8.228848183668797 7.123924450739001 9.388190985691223 -0.6959626587570982 0.3061849621680533 0.5971171119420942
Ni 4.890389282376379 0.3709027539721395 10.353962858275118 -1.0047102394460052 -0.35266382245588296 0.5274139910190013
Ni 8.170505072789352 7.142391597880115 4.7837056446909205 -0.5689154526968976 -0.43647895730032577 -0.22152342016291524
Ni 7.258996106598561 6.272964847519738 7.190215516685965 0.8394695530352188 -0.2874457338873372 -0.9481724522602768
Ni 2.170988375513493 5.563713814889704 2.4540686773807776 0.7052160590345662 -0.9978176260912299 1.0971380556601236
Ni 2.448213484071385 5.179253959584669 11.433283171864728 -0.7129684492864753 0.0710678624811034 0.043991060868969395
Ni 1.2249783478004652 3.355836541227566 3.7622290845113566 -0.7217569941123828 0.48108065517010057 0.3627366333108527
Ni 3.762676690388474 2.6103775524526167 2.4348270722007577 0.04950453448803087 0.780403600110998 1.1711184638023315
Ni 1.1162364494184032 3.2581985371196347 8.357079550120236 -0.8527644703719119 0.3975550265416185 -0.5312799017323109
Ni 3.8022167227383012 2.699426608086854 6.890655510405783 -0.7070317720870662 -0.6318550296439117 0.4354600291175081
Ni 4.0767271425079965 6.931045358376263 5.958396879477382 -0.4701452392045194 -0.17600820933993558 0.06062506988122463
Ni 1.0439385670758834 7.5552058782204 11.658654092877368 -0.4020009781281141 0.3622625218879116 -1.295029952447028
P 0.05136027761187992 5.490871178944202 8.345957497392673 0.4314411377661021 -0.20811434584586094 -1.6834074262544365
P 8.613253563613535 1.452022570296935 7.977577860525016 0.473959727854603 0.821466688699895 -0.09725634795101315
P 1.8412853365349346 3.078302738961317 10.417759860643093 -0.8589469450335401 0.8906465901296661 1.0476036963754214
P 4.138066398203848 6.166728815711395 3.6715493997588573 -0.33274960003045917 0.46651715553362877 0.01920305529101209
P 6.852255828931533 3.884637942869583 10.410863280029332 0.6640562969668048 0.04379257170491813 -0.0420511635337792
P 6.2738273740577934 7.7984474411788876 10.419101770351775 1.5100148001604767 -1.12866235152065 -0.7676822958895875
P 2.3099913365412434 8.447684785213662 5.871544088785836 0.3632814500707292 0.6633047635127609 -0.19849199226474848
P 7.118004794919924 4.081166884372306 1.7234342499883304 -0.33357903791029003 -0.4920404966157139 -1.8125927617035622
Ni 5.498016530369991 3.008283742524608 0.30893158409682836 -0.22982371249849454 -0.004130991449238047 1.0334032365053234
Ni 1.6228391417388748 1.220584002069738 6.949377225039302 -0.010722014403194436 -0.19552571054757292 0.0620448330468867
Ni 7.063484038488072 0.3032261980282563 8.968106060596462 -0.9776005277134066 0.3226413079518637 0.9297242728574182
Ni 2.8738748702153454 1.5983433880580864 9.260994651085449 0.020538229162667853 -0.9238138209102541 -0.2722847098761827
Ni 6.363439341748446 1.9969577578139555 2.5024918251499093 1.1720610302212588 0.644102222442381 -0.3407549868334389
Ni 4.0612652194100045 6.9585826530070385 10.331491772152082 0.21502752802592642 0.45523386931032567 0.4946203415277481
Ni 8.130156989261767 7.366966270709731 -0.0824566291154753 -0.8112406400965126 -0.15878490348311364 0.9788462271950495
Ni 7.45039528500653 3.87012933857681 8.181128675970186 0.9827923563269914 -0.6612987888263256 -0.159741353859112
Ni 3.14577955191744 8.526610503059137 12.589358360191927 0.12749483512058044 0.47095179426621475 0.09349173870225834
Ni 9.138332482301836 4.7031665482579434 10.421680270739225 0.04667580678998413 -0.7248037513585066 -0.06574670737850613
Ni 8.731210877112721 2.3624692669619094 5.893018275815413 -0.20038663818430005 -0.04790016611538847 -0.17703870748697895
Ni 3.5009225841552905 2.7659228645576084 11.807072212010004 0.7807944077915133 0.2495535868272541 -1.4599518220658148
Ni 1.2144010486758845 3.4267816187893456 12.779820562402765 -0.47437161858104115 0.212129380542525 -0.6243106416377505
Ni 3.0051150924005925 8.305268034940553 8.063579927673237 0.23216855858158725 0.13556089995816653 -0.2891334060024053
Ni 5.787770971796485 7.827255827549957 3.594224349583479 -0.30035267175699243 0.05542012864151745 -0.2631866042296564
Ni 3.3715980788071986 8.445287869360538 3.779250818759223 -0.7996102549464358 -0.519815352736137 -0.24432550565909536
Ni 3.558993318233245 4.132936635109094 9.440387460083679 0.04781660526264668 0.5510437146227994 -0.5456292284754474
Ni 7.050718645724844 5.839685990160736 11.486888742243568 0.5430486122324647 1.4503888609677278 -0.5982514826568536
Ni 0.41161673033639434 9.247555579699865 0.3735529802506503 1.4374006762381761 -1.094925878500153 1.1278624813271736
Ni 4.640828577623291 0.31607330383193144 1.7510877587210751 -0.4143679843338993 -0.5977074372279254 -0.9853315778090772
Ni 6.0016957116877885 5.6199777828511 0.5313326900505425 0.13141885276533496 -0.35222236404309015 -1.296243770249471
Ni 8.18898129915718 8.937745126456893 11.293769050372847 -0.7103492664960734 -0.06542403393176474 -0.3530420317309081
Ni -0.05464695768320883 4.856324023736528 5.947925807305382 -0.0062362107176989375 -0.1152036764580532 0.11416289389836468
Ni 8.087902268123742 8.822339075665008 2.4898680683234566 -1.6366629710100458 0.7916930569818882 -0.13553467470592143
P 8.62228739419633 1.558077017570949 3.5573754000323867 -0.44613576366379937 0.647823122937394 0.5595754062428944
P 1.742748488982082 3.4144157120016385 1.6510927873575723 0.7384521953798766 -0.15736385476587092 -0.41059437622408
P 4.633728622331083 0.9183183862280744 8.083698586154059 0.656824812215372 0.05221833387476813 0.017086266058325413
P 8.531903692234787 1.6102008581496763 12.530902666901197 -0.20588879894945186 0.81645817974171 -1.583573547384234
P 6.265401851664994 7.661714286830232 1.311068483447835 1.14357526407674 1.063846383486529 0.43059524482603906
P 1.9051304588045062 3.437713007755865 6.058219345533273 -0.9595781229940571 -1.0581704161476744 -0.1341151686505755
P 6.940760130962787 3.858389898432533 5.822988384306645 -0.06432334466841826 0.043726494353673075 1.851808512671075
P 2.4321886489169775 8.659112737757962 10.275282279550984 0.47825347013395053 -0.12384412574187058 0.7352447441861725
