# total energy = -340864.158637487 ev
CRYSTAL
PRIMVEC
9.33577495770579 0.00000000000000 0.00000000000000

0.00000000000000 9.33577495770579 0.00000000000000

0.00000000000000 0.00000000000000 13.66385032519850

PRIMCOORD
 96 1
Ni 4.7642980494718135 7.226758078662867 8.337722772526968 0.01665997715418421 -0.4267774137418456 -0.945561754110307
Ni 9.063441109466424 2.983816384180605 2.9359378620825853 0.29842177328286673 -0.2987074228440856 -0.9003879857871461
Ni 0.2746472976303456 5.254911697379612 7.081973278466054 -0.8121459255196014 0.4727934754606438 -0.20833957448278959
Ni 3.4177805493759563 1.3863812593546163 4.728211544778884 -0.8705202516934363 0.3085928002785976 -1.1113523994872927
Ni 3.205354324979282 5.573569705524627 5.4882771315283865 -3.3295744801001756 -0.3237877628514811 -0.25795595195833637
Ni 1.5583275633423965 3.116841842184834 6.335817996469609 0.48384690506132805 0.2866962573158224 -1.2817687165617475
Ni 8.733356112718896 7.274379866948331 13.171118627098963 0.41440218000594436 -0.08511482749247277 0.18311782380152333
Ni 5.976399061088137 9.286883548365518 11.305893331381636 -1.5430948705438974 0.8648347712728848 -1.3321533396618863
Ni 7.2527208689435705 6.139877817149057 3.963541553798371 0.31343187353845375 -0.14480427293330544 -0.10962643948059185
Ni 2.287890372427696 5.724930625632885 0.3767339972777762 -0.024727584653667093 2.8600041395625193 0.7952458073301529
Ni 0.27829011703614603 7.9376213304190575 1.688496274195997 0.44831734469615053 -0.0496189485787081 0.1369086722353126
Ni 3.058511919972018 9.117934028153396 8.854393502042992 -0.19864368735126436 -0.7927862900460669 -0.14400106030571974
Ni 7.609459503321953 0.8987233178124678 4.454292437598699 -0.6792864836529978 -0.1794725137394522 -0.23607817804863857
Ni 9.220618217400958 1.2528423337252752 12.22776563688919 -0.6342782943734238 0.3428836031406675 -1.0484153936434397
Ni 4.45193235367818 5.084347088092135 7.298860136158709 0.696806237704316 0.14737691875648812 0.6980498803034301
Ni 8.280673718644433 7.377036048870885 6.018393244202364 -1.9300497529721663 -1.6762602736866936 -0.17251330881279967
Ni 4.835539348512467 5.327095909695472 0.2397146947276702 -0.13240024284199778 1.2391678511720854 0.6243823754159504
Ni 1.158681707054586 9.139200923608069 3.9285893457681915 0.942128302948726 -1.7061735163063583 -1.2757435934135901
Ni 4.048113405964453 3.1205948237356584 8.32225526050357 -0.8362826706668048 -0.4889019509867321 1.3141828712263945
Ni 7.672410634160785 3.695874615137059 8.859517908941617 0.3344365008145789 -0.8322228987751344 -0.015219388052915724
Ni 8.678611128106867 4.003843160904726 11.173189957614978 -1.2849964794704258 -0.5702704240628953 -1.4024601556072493
Ni 5.640507212289335 3.105806956132409 13.53883986718976 -0.7322962030808098 0.07895163610455434 -0.6313829751034997
Ni 1.336602907043679 0.5596759770629722 10.405131080308719 -0.08982714536647757 -0.060275399851289733 -0.5406232906204237
Ni 6.458125051193981 2.115047834039719 6.617006871643891 -0.5713759984222483 -0.3988493198730099 -0.013691895664795775
P 1.8705345509609947 8.017208812311544 13.565360936815587 -2.819091717618874 -2.5393474661408524 0.6861865532069408
P 3.3742945094164014 4.353663986006588 1.644690017153872 0.3509396406759246 -1.318448331370968 1.0227598978588643
P 9.281590163939354 5.485897442480363 9.51508163105066 -0.6904512420205657 -0.8135494907353473 0.31383039452845307
P 6.666807629814834 7.8486980735245195 9.188870980928982 0.331599545586416 -0.0039669550675480066 1.2236988090022087
P 0.3625529550496603 1.5073729033812007 4.729687530806709 -0.6014447927831706 2.1820420311479 1.1462515253573227
P 7.890933119633799 4.763336464646603 2.276479254642689 -1.9108880924420506 -1.0191744945004513 0.6321301376821694
P 5.9092561672733845 2.1823120929294983 8.837218476771717 2.2601919972867655 1.242846328464937 -0.11008306740203623
P 7.582983245416137 5.138868014104114 5.967604761036204 -0.711362024031304 1.0260809918122973 1.0302839741500514
Ni 5.594444498429214 3.9614867497204194 4.971428088709824 -0.6235771059058357 -0.2033179528984821 0.21885615774339726
Ni 5.219930548446925 8.715226037664912 4.058218448826674 2.158972036702314 -0.9614555425224279 2.113596179670676
Ni 7.048715513598746 5.8833587274176935 8.079339328527697 -0.5544049177855483 -0.18160884335616465 -1.0434163977669513
Ni 2.896125449586338 3.95529713089406 12.90789831807113 0.7439841809416994 -2.5815701222554894 -1.1603607110651952
Ni 0.9640961486868316 5.70370107327822 12.128661717354916 -0.21190415190559636 0.4363838264833581 -0.7956926650595845
Ni 1.4991480856043935 6.999646680187966 10.006748354378686 1.9526808601081211 -0.752233308324369 -1.197942268863395
Ni 8.031697935114728 3.3825473345182147 4.996993174975442 -0.5284218634582254 -0.7977366920728067 -0.5480074988996367
Ni 2.614334416924423 3.863759856998947 3.9231643269144993 1.5803727810587493 -0.9934094697212053 -0.4187110917939434
Ni 2.755173918605368 8.466726378660313 1.6918440831117327 0.8846692895003087 0.3429751344132093 1.3419723826348373
Ni 2.476034246044035 3.058810664772083 10.439796680046335 -0.15237565752266016 -0.8048704749041107 1.6797214927624167
Ni 7.153369551371742 1.977345152759463 11.16135686279988 0.7631008471664922 -0.546126222716524 -0.2512618277676124
Ni 1.6094409314786269 4.461818939405353 8.800557821916161 1.666059421894292 0.33408066013705695 -0.11439069363845461
Ni 2.4562143957146807 0.37130057622658236 12.61480819692423 -0.2898078063616106 2.1984886067396974 0.20185988029571686
Ni 3.2132897337310258 5.215318675595912 10.984615704771043 0.43587809049153314 1.244535800352218 -0.3854513012995491
Ni 8.810665665510882 7.371219861044608 8.733058301496332 0.053807789849075076 1.5296868246681075 -1.1912556008718387
Ni 3.0834477750024964 1.979688432284978 1.0685774746222882 1.4068420867250286 0.47523679479481384 -1.6847132895500534
Ni 1.2649134908029274 3.535579358351839 0.9645722732119362 -0.19265841630210692 -0.15856327439061077 1.5056531807576714
Ni 4.522361440293655 0.6369715261924557 2.39103761611536 0.2516742327146827 1.2770563986877426 -0.6531069970441526
Ni 5.960304184984601 3.7912488925580146 10.677451902808555 -1.4819033866362414 1.2883414846832588 -0.4420420532104001
Ni 8.781005908329366 2.530564507831017 6.9615539174470955 0.6236097589159841 -0.1407352450702544 1.341428337205909
Ni 7.9683080228508 3.312398321152801 0.39844714277754695 1.242586647045647 0.9153497493033009 -0.08148083028431129
Ni 1.53162724683653 5.575166123049978 2.6855206348925638 -0.21805757310150187 0.3395733078205119 -0.8758452634507754
Ni 3.7403782545718376 6.065032908957612 3.257475956815734 0.3018583097682414 1.478133120960532 -0.25309553854224154
Ni 1.715794080301995 0.5644661632165248 6.2912060620448065 0.3086663338290104 0.8479544505777783 -1.3968194123817042
P 8.07230855637365 1.0259269865254173 1.9460600371500891 1.4935558832735054 0.2879689533806589 0.09718769949660681
P 4.686166948479647 5.2263162185483285 9.419339524094621 0.25777571762673024 -0.28532508799990863 0.2884808600200709
P 2.813839928718258 8.281056485419517 11.13614746956184 0.5222075071173974 -0.45883367084644205 -2.165023899323349
P 7.596725506219156 8.832922153115774 12.361890849188661 2.3767401035878555 1.6803064187316095 0.4336707984275693
P 0.9736653180639341 9.186850719218539 8.004666198596288 -1.1373534515367443 -1.0311159831330436 2.742238101693929
P 2.3646211071695555 6.375139347200749 7.530776658027166 0.13856369134023233 -0.07865133125531615 -0.5139923182964568
P 9.399258272065207 6.856958695056614 3.6606003228693087 -0.16588988995901105 1.0486372798462587 0.8920157025630507
P 3.2819263515461063 7.996165975456921 4.24352704757489 -2.182748313186305 -0.22398962231522068 0.36818762912309494
Ni 0.7388266986198353 1.2037081498894793 0.6414004178534288 -0.4812017541289971 -0.5677754255551835 1.8408417292469266
Ni 3.5684879652340697 8.104190228005656 6.488320681860617 -1.0153864882129287 -0.15929783856379018 -0.7700299701861578
Ni 8.521452691722336 0.18471484345808561 6.729036171668507 -0.37027047979405264 0.5784848415528875 0.1023432755556173
Ni 1.772779650914516 2.056167101101782 8.489431917042802 -0.6330457075179032 -0.9177928115271548 -0.9018524861478145
Ni 7.443152007435413 5.89139682969446 10.63241612419866 -1.0051311290335077 1.5303020896546031 0.11287657098677335
Ni 5.550192924919491 4.910533629103944 2.6367132031818397 1.0121466411193922 -1.0354683465644683 -0.9623965662794587
Ni 7.223210484162086 6.729525366278614 1.2019623599640956 -1.1755716144776784 -1.2336078405858046 1.3846843196810668
Ni 1.84784861770601 1.8539635503323537 2.867085587864957 -0.4936965441618981 -0.5872407333686468 0.8368645113122039
Ni 4.758201788395474 9.445283642825322 13.615193436621537 -0.4481844186627119 0.7461230816615732 0.5572814680023951
Ni 9.218116229700408 5.509853041135627 0.8877407121000548 0.9368786245140122 -0.500870436202518 -0.7092562905422108
Ni 8.22290394293174 0.37449434485478406 9.3682775027209 -0.17638744705622525 0.3818674406030327 -0.07976641869636585
Ni 9.183452497117791 8.08859948375223 11.046443741877129 -0.8521677173281775 0.5659612551645801 0.23525233971323353
Ni 6.5718627980439726 2.5088775025012513 2.3842327697163648 -0.5167847934399293 0.38686360826604343 0.6377353996840888
Ni 4.795936990953765 7.437335819609135 10.620323494838503 0.22938688207139202 -0.8386995076384136 0.08670119814298616
Ni 4.129353320032304 1.0096827380218478 6.8586241973169795 -0.8859910936355258 1.8526569767142995 -0.15414843315236676
Ni 5.528085809714633 0.18321645157025637 8.272231377310078 2.1314884865700647 -1.3455837541351794 0.8158778817582077
Ni 3.840961894443938 7.261113730670416 12.776233082484698 -1.6594136344430002 -0.1854385015149 0.35210666440083227
Ni 6.065107595157628 7.61016902222211 13.113115457011219 0.49104805079545755 -1.8645298168924853 -0.3835142321778363
Ni 7.011447099790558 1.2435999164732443 13.780266743052806 0.18772318378401864 -1.4790661742977624 -0.8154472219786923
Ni 1.145732987126741 7.581657565365846 5.660195428191161 1.4278379722504055 -1.3888325375214856 0.2745115423241724
Ni 5.10840538027242 6.488354290650625 5.688629398114908 3.959690929786426 2.1159960473614206 -1.095209471178843
Ni 4.350779231530955 1.5038253088804212 10.005067914878317 -0.7871568596744314 -0.3616652546235449 2.4012098065944447
Ni 0.6967568957280917 4.751143942493923 4.633944490273172 -1.6300896886679022 1.0463086317130819 1.06784702000549
Ni 7.467116941865678 8.459696540083769 2.641195308760324 -0.4302494314508461 0.05245950335129674 0.90453054720061
P 0.6178453239457532 3.5853670464377783 12.642218032330254 1.3873073591262108 -0.7890993281127828 1.827534213504743
P 5.461222989149943 1.6233232289066772 4.383459111925635 1.3410365010841292 1.0964963083110664 -0.49699604084877635
P 4.097695707000347 1.860031804083687 12.534451447171575 0.1533004833297747 1.4261179042355052 -1.0483958532594138
P 6.295411828683231 5.109927111597755 12.40771923509623 0.5087657797901949 -0.29085990177520876 0.1938267255785952
P 6.263688865226261 8.596932432613922 6.3280711703729065 0.06363146080771623 -0.11990056771309027 -0.7773334458261064
P 3.67712837893294 3.329436110531545 6.2568140005147495 0.35820172155497665 -0.2738394559578123 -1.7057559691529653
P -1.587081750348714e-05 2.3447359064151865 9.828981194677128 -0.0773899480443893 -0.5433797703196384 0.002418379633505513
P 5.051270437259868 7.852441719300342 1.5650577235413752 0.5367265266691789 -0.1456175128632202 0.1437290375912557
