# total energy = -340895.4126414122 ev
CRYSTAL
PRIMVEC
9.03155383777924 0.00000000000000 0.00000000000000
0.00000000000000 9.03155383777924 0.00000000000000
0.00000000000000 0.00000000000000 13.21859196504917
PRIMCOORD
 96 1
Ni 6.406586785742914 2.10075744694818 11.298511574764836 0.7634682578082399 -0.16870499081030302 0.8281489858160771
Ni 4.586060386094018 0.24566458193482157 6.06024837819444 -0.14629962653190934 0.34763243067956257 -0.305328527705029
Ni 2.6223296714400477 1.548613413280469 4.883873158924356 0.45173151258402205 -0.24521227913942287 -1.2233033733360028
Ni 3.41029660300745 4.481890446054378 4.683690578120592 0.07958489881317908 -0.5950316901679752 0.11121358146205364
Ni 4.918304150983755 4.618953304563272 2.474613192221014 0.5823448387289261 -0.2562040022642362 0.2953004540450656
Ni 6.953429297405834 6.069764023142054 2.743227855188845 1.0617645612568358 -1.0389997567564946 -1.0820981306078654
Ni 5.315240934817826 4.54391915666581 11.598190266583572 -0.46630812484661627 -0.37116805190765756 -0.9870758141936936
Ni 5.808851469144727 7.940523924308244 12.333170879074803 0.6843785534639246 -0.11405619311717131 0.2771322677764711
Ni 1.8153422878418253 6.588166172295451 0.3301132213787828 1.1519791718697194 0.7749379490107363 0.8066831026328171
Ni 2.6530279223672832 1.6264744374769085 0.32798087155709393 0.7593326383733117 -1.0211922962614284 0.015849565437746897
Ni 0.28288180830168025 -0.044432534594504615 4.925961102185907 0.7436440239934613 0.5519153185944753 -0.1901988990180208
Ni 8.662045715519167 2.399340611306642 1.430000212610398 -0.060818931059585586 0.3169740823637573 0.08122834795387301
Ni 6.870411256063337 0.5794400983271359 4.764918565525527 -0.7655835043790299 0.628220261104802 -0.05409498207219071
Ni 0.7997666564383743 7.540606727762791 2.614914765876276 0.24834362567955295 -1.0235481980881147 -0.1309642817264196
Ni 7.533191822199019 3.861260140900575 3.942695854039939 0.1815149980907777 -0.2035562941615333 -0.7764556712068434
Ni 7.482524806105523 3.885988534851375 12.733349990676711 1.6019571920977445 -0.9670705747163603 0.12236625564476346
Ni 7.5319364362387695 8.78811717321063 6.879893484262366 0.676843421429144 0.07187647442532782 0.6052705942871641
Ni 6.969957040623498 0.8293269316030822 0.5292634955979676 -0.21813676307886948 -0.5754049170759832 -1.120535351538141
Ni 1.952179357508947 6.326260147394331 9.230396872249228 0.256361610888023 0.33464193195716563 -0.30881571492268106
Ni 0.22737749206207467 4.934660294681674 1.3343109014676908 -0.9349369274066093 -0.6236735222743839 0.8587597687233985
Ni 6.186831021823673 1.9460017747980822 6.903924642269777 0.6746587550729993 0.23601415757992256 0.08294790174814101
Ni 3.4640343473490365 4.227706399541839 0.39950987347489725 -1.1942100555144726 1.4196315251802132 -0.45904372997471904
Ni 5.755917533079847 5.398611206753487 4.735851413191247 -0.03746894347973547 1.6503337836289191 0.12004532082107068
Ni 5.473636323097279 2.9436091301733676 9.261659595280891 0.1992062447229537 -0.0164979976550232 -0.42778245796759234
P 0.2982652536692473 5.449359506830021 12.458231705910498 -0.06702120321555555 -0.5032080831967591 -0.4877087020095794
P 4.164178451021046 6.207161049136768 12.548819092384539 -0.2194678231854672 -0.5695271181389676 0.6679016388548239
P 2.44411905440674 8.512456092068799 1.4011967816433075 -0.016505453854190926 0.3387780656127262 -0.09130604390484921
P 6.109096439378626 7.490869961697393 5.740768004952356 0.4430722942471273 0.44766274183128707 0.12686825728017506
P 4.915730158187562 1.0386106090409661 12.667957929478254 0.4497437927300319 0.8355841019378836 -0.7651322757742243
P 3.8944691637483078 6.073981758706343 8.101714578448826 0.2571303707332475 1.0791583312532513 0.6595949187613414
P 4.589943954172486 1.0853850255023236 3.859207268751189 0.1162064066909547 -0.7400516786565126 -0.3196434016658043
P 0.2000353664789287 5.57475359799617 3.5638384343441856 -0.25359047590078904 0.2864484029710744 0.2037372998240878
Ni 1.2518817174245327 0.9793545854064876 2.7533133911730885 0.39574522702638937 0.64269634323379 -0.5189792299880869
Ni 1.810998110526144 6.5209172236622654 4.871434000053487 -0.41774949921162247 -0.06551685075588717 -0.6013820578660353
Ni 5.893504221701649 5.526028365941908 9.031233050699536 0.5353237327843813 -0.3089293576824099 1.410875633364454
Ni 8.708693690229133 2.3185262690598325 10.259927157229518 0.19202489648316606 0.5436412515111412 -0.24680919131289752
Ni 2.3897581328618642 5.030882467490962 6.886026812360244 -0.8634258067405001 0.9172379674649493 0.5897663280039778
Ni 0.519103900873623 8.916798749912969 9.118805704558246 0.6319686724036407 0.5547695002138188 0.12929306467158377
Ni 1.5771169966656866 0.9809260757452163 11.212590792072525 0.07073233351855561 0.5730467012564517 0.8369100198381587
Ni 4.057497739060909 6.718726312161329 1.5651077397495512 0.35476955594497606 1.6416329134208114 -1.6405877599857488
Ni 5.600358052653043 7.616327273739238 7.9894090148624795 -0.8542533962126125 1.2742286994309602 0.3258204770107937
Ni 5.3455688920445565 2.919178777493705 4.689387682176168 -0.973028334961692 -0.21520390570279066 0.048675610828832296
Ni 0.5656227243660951 7.494672245792823 6.964294256471872 0.47390264936442256 -0.49304399817956374 0.12950775178555116
Ni 4.8985160168909125 4.56388792183207 6.907335860091259 -0.6135495464665046 -0.05804548207950649 0.4539079514100505
Ni 8.231936035052046 7.027054522930642 9.122150088882563 0.18132370801557804 -0.44217317947162554 -0.0641942752897217
Ni 4.734123676974012 0.5164278515209487 10.416091751752267 -0.1420097409073038 -1.2421187062702932 -0.7000250017519299
Ni 7.933967016343203 7.130510970230284 4.59245562924835 0.3237728504531456 -0.3073442725834772 0.8132666693876058
Ni 7.324842910566068 6.094076965623994 7.007559011176735 -0.22057622575829752 -0.14616027274056761 -0.4963666347948935
Ni 2.365454221933594 5.031767559750705 2.497600302624074 -0.5711942214287453 0.8624593290621727 0.20435436458279643
Ni 2.4321341826855156 5.287324402421214 11.54316191322242 -0.10629146157008791 -0.6164137553881771 -0.6256252466841161
Ni 0.9667284733746324 3.4247922466491723 3.811237074583811 0.11981649263971625 -0.1732769264517016 -0.7222125935925626
Ni 3.646878151415493 2.666692663071287 2.528135082429867 -0.37331158061322156 -0.8126994840302262 0.6033605217486447
Ni 1.1456525831479378 3.371162880951636 8.32906136322842 -0.38731380842958457 0.10724328396039594 -0.3377100293595281
Ni 3.519298424260997 2.600599753307971 7.006805779600586 1.1005272838473306 0.5861001920063003 -0.5321072827296127
Ni 3.993680780822648 6.973551598984498 5.949384250573964 -0.37341982405631174 -0.8235886201389041 0.0630529625964269
Ni 0.7900062563862814 7.244200167839005 11.361009023011786 -0.26215893429609044 0.7115173186622457 -0.7348729626690506
P 0.3217924509818242 5.4258864988394695 7.975688278525717 -0.22432180884365882 0.7435152117250807 -0.9139590396033613
P 8.669361273992559 1.6325797677584064 8.130518009415916 -0.4338080953363819 -0.3277434050651194 -0.5864323785347384
P 1.8337395626693564 3.1251072327428666 10.469151226413173 0.8098126494007344 1.0444098720284722 -0.26903020749462697
P 3.8926809161214786 6.3015317534435304 3.588451224407999 -0.49748275067720776 -0.5343906794471506 2.0262270089263876
P 7.294767836842122 4.095032876116981 10.420388061833494 -3.3266282529876583 -0.7197160524229541 -0.6323818486816594
P 6.538628100410811 7.705459676916904 10.168124123631378 -1.5153855775540868 0.6423821544274808 -0.19783147586261415
P 2.269999731186329 8.572019188528087 5.815559204056071 -0.1569563349148071 -0.7780248154661762 0.9644305659903522
P 6.840589065842173 3.807983005796202 1.7224220510546022 0.3568097263034564 1.1180796909087969 -0.24913423990164835
Ni 5.251758144065387 2.973548730592251 0.4825008201563825 1.1585820218982177 -1.3936438428671998 -0.3329874270728781
Ni 1.5492456220374287 1.205134395624188 7.069276133186522 -0.3562651666538961 -0.41588930607443214 0.30238075793061475
Ni 6.920834420207718 0.7963021524502343 9.111231843649866 -0.516916176811471 -0.6910361679897583 0.16905774616403144
Ni 2.888453431905457 1.8673188792175948 9.11688920886929 0.05234380370903889 -1.2282370631921944 0.7649708104956954
Ni 6.2455090260232184 1.8721688235388438 2.636381865796531 1.013897562372228 0.2928851597353536 0.05064996094638374
Ni 4.1881210998024825 6.947721355485853 10.528846183556055 0.5756692264809633 -0.15819509241791463 -1.3917165439374999
Ni 8.324681059698054 7.1478515532783256 0.11639685739924314 -0.9736811380543425 0.819769246392814 1.3634961156392258
Ni 7.5827840834056826 3.823887571810577 8.025245316673065 0.7541323251192947 -0.5035677805290231 0.6689398503113512
Ni 3.464549145908275 8.468499520352747 12.396501036570205 -1.5451959760473002 -0.4169593992101594 0.719635834004322
Ni 9.209836540317527 4.856672828733842 10.19797160220282 1.3335615328633228 -0.00015246641746425354 0.16084204312245848
Ni 8.674518291138618 2.1917774448430554 6.012066845671164 -0.697569598232902 0.7948244035220182 -0.6657059167550857
Ni 3.846096162287209 2.5425268632043743 11.357056815125418 -0.5636464909884744 0.7623577983528806 0.6264284593117019
Ni 1.218130801356548 3.342487698046672 12.535640249268027 -1.0221546601746978 0.14071081959022216 0.15635341122348556
Ni 2.9143649593871395 8.440700398153856 8.149684772616204 0.8980271988644534 -0.31723273534178265 -0.20539514714248497
Ni 5.499656229223011 7.920455812051604 3.5229525908762254 -0.10076924620027805 0.21679027635330406 0.041052547065935745
Ni 3.0480048590547786 8.419792351405826 3.7603325286287714 0.37119659115274783 -0.15449013276250165 -0.968543816827777
Ni 3.63966194003248 4.400416800389597 9.505330913320554 -0.6621832483138079 -0.27518054336673897 -0.12899044582950042
Ni 7.339952699857409 6.072518647011664 11.446361720978198 0.03780987175892198 -0.2777686158088894 -0.9572631017076353
Ni 0.574368880940951 9.144719038350662 0.32138783737736987 0.2634619693782302 -0.33253337025459506 0.500546477204196
Ni 4.608205755694954 0.3982942263508002 1.4936211861340007 -0.5137123251621928 -1.058519829067293 0.5617865549616003
Ni 6.149205569230892 5.625312235445615 0.35046040864385164 -0.6409986438163928 0.7132872660784747 1.07084621184313
Ni 8.053210619459499 8.949149775161972 11.322477705585818 -0.22351731066449246 -0.564051696846693 -0.2059919001862194
Ni -0.10944707684952035 4.716232169152049 5.77994778793189 0.8178931124160237 0.23004174204657157 0.3970418343506259
Ni 7.852466276017409 8.818806392584195 2.655548628996819 -0.11497227717353749 0.12210374601199617 -0.41049256053889305
P 8.423377878213156 1.817536955383843 3.6949531116054533 -0.4277405489860633 -1.5743731118318887 0.01988799717317865
P 1.7732010584136164 3.1536559738964387 1.5385513593357694 -0.290152591295539 0.07627460349302348 0.42423870648039197
P 4.689552959608344 1.0687308405332672 8.169327498694946 0.46900161251837935 -0.7121552093565606 0.5590601571693726
P 8.684543315713267 1.6556824820484533 12.358749142226031 -1.0013770613077142 0.6357875319290985 1.1803068151698188
P 6.4084021280307555 7.617528470377462 1.350860320414165 0.20917466878957522 1.1962558822999074 -0.03281550386812413
P 1.8660996194720294 3.2983414637035335 5.789901463232539 -1.2352764865374792 -0.1414045032231371 0.7049854310809988
P 6.659985087086088 3.910581455497113 6.049633593165084 2.2676350838283716 0.1619159929129276 -0.1616300862413926
P 2.403097737633717 8.286567903207047 10.333885647084779 0.4271594796716128 -0.13288541000853243 -0.644342106367329
