# total energy = -340891.8584007938 ev
CRYSTAL
PRIMVEC
9.09245690770229 0.00000000000000 0.00000000000000

0.00000000000000 9.09245690770229 0.00000000000000

0.00000000000000 0.00000000000000 13.30772976405483

PRIMCOORD
 96 1
Ni 6.459990434083641 1.8511787169022247 11.370483499047241 1.7008955557368706 1.4404142662535193 0.7153690883081679
Ni 4.819547585555604 0.19360204301437808 6.109286196888404 -0.5330164248074433 -0.0966678224373948 -0.8099664013697792
Ni 2.781755287839994 1.2428206256401895 5.106761016275313 0.45523566908253854 1.0918613806422164 -0.5677481718616738
Ni 3.775551710044352 4.55080184359004 5.007073139773569 -1.9202263391238414 -1.093513828643975 -0.5860742238643714
Ni 5.026928337416436 4.480708095076573 2.6273180927108024 -0.211163674195146 0.3767941398451833 0.39478054912027494
Ni 7.079486784773487 5.930109336390127 2.4170695800144357 0.8214412347785982 0.42820334755509476 -0.7652963121559142
Ni 4.572496445218413 5.047477289503663 11.161445192334417 2.631953459804048 -0.7709236856450207 0.058948453509750094
Ni 5.5243039024940925 8.132466007480394 12.620198934584662 -0.059006046220562894 0.1334240561208218 0.07709298562926079
Ni 2.0605052544916695 6.631646923665394 0.5165170048714756 0.13242955341803647 -0.8165530534483615 -0.8431002078092706
Ni 2.824526204042789 1.5916072637225067 0.3597066785499099 -0.1353850365019346 0.03524005414921672 0.9476042384616323
Ni 0.5364613085897645 9.33940779907802 5.199475887752414 -0.6250552331132591 -2.188900963051262 -1.9013192178066933
Ni 8.940976347546028 2.4030271899243854 1.3930398301174935 -0.34780649436358163 0.5729052905825811 0.0347703136016498
Ni 6.915849841979758 0.5797577687884187 4.714636092693633 0.5772939065685799 -0.0809997768828347 0.3228714216847988
Ni 1.0931587887571097 7.442066679632938 2.81844425977237 -0.4522711871375759 0.7341090879198324 -1.0254909236367822
Ni 7.768276747789333 3.8007650924062464 3.6428845839339425 0.5625982522296181 0.385475212558949 0.49969312806496524
Ni 7.990723700361905 3.8247691780302637 12.706486348437664 -1.373311301957435 0.011977741187166468 -0.7076524363902006
Ni 7.729842933420877 8.91946359505117 6.942416181895005 1.4468993597572308 -0.3564286888149539 0.4122830767804125
Ni 6.9395084142500965 1.0135543305607937 0.4251541817020611 -0.014630348318665125 -0.5328228207393986 -0.21713171885312282
Ni 1.3882726550823903 6.670871781764641 9.39230225654361 0.6122591097898552 0.3374752876409027 -1.2753443010926422
Ni 0.1415286343866086 4.908299055167739 1.3638294038009335 0.12017696130292851 -0.3664608762399753 0.4853268320409642
Ni 6.445042435308684 1.771947049429615 7.126142907713836 0.24297053429309765 1.9046523959449846 -1.1449212365816734
Ni 3.4169179413821817 4.606947763562884 0.16024000097966387 -0.013759515677937593 0.3135234048109955 0.9235808789638417
Ni 6.010095677766825 5.709080807058974 4.619312595396257 0.37948891306852706 -1.2152013130541588 1.1582166681389987
Ni 5.466339491186095 2.875971323914263 9.362666303254622 -1.24240049917677 -0.07872255081288378 -0.5530327200283701
P 0.28626054126008893 5.572093854781909 12.521029328113437 0.595511200907555 -0.8375013735652543 -0.23218655630371626
P 3.878132806260324 6.605251521935651 12.396282641013286 -0.06933648161229349 -0.11937940510229762 1.3157684705459598
P 2.5195652071376555 8.44858344872669 1.3809295870710432 0.7875252987574436 1.6889363264924655 0.8545074212049477
P 6.464300258547953 7.589237183386859 5.701949593288171 -0.6729014060622605 0.6837925990534675 0.24350480953001288
P 4.8233027701626945 1.3846902271521393 12.639482216702625 -0.38770795854420964 -0.603089270365129 2.078971647618271
P 4.053144412355435 6.0525938202693474 8.019516782917048 -0.09813849344565034 1.1492386330101045 0.6370175476814577
P 4.863636907976384 0.7478872944256432 3.8951457019463467 -0.20195501111268443 1.100294341900918 -0.2210634498073612
P 0.2640776747082269 5.565847337045659 3.5398161320401496 -1.113876708571043 -1.4018055527423856 -0.2402081410566121
Ni 1.420187178014323 0.9054886644780004 2.591493813408291 1.4694229947810435 -0.39845234154490733 0.12356001884254851
Ni 1.7496978079440197 6.408554406668842 4.851598495337673 0.7429652527588817 0.2545492402696326 0.6047108651289521
Ni 5.856469529773111 5.402874143589261 9.091149180494286 0.30124073078890057 1.1784026561685705 0.18228092972252477
Ni 8.652172646153728 2.464010296848736 10.165721169314798 -0.024100749702945592 -0.10959687179423705 0.6792242629564947
Ni 2.2405631740418293 5.368950187731984 7.040054618662032 -0.7849102297320998 -0.9031660627529154 0.30869641573599743
Ni 0.33904679849123837 -0.10443413888649314 9.339018641932295 -0.4239592275667602 0.7130972615548558 -0.6875988601734352
Ni 1.3293717207367894 1.096586644923873 11.322615351632013 0.21706898393598742 0.8742236686869524 0.08560899352007191
Ni 4.653655713506286 6.979124247986401 1.6015053120597436 -0.8532077285569176 -0.060267943652122 -0.6100929553764719
Ni 5.739704201142947 7.92421237977869 7.837640372031736 -0.3783668836489419 -0.8563275051328221 1.1589599740629264
Ni 5.486615669573049 2.968823491487168 4.943408667375535 -0.1309902498683486 -1.5000777435524228 -0.6860628831448828
Ni 0.4929702698182488 7.2075358521382755 6.800689331952865 -0.15968530381019597 0.24925276775738364 0.7780153023844795
Ni 4.8841313053235575 4.347394495296518 7.007570907942197 2.4736151569400495 1.553405765551602 0.2426643159065885
Ni 7.844126021378559 7.200989283331724 9.25648368494938 0.2942522152862093 -0.3794351770124562 -0.332477320205679
Ni 4.57394214582986 0.580304225434632 10.795110112867876 0.15512750923618446 -1.8624965885125409 -2.105368392444245
Ni 8.290192853434876 7.09296180556697 4.612618728791558 0.03531872990595207 0.5686699123449949 -0.03574681858230618
Ni 7.189860116360589 5.957668572574368 6.945024807715282 0.30444689643102407 -0.08821403524308678 0.20257361853328984
Ni 2.3078928157258636 5.235245612314871 2.743654257385871 0.7754439421128775 -0.30369587719761243 -0.7862438609418588
Ni 2.34729043050195 5.420149811273212 11.230832456964178 -2.145920602834994 -0.43739889801143383 0.770972536605085
Ni 1.1975129140248562 3.0943630408094447 3.6964609756502163 0.6449982518940892 0.9040952594354043 0.5175586954914765
Ni 3.6919829407374025 2.5569170191616952 3.1597605354498794 -0.40202848893193993 -0.20223654690884524 -0.5287831034523861
Ni 1.0166548582872292 3.3696371666682077 8.313884158549248 0.30704473906518737 0.27640875934688525 -0.5392994296026776
Ni 3.7450737952671895 2.541641691946411 7.176592403579313 -1.4510889723585463 -1.342377845603372 -0.06435085547224402
Ni 3.930359877405914 6.8387912716526555 5.930683070406367 0.8541675213670257 0.8096231590977476 0.2956244130433876
Ni 0.7024995691915632 7.423954505934816 11.591418376074635 1.1040604938115695 0.6428542089678928 -0.5173090413745155
P 0.04642517454078474 5.433352058366422 8.086082658240318 0.4672635467813501 0.9350539126004477 -0.2516752611559472
P 8.534616273792773 1.716946778997917 8.067185805531077 -0.007697111533941582 -0.738064987243787 0.13541100464386358
P 1.8013156844923335 3.265137562093649 10.459942156394519 -0.5353527862501039 0.08111779051793772 -0.20826989758711875
P 4.041469697983753 6.178578899968737 3.7080793167905077 0.2632053732827338 1.154446145352973 -0.6539091812304738
P 6.606760869743828 4.088195832840506 10.69300000590771 1.2507686686358073 0.27983501141961487 1.139413933610199
P 6.204656065714828 7.870830566635277 10.46400102905458 -0.20467189582321527 0.2012818963050598 -0.4782994928805375
P 2.2799244189912127 8.376807595728208 5.986228888238612 0.39609823949043393 -0.22299254850927402 0.09028248773634129
P 6.902774889280008 3.8228688545850287 1.5777249008699499 1.081161734836525 0.40202103273277223 -0.6307931640383007
Ni 5.094758064217637 2.874580178042871 0.8512794377770937 -0.5189923426142093 0.04953513061565017 -0.39588175260425373
Ni 1.414249803805049 1.1357569482830654 7.167183529411233 0.19562084136454053 0.2284702837943936 0.9075356525755208
Ni 6.836981872774179 0.8052761532260645 9.27655164607846 0.03530664572109403 -1.3532564401890887 0.26598627846198064
Ni 2.972605953464286 1.6326778905269337 9.45534116792235 -0.7380189644971998 0.2411514788064879 -0.8948693699617621
Ni 6.52511970125214 1.899996116794403 2.7202866437291573 0.1166334669260443 0.20755127425353934 -0.02550405780837543
Ni 3.9920431034942987 7.104627427481975 10.012549644154875 0.32369160359324894 0.3466353568736159 0.286357643029481
Ni 8.751507735336453 7.206863010344269 0.45262885803921793 -1.1677480046682018 0.748670273563459 1.459226513864016
Ni 7.559959472890898 3.907174112882715 8.22719758584818 0.2637244790109975 -1.053827051577314 0.20128086786379526
Ni 2.909531581504509 8.661901574796795 12.319763253367057 0.37108834770965765 -1.0271408005353795 0.17819750368177054
Ni -0.19222271733666466 4.9445597723906864 10.283414837771558 -0.4023804729547199 -0.13383337574409854 0.5401615204926568
Ni 8.632896638001109 2.1729698511141975 5.641252898749107 -0.7470543352265908 1.784549996633733 1.1788217459838601
Ni 3.5447215124167246 2.9852444682435975 11.799777476273778 0.48767347789626975 -0.7415866272438003 -1.077060825294274
Ni 1.3501388917842352 3.4829746391316094 12.748658071745528 -0.7595576098999242 -0.1890701847302163 -0.34465380766721293
Ni 3.2123194812641347 8.452502297553945 8.053052490874268 -0.12803116724002467 -0.3257639127412454 -0.5307209439050472
Ni 5.953249638629948 7.781924525259655 3.4865052400588086 -0.5729626261830777 1.228536339600168 -0.3075844136187412
Ni 3.2318864480303793 8.277508876372186 3.759367137161491 0.48491674108673904 -0.08886041057783406 -0.24403085723681195
Ni 3.323583873605462 4.296867713549296 9.19088979324475 0.02775865817050703 -0.20097953457329257 -0.4889747132061967
Ni 7.391248939272092 6.432140239285775 11.863881114329253 -0.7618512910301072 -0.8598090359235192 -0.6934069822147799
Ni 0.6819588003153442 9.41687552995553 0.2749631638404519 -0.0061667909323442184 -1.182168808079222 0.11322007036912113
Ni 4.796534577709245 0.5808415896241698 1.5984047843333078 -0.7913097055005405 -1.5821383575996044 0.2169383718953941
Ni 5.722092112561992 5.158559832711474 0.19668165809045945 0.652156203095109 0.5606159316922668 -0.3698678450389953
Ni 7.960645853678478 8.816691557245006 11.492807955688969 -0.4513949551802097 1.0225531811646968 0.10247311626526223
Ni 0.09930508407569452 4.616940373449549 5.696705973523257 0.01762234106745352 0.27633676845836924 0.35889514807757544
Ni 8.238893212870215 8.825274836346928 2.4355008989418767 -0.5406636569400559 -0.03209610920359633 -0.005981671504731634
P 8.736223315664493 1.5789505640298427 3.5335477924078775 -1.7061118098304875 -0.26464493394273775 0.44608048494583175
P 2.1355271145234003 3.383775936799021 1.5751562818590463 -0.14260546550977377 -0.6906882977320362 0.18159161696498402
P 4.793697731226406 0.9827399948866286 8.276303216616979 0.15512853767744897 -0.5544113455434516 0.46743272536936276
P 8.608647056046845 1.6917515815493742 12.444762710762795 -0.45911057865691257 0.5504801288098454 -0.5102045691192504
P 6.699758516623544 7.905472826569939 1.1506676679856511 -0.0451709401096835 -0.368531642726075 0.5083932269421244
P 2.028818042976631 3.307881200926417 5.992390846127777 -0.5671200513593717 -0.4013096084880443 -0.4130364100066693
P 6.982979449616925 3.9109656673165087 6.046127265081544 0.5914059204899299 0.3560967593968319 -0.3278537053907386
P 2.351582070052911 8.644498612719383 10.051235319573248 -0.4468970673098561 -0.053949971853894184 0.9479886183842448
