# total energy = -381158.71835013764 ev
CRYSTAL
PRIMVEC
9.39173168737054 0.00000000000000 0.00000000000000
0.00000000000000 9.39173168737054 0.00000000000000
0.00000000000000 0.00000000000000 13.74574865526308
PRIMCOORD
 96 1
Ni 7.407456087243077 3.0624277261033503 3.196944561323883 0.9896284054122181 -1.2505922909589429 -1.5165060643117754
Ni 4.260775135273218 1.3890934817759062 6.5355671533563395 -1.3682871092699662 0.21258446580207258 0.255973631420985
Ni 2.236612750020193 3.1030187908893323 8.363628300538041 -1.3963895239331368 -1.2523265000412303 1.8387079707333753
Ni 7.658853963733398 4.1873975348167445 5.13297869217484 -1.6761116639239715 0.5964095443521084 2.080630780488249
Ni 8.596486898479652 2.319062763383483 11.234565189704597 0.3851114014616271 0.6197633885867004 0.836132775352502
Ni 2.6207157966692205 3.9780370498076953 10.736392047109808 -0.6416635310939014 1.5149785719236555 -0.9231119097472231
Ni 7.549449680139713 2.9121130588429054 7.30005130334697 1.6638215337027087 3.7331158061322154 0.5135752853636961
Ni 8.125773301285431 1.3909624364016373 9.094434639511537 1.102169961657076 -0.5375680487338678 -0.5652287478739297
Ni 7.115579846748224 4.037092259288088 0.7729207426554265 -0.34654408271139026 -0.41457547235901504 -0.0931163576407106
Ni 3.4717381808702803 3.6033163432144746 13.26096374629625 1.5206005460961232 2.3170136342615 -2.233500089817876
Ni 7.283325568206443 6.523093055196057 1.0987687553723646 0.8372573758752483 -0.6248847689736657 1.488824796346423
Ni 2.8155566643346495 6.811156252585146 10.880695066853015 -0.9868917232073455 2.651364260230492 -0.6331639782633225
Ni 9.296959822125576 4.67972150685422 1.6736272663592173 -0.09998660239798264 0.3994465871373766 -0.6234297816946941
Ni 4.838545083114226 8.247114475981148 8.323284238298072 -0.6019268746259118 0.6096378701169243 -2.768096714628246
Ni 5.73572782905131 1.4237301886085536 4.418501757260433 0.3169784532391315 -0.790612936543832 -1.209501434455904
Ni 8.628747497170037 1.1485900141591943 3.9542675158264733 -0.7749559467328654 -0.04461223939273607 -2.2473069137939814
Ni 8.941360681451897 7.47610964661039 8.608027458500247 -0.23418841722509345 -1.2475558181254642 -0.760806908925993
Ni 4.865743538371098 8.789543337105437 10.461573069887585 -1.1382057722347108 -0.750747724917778 0.10272148483064245
Ni 3.9793143253308085 6.058953670253152 8.983424369782174 -0.611212670803212 0.5909978864182337 -0.2555044050940503
Ni 2.2720383623229985 5.796407808130957 5.503701338546081 0.08354876855693352 0.8702662267011011 0.1669656395216931
Ni 5.673432472104198 1.9871307868145411 0.40130118589846964 -0.4583132795665978 -0.6109301065657866 2.1752540616917893
Ni 1.6724514215394106 2.208315462144172 4.66872942397002 -0.4057882130846882 1.8970031069298428 -0.21550781009645462
Ni 6.163915664711305 8.518526132910832 0.8995992385260333 -0.05147759905400166 1.1795316275666912 -0.7037307327382912
Ni 9.252565105965619 6.564801736064763 5.526354195617759 0.3730799242183897 0.3830511764984887 -0.2692304964308912
P 9.299223229486387 0.5562178017348357 12.16644474955777 1.4407618794009251 -1.4086534289021546 -0.005219853638042623
Ni 1.5067624893426736 5.607183196074509 8.309057642986225 0.2835667105479052 0.3231953806831208 0.287073438149583
P 9.250188997823358 7.638905925416547 3.369330737458353 -1.1106808273415647 0.5918877452223549 1.8781566636473008
Ni 7.557319951377717 0.7482007654172999 6.791348151071931 -1.8704371835158562 -1.1304793501247303 -1.396513451105511
P 5.093511817683833 7.483482156063651 12.996536720296998 -0.4070179717267313 -0.17207776393727783 -0.08318392901834706
P 6.327331797815444 4.777883887498154 8.116012474438584 -0.00999619198076343 0.7038266348862071 0.8556443630228683
P 0.07771282384962688 3.547332230028626 9.686134403939905 2.668941864102939 -2.2969420603226056 0.4200984590597732
Ni 4.460969290057577 5.5871506321715705 11.219912209769593 0.6634605723643348 -0.9105680116439415 2.1208585176600443
Ni 3.6531864390066002 0.8596871959482942 8.953059961739703 -0.2309287726372152 1.5362325962064252 0.1697750839460302
Ni 3.9781215753937835 8.012039429337666 3.934871711338734 0.4126345465825603 0.32146734224842055 1.1663922619712557
Ni 5.766598451437133 1.8641460590559953 8.13180654978578 -0.7844554015828683 -0.9985653028905318 1.109936235866056
Ni 0.2515584751038891 2.3986764737469186 13.488565791956342 0.40151221141715365 0.9076724352637013 1.0106754558905044
Ni 9.302848437956397 2.075732384498705 5.834960867119031 -1.4456366909947231 0.2571830783480539 2.312621161620759
Ni 6.4517722440010665 6.993224365019447 9.314985372945506 -0.13623889986179763 -0.9602106143717334 -0.6578990191161572
Ni 4.099594234334527 0.3574587035676224 13.495726987444382 0.21393069541732188 -2.4251611752037205 -1.326545763667122
Ni 4.620638122178465 0.5271400609472654 2.2905504048495255 -0.0966372263097755 0.5120153970757441 0.39019421530117315
Ni 0.16539403181860624 0.1536355836205383 0.9057348569028686 1.147575643485385 0.35825520050073145 0.6619762745093244
Ni 7.741266410169537 1.1085812367440429 13.566339662062587 -1.4690452997266508 0.8819392921636553 0.708139146218632
Ni 6.705611970756163 2.746649528209071 10.038272691449855 -1.6304056772464242 0.587605058686601 1.1493563895348917
Ni 4.5754920674754995 3.8927319499809774 9.39593364839596 0.5935908439563907 -1.4059851380413722 -0.8067730912434622
Ni 8.503123692779177 4.538854921772095 12.549868773998554 0.8941826283073825 0.045972610075372435 0.04076818305629753
Ni 6.432256225346446 4.877145100761238 10.677519037226094 1.7670479831942276 -0.08768798753628769 -1.4251943639799713
Ni 1.63603028566712 0.4858718522993978 3.0890542248943587 0.09858123741002377 -0.30655674368517527 -3.9507902848626864
Ni 8.542287214333445 5.13341728604932 8.99279919645255 -2.0606386536370382 1.545122185386571 -1.0330042012946918
Ni 7.953914001304245 8.621562822352528 5.05295080643957 -0.7970705192437175 -1.4226595133732596 -0.4841402679320307
Ni 1.4648659738382162 7.759110700565966 13.026640038195774 -1.1944095731197881 1.7138816835838935 -1.8803631843803164
Ni 5.9366169719879505 6.144934974768577 4.816400318732256 1.4119655239945232 1.047860549581234 -1.0134013394620998
Ni 0.3759378750328927 8.365403337845896 10.343744402880429 1.9990100821919639 0.9014801904100604 2.8877723108147233
Ni 5.552495141875348 8.734066377436118 5.77579859189626 0.5377112591799513 -0.17959129870550358 -0.050654074711441795
Ni 5.727754248763643 3.4343872635510184 12.506308043621337 0.15096823565217227 0.519153550782422 -1.6223984906712319
Ni 0.5630333814930929 2.506540513327438 2.2687907014708486 0.24452810858820467 -0.11949124808981357 0.20119807834200187
Ni 5.311287294374567 3.7989742915454245 2.6489980577743815 0.46396122188099453 -0.5611507211498142 -1.2236113914947249
P 7.17656975297686 5.250363130268443 3.0565870081046453 -0.23996260070470932 -0.07960701030036613 -0.2667943761855728
Ni 1.9204682745861978 7.230957271758818 3.2142093818690176 0.48882661766410657 -0.6345541737426298 0.08128748332658259
P 0.967592559148679 5.65835874258511 -0.08817145636829175 -0.30481816372751375 -1.8448161405136423 -1.358433613514654
Ni 4.716959723392031 5.887310380103081 6.74510795961571 1.2293616637149407 -1.0185970247304263 1.2885708270852452
P 5.887592132056708 2.724053021528119 6.010493273402345 -0.4134529287187976 1.0315438146990816 -0.3795737594728495
P 2.185333894459929 8.550533154842952 1.1523166533325115 -0.0343746208251279 1.4259782933338474 0.39902184089513215
P 7.008861598445792 0.8991399828416199 2.1903302957709294 -0.4823260975414273 0.4728744652102243 0.2973593934566233
Ni 8.183532451779135 8.234059968796391 13.13597388380105 -0.016597499347364965 -1.199752068378624 -0.811219299940274
Ni 4.166641807566162 5.704256135831082 3.1026628442545827 -1.035347761826204 0.8962803913766756 -0.08218891209492943
Ni 2.613427812802047 4.465824815391763 1.390300319310612 -0.8826085503165381 0.737433267197059 1.1309953705292006
Ni 7.807365418490624 6.7731948726996904 11.046826349616946 2.1538923081865615 -1.0380687603017928 0.6509426424029822
Ni 6.5921316755666615 5.891001330695605 12.719890112068908 -0.7946793933037216 0.3333029014307679 0.7246150323864682
Ni 1.1695054008501664 1.321519971564166 9.54064896516464 -0.31139581694503143 0.23646152952998628 0.510205854670831
Ni 3.013675246393949 1.9425106690916811 0.6538758463817764 -2.0774485261055253 -0.45362564428294133 3.0827565470365292
Ni 2.211715269051281 8.458982553377485 8.929197449613783 0.3772857347696212 -0.9595670672504636 0.4214819696708612
Ni 2.571174411489661 9.35729230712908 11.086207759348685 0.06970312092309287 0.27516948762314547 0.9152772441941527
Ni 7.377130185300935 6.91572379430822 6.952091397309321 -1.2054807433322852 -0.21818407137703716 -0.2879265301784977
Ni 5.047454764997471 5.502615654351435 0.7749934978609486 -0.04808014333667848 -0.760631302580077 0.20788706032640328
Ni 2.0329248710108505 2.320180379466206 12.022444143578124 0.1379157733435883 -1.9934613844595925 -0.3284291182782344
Ni 7.632087528138754 8.954001952437999 10.645959061727066 -0.2727176836485432 1.0630141173932208 -0.8917843032785352
Ni 3.145985963817576 4.1266987722735236 6.8176440609040165 0.953387935022945 0.3579826635656351 -1.0599627321614067
Ni 3.2362968566870816 0.7132860633237397 4.628743186711159 1.6878780604312804 -1.2153622641120552 0.3809397865824407
Ni 6.127710538670129 0.09792946569560212 12.076134795861444 -0.4330899862234348 0.8339650782772218 3.183144498637989
Ni 0.3606227780068629 4.276318451381687 6.5741521442324915 0.17460155880039605 0.33272131789568504 0.4022933125575523
Ni 3.076017561999999 6.279884768824518 13.439355934908884 1.4029764331220353 -0.8734713639019601 -0.5432373312045031
Ni 0.8373376918133564 9.158065500718845 4.965308104570921 0.4365550619538998 -0.9817297193904319 2.02516025822477
Ni 0.06869018712128513 0.035286614672348886 7.647433617879683 2.3380946233015147 0.38746833172957784 -0.9378060214242881
Ni 0.43025683417280125 7.125835617860277 1.2878581264910707 -1.685824263226045 0.7940404741681422 1.1195786440518267
Ni 4.51490600571373 4.35051313250368 4.885775163100858 -0.046011690843423984 -1.9811239459401622 0.8980233422097115
Ni 0.1520042398090332 4.610513835311439 4.12147039518737 1.1300954844227504 -0.19414271415711726 -1.0583573353474998
Ni 0.8192820874517066 6.079700005771947 11.225506864395461 -1.5885254920728706 -1.2373392826037788 0.37393198780603987
Ni 3.951204872090539 7.5526053020203445 1.7131326469505535 0.7603032298166971 0.2596364249845528 -1.536861745149992
P 3.792099543876906 7.5638847718972455 6.05864468227734 -0.8004371217231054 1.0296517398826912 -0.18020322125788965
Ni 1.8213479372999286 7.803805952143126 6.857727033000289 -0.7214962842518284 -0.3599714118608897 -0.8091534185501807
P 1.7978028657084302 1.3374765238712885 6.8193073366035994 0.4609671722496771 0.08459212221978335 0.4687941244932636
Ni 6.227197153496114 8.039791996770004 3.243502193314524 0.5077481371589578 0.2658875481005873 -0.14496342421898903
P 2.2462674502978404 4.604005365182636 3.760067164268958 0.5423834678446401 0.027852760546210095 -0.8651145072968326
P 4.524936375262881 1.5963971775234727 11.518469728258138 -0.4679659721650134 -0.14746382204333958 0.08823254718584805
P 7.008279311074961 9.00193735148188 8.537251367748937 -0.4680503043487036 -0.9148473557455857 -0.5194926792893956
Ni 3.2494264977261382 2.856420089342472 3.2382925996919454 0.8481292855927458 -1.1592695348835456 -1.4409855653759571
