# total energy = -340861.08970441675 ev
CRYSTAL
PRIMVEC
9.32820910279568 0.00000000000000 0.00000000000000
0.00000000000000 9.32820910279568 0.00000000000000
0.00000000000000 0.00000000000000 13.65277693176838
PRIMCOORD
 96 1
Ni 5.701830332256597 4.168869806573451 4.3182498770764735 1.5329518685726244 1.718120147145273 -0.48904181899870625
Ni 7.795966572722701 3.790125871806954 5.9329637577344245 -0.8166852081508515 0.44474916772891787 -0.448998172813259
Ni 4.3441002093759895 5.480901034413887 11.3907159091249 0.027629588791810482 2.054651582815668 0.25395994342506584
Ni 8.590673995472736 5.373766556043529 11.00416519639165 1.557668397482698 -0.12701558149131673 -0.17250662394458033
Ni 2.2503837383070686 1.523996117001046 6.700482250218369 -0.4796477793783159 0.6901820475195791 -0.7752503380448326
Ni 0.10592274404381687 2.234143326740435 12.098708302625408 0.4853062632156739 -0.9016205726426666 -1.1244143748775735
Ni 4.076996277842964 3.423405998217591 10.414652248836077 -3.1603167021101957 0.37009230234497553 0.008830196697120275
Ni 8.42308339569896 2.6582130281940515 0.3931047122546264 0.4366491643296028 -0.004987940132894636 1.6654891512131185
Ni 0.3768447114494572 6.853761512010795 9.26091046374869 -0.9286613788105426 -0.28539193668210205 -0.4425315912523088
Ni 5.3819287387665655 5.789366243882842 9.289458514040778 -2.1221070453551647 -0.8513547345085789 -0.6105220724940905
Ni 4.2799221326508645 6.945495117608887 7.427956607852658 -0.647697138882491 -0.09205012115972534 -0.3638157253076444
Ni 7.452492595528543 1.5966815201757802 4.769201610725797 1.159296788577055 -0.34274193535648073 0.811441443253409
Ni 1.7869583238151825 4.805184243452468 10.602527971523585 0.24721748249490974 -0.7029699433128668 -0.801904193186935
Ni 7.41093542520726 8.711138484255915 5.700088755668721 -0.4246395414632364 -0.04276155933724248 -0.6621361971259565
Ni 2.1002555454561747 1.4718421014530563 9.611363806786704 2.8803024848002394 0.13761135472929203 0.11126808884907288
Ni 3.1410224606270436 5.2001406051591195 2.0975718197768405 1.0621376283255386 -0.29293195381288906 0.3368597655440908
Ni 1.355482024553463 6.216579551710931 13.343718215690455 1.6646121479248044 0.7266608591719034 2.0740137893923634
Ni 0.7412614502795999 4.322831893251966 2.432447054074891 0.006630360832324065 -3.478957373543099 0.11289045494384428
Ni 8.423521821513798 6.860337899233355 6.748184844514435 1.4633819307932863 -0.12983428188703447 -0.9688222673001445
Ni 7.071136762290675 4.271153616354118 12.883005444325264 0.27177897388435773 1.2524532554270817 1.2201008072383053
Ni 9.082373210917218 7.632116584688282 0.8828524664126404 -3.7506340175216373 0.5297105003626619 0.1489884862179821
Ni 1.1244596047606679 8.63820121944287 2.3892499846419395 1.2178423502214315 2.3445799739155424 -1.3895976978222842
Ni 7.355563177614188 6.726534071828532 9.810557445243193 0.1196776530690068 1.0787076168690777 0.4911274978831412
Ni 5.554668509812474 0.6860459165948097 7.491769951612673 0.0027608505745887937 -0.9747959683850761 -0.4252121261372548
P 2.6188013459028228 0.6978237130589292 1.4101136123657252 -0.5592319068605466 0.23655820300885066 0.9559050450178441
P 1.223086756681415 8.753945634559924 10.373789097251473 -0.4610885283188898 0.9886958662956199 -0.7406995966531565
P 2.257986228500525 6.763184604307168 6.40147304603666 -0.2814000419138895 -0.5951486753618137 -0.39418431029717277
P 7.9399381477482205 2.154993474849057 10.516119840344441 -0.2756975922124736 -0.8542536533229287 -0.8226259991153186
P 3.1837829698869236 0.27221112586543855 8.04138988130158 1.4469322698776952 -1.022315354122278 0.3569791620017852
P 8.452709786931372 0.6565669110618537 1.274737981773666 0.6719279864053975 -0.055669782758478316 -1.4746271646898024
P 5.438457684254102 8.078881818216349 9.348847488354465 -3.8532842827947125 -1.3866167608170894 0.7866115286939227
P 6.039147691625379 0.8621634320567314 3.3631159189312796 -0.788385846985526 -0.9260609650732181 -0.7803948583602495
Ni 2.862603411787685 -0.1025953719554663 12.097097320961101 -0.7425492482673857 1.1136093138422691 0.36095974391608804
Ni 5.872051486919397 2.783770718996402 9.139045810820681 2.9010029505723844 3.4773265228078953 -1.280754159254304
Ni 8.211127834747176 5.275120747705129 1.2381760672788804 -0.38652370842812145 -0.481689492398693 -0.038650108272030206
Ni 0.003888930259695401 1.9297545445285842 6.54384390042758 0.07339548217301553 -0.5051281830376075 -1.1981628695146334
Ni 2.6870185370497466 4.333298143555103 6.707581949956085 2.835859423995516 0.9315219881877893 -2.102690588501766
Ni 8.543781089702795 5.509249461037093 3.8948098297186347 0.41282737931965674 0.31063914128466497 1.1627086424720814
Ni 7.423631117419891 9.08214000569656 13.0800694527067 0.46612557652216496 1.364538183750495 1.0610785909334048
Ni 3.5307363689733005 0.6412070824084248 3.6970760559434668 0.9055458758390018 -1.8333832160863521 -1.3788952238031158
Ni 4.738720755564893 8.375696094861224 11.244536347070191 0.9513716759238648 -0.5876220279674654 1.2050837650041826
Ni 6.638373170210922 8.185391306595342 1.7042077833168423 -0.9307586276592034 0.6526992200827726 -1.6070832004704
Ni 3.639036873446948 1.8639347030500262 -0.009949467534159546 -1.0485632320752134 1.883718988226427 -3.113918831571947
Ni 5.365762952870543 4.640448075579547 6.509534748364353 -1.1961815774185462 1.8265296834996285 0.5206555892492453
Ni 2.475781248177589 2.405577148550658 4.4327694983746335 -1.042097936065844 2.1803818698366575 1.2682187457914544
Ni 5.4062660355944505 6.277632678479236 0.35819015943856997 -0.13786975059700127 -0.1814358081134101 0.9467529462049309
Ni 1.4643888626008217 3.5063151182659786 8.33683570971163 0.05454929600078992 -1.8196527538741372 1.1281540444256635
Ni 0.7374760631378767 9.043455923693786 13.094200756257704 0.23915090343669135 1.8437751008436376 -0.5407153361135979
Ni 1.8832161106940426 7.010839220437302 11.350454427009595 0.5124733105487691 0.048507203571768076 0.25037968227297525
Ni 2.611842502118384 7.391364843089629 9.23684088651412 1.7745800299052148 0.5407053088112689 -1.275869834578809
Ni 0.22632006972344412 0.9606562577703794 8.862386062165967 -2.018042930453699 -1.1337451653601958 0.3185787078467159
Ni 4.950387142043062 2.7672597893738047 2.7969076354865177 0.265920972441684 -1.2378966977691455 -1.4939389776445369
Ni 8.012213109734596 2.611879814953689 8.296942691844965 0.23110283632123427 0.897560286530364 0.23131392389077582
Ni 1.7509794223720423 5.397674755265404 4.375851566579038 -0.4490771056803105 0.49977874580023596 0.7519389170124018
Ni 5.975846466529929 2.7714761397633043 11.439921277862888 1.0845710176283903 -0.8274902691861554 1.4783184974984604
Ni 7.189110619317223 5.276342743061379 7.915375108266738 0.8918228698259543 -1.2985904161047763 -0.20663313331464414
P 8.194915407807022 0.04051427657450004 7.570847043475205 -0.5960120518033736 -0.7746579558764723 -1.092592088160654
P 6.787214070243785 6.0236255521383715 5.303953308366421 0.022719810195018935 0.5572341597042274 -0.010232476361285603
P 6.088764434372608 2.744331052078695 6.9481433960946815 1.933178014188503 -0.9914641730693763 -0.4927712041341514
P 3.3863263681329445 4.733935384436988 8.799214499173203 -0.08938645828463315 0.33662913759052343 -0.004463435087992313
P 0.20335215395126371 3.1685779895000117 4.6295340712527455 0.09569877365590615 0.0726496051459265 -0.5191604927609574
P 3.5249622077098044 6.944217152999681 12.933370309420365 0.6439433282670136 -0.6988785468523125 -2.329840096602207
P 1.9051747142712145 4.074132517733282 0.5241016816236082 0.5846549749193414 -0.06949434734639644 0.36324853995026474
P 2.296763592591563 2.1482305234499703 11.569417338431714 0.7374546073532977 0.5950522589932655 1.4386517750364578
Ni 8.154309714786024 9.024099890379158 3.09978058376409 -0.17303729963706976 0.4910619347525285 2.092139809569113
Ni 6.599856995967023 6.2364299800933525 2.8072022467472513 -0.5723666444702917 -1.1461785060275422 0.9044220466472037
Ni 4.060737209858678 4.3717396921283935 13.312058274933904 -0.600587844099514 -1.1262280310475443 1.239987004639271
Ni 1.113368364466166 8.575310435535778 6.862827598169102 -1.0561940091475939 0.06047620300818617 0.8740238939713206
Ni 4.104589119551237 2.6486422859382404 7.6156821463780595 -1.5030759069487984 0.18422056994739885 0.7317899528683526
Ni 2.968833053901888 7.30591845024048 3.4498654625534653 -0.5683472388982534 0.5837005814258722 0.8914351474692325
Ni 3.2789586845419296 8.724207304821597 5.856044280573421 0.42271841318112363 -0.05042164698566155 0.03937695913572573
Ni 2.780953599930852 2.6981750748060325 2.0939263557675125 -0.7182327830092082 0.8510773124774762 -0.5203717394602392
Ni 2.9953624798039598 8.00362182940555 0.9710553449699679 -0.028886086906730897 -0.7003245352702197 0.6394536679267762
Ni 0.6311092963539267 1.7868930263533982 2.6116801912848056 -0.7398231075854742 -0.019951760531578544 -0.24305152404267819
Ni 6.636470215610352 7.646537995533781 7.920194060946418 1.2464250469551308 1.0260797062607168 -3.904299340389998
Ni 8.273374972245252 8.691399994379408 10.829614820012553 3.388271479720752 -0.4234048977251869 1.238195717066803
Ni 4.701697094733205 1.2838320525584512 9.83576039985016 -3.9313681715823323 -3.8482477488120694 1.3554657891355817
Ni 0.3305991833720623 4.447130275862762 12.681504007005143 -0.3438076576168337 -2.038657521380257 1.1538249668292062
Ni 5.145458645019196 1.9678043083311687 5.054462900739266 -1.3664698535555693 -0.4766961529491597 1.3227017073306835
Ni 0.7694718194121757 0.3029363800975919 4.49005682723975 0.46090058067779976 0.18671274024163328 2.149179218981608
Ni 4.8560136533471185 0.406514945263353 1.023158055369413 1.0502408768879528 -1.2858020060908564 1.5530954334000349
Ni 6.675340861789654 0.2613736128510128 9.786446823889788 1.346026755209869 2.437935444150253 -0.9671405087223474
Ni 0.5798787734797431 4.887785532609586 6.489451114761273 -1.577177156939587 0.6064106214288782 0.17188467408986527
Ni 1.0654866685606335 6.356148212170424 1.9611663549303548 1.123052204422724 0.5674460672402227 1.8969586268451524
Ni 7.7486259129290955 3.1936428866163498 3.125147714846402 0.08473893221029277 0.8784752448744548 -1.276429563737021
Ni 6.842287815154414 7.057116464424706 12.217542220505742 -0.01823169251667828 -1.6111673978421026 -0.41791456403457705
Ni 5.185877773863667 7.658431461787347 4.697442498687518 0.878275727269139 -0.32652110262224415 -0.3339770446796571
Ni 6.054399313056423 2.4732253189591757 0.4274838258840517 -0.31886435740793473 0.10050390835403336 0.13559175319610198
P 9.083362001052809 4.542875011256174 8.72285471454178 -0.6733824594637371 1.6088297508478615 0.6080882662416173
P 4.696053528393278 7.200407080205904 2.3226512377263835 0.5549885582031603 0.5571184600619695 0.052031157564626514
P 5.626831533292934 0.8213497199789064 12.540758126591768 -1.2876400877408596 -0.22234797294673966 -0.1950575126619028
P 3.6501840829944077 4.565495917660016 4.577353003899159 0.14323975665966296 -1.1514302413447846 -0.05884946603804058
P 6.502199977764213 4.971674114584738 11.011783544540112 -1.2647138179619895 0.20402809159162927 -0.708461048334425
P 6.01319661467054 4.322169590425296 1.7297250985612578 0.852832604605686 0.2785450889635977 -0.6332331409383611
P 0.3213707863801778 7.535420371994584 3.9131313646744217 -0.3565199629771795 -1.6667106823250457 1.2831224023761645
P 9.026068142441513 7.275480504840177 12.461148394005251 -1.1390989734729413 -0.7255527137093891 -1.3208330295530606
