# total energy = -340887.7290243117 ev
CRYSTAL
PRIMVEC
9.11104767243136 0.00000000000000 0.00000000000000

0.00000000000000 9.11104767243136 0.00000000000000

0.00000000000000 0.00000000000000 13.33493922742109

PRIMCOORD
 96 1
Ni 6.930145345497865 1.8635281473426746 11.244980840143556 0.26526971201093025 -1.1557424955668936 0.9506011163064274
Ni 4.746773867612914 0.826734648760578 6.002842951899639 -0.04286697456685521 -1.2437287310698903 0.1827288158932208
Ni 3.1344099730279367 2.038560485273103 4.845984066338875 -1.031412688437856 -0.08415529179268087 -0.7009318298369155
Ni 3.5810426437732135 4.652602078281338 4.683323620120264 -0.3771422672132214 0.25656627069966137 -0.4973616517183112
Ni 3.888540504642088 2.9064880030280618 2.5216637689745878 0.5226813614300224 0.3472303101451375 0.44599769542403833
Ni 5.3077319652673065 5.013436012558403 2.946141104956166 -0.1565840391770529 -0.04190409643295364 -0.9117028965793331
Ni 5.331247579457012 2.8474210805980498 0.44712831174175904 -0.9683268157209647 -0.6551253130257622 -0.8866513529273441
Ni 5.94873972827263 8.109989582270481 12.283426171679002 -0.8815538837997786 0.5430727806021809 0.9375023741409403
Ni 1.7939926310715264 6.808312415259685 0.012727222573266101 2.1316301543542515 -1.161442374165148 1.5150125104853844
Ni 1.0625850524946183 0.05756633286897216 0.12074051561541965 -1.1227125616951181 0.697915668718411 -1.0814908360411697
Ni 8.220151260367238 0.03777349278151903 6.8169278219926515 -0.9133538019191949 0.6392603209690475 -0.6187362328737667
Ni 8.858334598576434 2.2731152980200156 1.3115088986156438 0.37186893462942405 0.7339476226413036 -0.6311929705798807
Ni 6.978197011222974 0.8852558194315964 4.708553933492652 0.8132080482355285 0.18436789415854055 -0.03591831116316395
Ni 1.0634961572675632 7.793818003963172 2.165941132473744 0.5164888594660653 -0.8147291128657452 0.8843072781751997
Ni 7.820814038385527 4.295567450907454 3.7145805370294163 -0.037551218780896616 0.09107824416475926 -0.5349097851754142
Ni 7.8128145384790715 3.9483909771768326 12.716104361721857 -0.8866115008283441 -0.024630396954170485 0.19147982261297347
Ni 8.369800219323425 7.801125064242189 8.821382011195338 0.8118769881289307 -0.6463177420364611 -0.10718183459484121
Ni 6.947000783797344 0.9868995790060927 0.12301918865255464 -0.3088830778255068 -0.45042179263366294 1.1981572130876785
Ni 2.209583962202574 6.540593388777581 8.93764991348037 -0.3019105031624155 0.5498118990982273 -0.09494724020186228
Ni 0.12624358844400632 4.82907396175302 1.274721221198451 0.17133085846892426 -0.24353514854731603 0.1237047719505289
Ni 6.440936748712878 2.3097143767492088 6.9056584936202015 1.2256867859665148 -0.5339821311548224 0.46273609122464177
Ni 3.8203807565780865 4.691296697988304 0.6118733656808674 -0.30345547905203224 0.49133112925351513 -0.6365411222656715
Ni 5.947327515874566 5.737208533138032 5.104854443266139 0.2243367212419943 0.1107798363587447 0.09704963125684578
Ni 5.798070331970746 2.821081041612215 9.561164464845156 -1.7065648382075063 0.8434380507646635 -0.9734808491180783
P 0.09660899459920332 5.712326261788911 12.547777754920302 0.11445034323179645 -0.8088613412310586 0.2535053723861505
P 4.199828561366413 6.603496062301691 12.562579563061565 -0.06923620858900335 -1.2393951366915428 -0.4130328104622435
P 2.7029836409431085 -0.22504379002214192 1.3004070869573114 2.3194867783923407 0.13555678619310846 0.9671772754975535
P 6.69051567916565 7.9857240022885385 5.458884247098851 -0.7686917109907084 -0.4890125084226675 1.863918922781364
P 4.770489924852668 1.3561521213851668 12.365622399874992 0.8740812295718173 -1.5534589873870408 -1.003202544552227
P 4.213358467244643 5.947628180449637 7.845945041337664 -1.3450227394253869 2.058939411557744 -0.18925478993719663
P 5.115671079130539 1.3624296332707566 3.7683074743851988 -1.148059525100339 -0.10412633559796905 -0.10006373549282122
P 0.3568915839245318 5.963663624453467 3.3008378374826735 -0.897172564173642 -0.5609920840847629 0.30361565877898034
Ni 0.996420623883366 0.418750131378847 4.343216408322922 0.16118399984290951 -1.1100532210598948 1.621529200692401
Ni 1.840704972780407 7.1626775056488405 4.5290517155461565 0.6443243657555161 -0.9330101426975416 -0.49367777510882077
Ni 6.878349039155953 5.847224434471119 9.121965497942334 0.15555919745696434 0.9102257978131744 2.1599853084581766
Ni 9.142936396501206 2.4028110624487096 9.84213186583065 0.09562035500948693 -0.3131433957637575 -0.2799707656665308
Ni 2.3756236960240367 5.763074797641936 6.533026663638275 0.5465437698699168 -0.35086713556677634 1.085560121014537
Ni 1.1779491388448906 0.16150334315697062 8.494316353117927 -0.3818003348105231 -0.4673486502959887 0.7927448952851701
Ni 1.6767516688889879 1.2725491474197506 11.191214725282537 0.2965024447729668 -0.15201287486660273 0.6871021230426748
Ni 4.186644875301901 7.086263148341959 1.4505881311008966 -0.48167226600751234 1.1031906896121066 0.6329534049144131
Ni 5.9117124303001525 7.465237178648355 7.819942111117819 0.006920638379233243 1.0366469402536018 -0.9798116764321125
Ni 5.449973642419451 3.2351599388201735 4.8561046181567455 0.34075164439932926 -0.14328166564119196 -0.27299587701059436
Ni 0.8306031996265018 7.677242148264884 6.598927782970145 -0.24626848831807907 -1.0428826367506685 0.8456597410063307
Ni 5.699179019915316 4.561701155084633 7.5807397529241145 0.236242985761277 -0.5486952689952809 -1.4218290470521642
Ni 0.8775123399663384 7.443625773434103 11.423895395511503 0.24501481841663608 -1.0082820159576638 -1.0506648517992487
Ni 4.907219418128496 0.2830556531250841 10.254301998539288 -0.009621325139847946 0.5115932219366608 0.7828608034022388
Ni 8.38671032390928 7.725749366376466 4.152460224221013 0.5154614466428155 -0.3239710825068808 0.280864995346026
Ni 7.635723103761788 6.381013387796297 6.730330957743338 1.2987505958317247 -0.8949141071567684 0.011498744668218907
Ni 2.2683593311052435 5.463257550008986 2.429786141461287 1.1044669852213689 0.61548378737474 0.10152463630906387
Ni 2.7715807192981234 5.701702780136374 11.133100818445024 -0.062190871706447735 -0.48401582653902453 0.805567243860819
Ni 1.2713282670240047 3.508801146326419 3.540173216973228 -0.632821250211923 0.6229135041799078 0.688100482400202
Ni 1.7882435599542448 1.5097826081991212 2.5103423810659753 0.8625025235952823 -0.9612326278783447 -1.4269738244778973
Ni 1.530009134158496 4.134529682289458 8.428041680829148 0.17813039788926097 -0.6608604157373263 -0.48382325091224426
Ni 3.7613867225299096 3.1183471958809195 7.031940348464671 -0.04376968888678268 0.6853213769931681 -0.2300918785582166
Ni 4.311229341954376 7.43577205029132 5.78102993940236 -0.36275308837108494 0.5344870958156989 1.0344134229373927
Ni 8.48410742413708 7.451488607624618 0.22471123678001706 -0.828405067690941 0.5235231406050274 -0.3916995962021061
P 0.1079941598419217 5.792275705614817 8.31940154770321 -0.020435642146532547 1.0525121894206324 -1.275937197481635
P 8.651085595874678 1.9555679515055597 7.72382329088646 -0.5744422960523978 -0.7298019759040463 1.1588401606556107
P 1.857906630893605 3.6459224146546134 10.708023064418077 1.7788799428321493 -1.2997340427909163 -1.4020968587305596
P 4.045077415681736 6.633489631427034 3.81511274878092 -0.9647984908527318 -0.9818739582777799 -0.9833585132431065
P 7.443643995529563 3.7953709305607513 10.522040158221625 -1.1724268982011097 1.2257716323708374 0.4105552954560284
P 6.834998674059238 8.013776918247508 10.31714909467225 -0.9345175804810035 0.27150335162546785 -1.3184097648235487
P 2.4393008086051498 8.984322166579243 6.01016367875025 1.1783409496926998 0.3292737256667168 0.05693193730035357
P 6.562396125994151 4.101028359788278 1.4179040695810474 2.479720498506839 1.8623592916037282 0.7228594831479421
Ni 2.887710133657669 1.8832262325337414 0.19765598054742084 0.9478518356960643 -1.4021012296059336 -0.25376119715069845
Ni 1.5892673885908268 1.7898015491159804 7.040368067614411 0.8663676629776433 1.0351341031535013 -1.3001562179299995
Ni 6.831372477062918 0.704449810555017 8.860493916888313 0.8602528083291571 -0.1095495634960694 -0.14882702093945335
Ni 3.260133320646591 2.0642627509178757 9.490529245113061 -1.2736031500318197 -0.9375301420550822 -1.2222898444698238
Ni 6.804677107215635 2.336509968121516 2.6051938545581685 -0.5984890525889563 -0.7002463737341166 -0.04774435726381455
Ni 4.7084528008628554 6.9151758940783825 9.906113287405926 -0.19039815951302047 -0.5403695227384049 0.905724310398395
Ni 7.299771440833847 6.29843085117658 11.561272684280894 1.063220319866756 -0.7684741956632637 -0.1718669334780524
Ni 7.810163223589802 3.979568982507004 8.390823961959127 2.0126407856015205 -1.4745957972312345 -1.2869417761222544
Ni 3.386603774179061 8.584164950301881 12.084521977592647 -0.542009372334673 0.30682208153142 0.5106953927127398
Ni 0.21110570920563218 4.898582144880979 10.403559182443107 -0.7035181025068529 1.4320988044092884 0.6210240004666788
Ni 8.799012566809997 2.670047203401153 5.638572330419027 1.1688612923370385 -0.8814070738092691 -0.6047514885589005
Ni 3.8116705949487337 3.135393966182717 11.459380193103385 -0.009045655142036034 0.020715378170480452 1.3495684498145402
Ni 1.0285735113205885 3.1905066938981483 12.663965479985317 0.2062533813777222 0.9586828648732973 0.17677311253041814
Ni 3.852606532397145 8.471488623031794 8.254434310763607 -1.7920079955736752 1.1109736759916349 -0.7366812195223829
Ni 5.897936526133227 7.791831795558153 3.3908212781730223 -0.4153192925035751 0.6162661740667194 0.17741588832073962
Ni 3.48022890064687 8.771998310292183 3.671629235823252 -0.024818344595260482 0.8350318289788393 -0.4031690302942863
Ni 3.919244735490328 4.308168029917281 9.277130285193929 -0.16394896418255633 1.3349028773825657 0.26093843162542807
Ni 5.325717173485237 4.902089898256817 11.370702365552665 0.47091862703543413 -0.10858514270027106 0.0037502110710516054
Ni 8.406171521859381 0.028310758609714194 2.0696227802971103 -1.20609806520131 0.7391055126931594 0.5755237020420346
Ni 4.968928544400049 0.6373934103710516 1.7329021449408037 -0.6585785616816852 -0.8007366552413951 -0.7558865888062402
Ni 6.008499090330081 5.908168232733398 0.3519597737885815 0.19727586046946027 0.1361147155791075 -0.9262463416111468
Ni 8.667740591124108 9.091960084454943 10.975081539939795 -1.2319132264922008 1.1052514287958772 -0.8194224045763566
Ni 0.309488624797759 5.106396032541961 5.453577061796448 -0.49546212070275314 0.8031725183763974 -0.26006142833711343
Ni 7.400348296719225 6.335193928764903 2.1775285629760566 1.339188649242113 -0.8495624184948465 1.3230115252616184
P 8.78971018707823 1.8159502560994965 3.526997730851673 -1.0111629370498842 0.6742152397776776 -0.6633250752277351
P 2.0925616651655417 3.4805660094128594 1.331781890918439 -0.8190254262482539 0.7660720139796742 0.790279207353497
P 4.77788809560898 1.4875243185960794 8.109483008016724 0.28143012382087657 -1.288796055722174 0.15909729251720986
P 8.803531646483803 1.4903851875831262 12.464621222293628 -0.24733755301254176 0.637591932127689 0.17106526351236345
P 6.597382549275231 8.088952173063186 1.268386309712166 -0.7146561214015434 0.7911965769614439 -0.6149837078098699
P 1.931195898829286 3.7083604247445217 5.757093394807553 0.10355400803426681 -0.7805789493465977 0.685111060754575
P 7.281749788424999 4.060730195680929 5.864532691842752 -1.3870538483545078 2.3891919561979624 0.13945714968877918
P 2.2192598948912474 8.489810940015715 10.148048959918464 1.462351946866875 0.1994337873527275 -0.46242524485244235
