# total energy = -340888.2133605495 ev
CRYSTAL
PRIMVEC
9.09127865455244 0.00000000000000 0.00000000000000

0.00000000000000 9.09127865455244 0.00000000000000

0.00000000000000 0.00000000000000 13.30600527146969

PRIMCOORD
 96 1
Ni 6.381732197971885 1.9162597301399702 11.00667478595934 1.1893954077346485 1.3624553330795375 1.1268522948951045
Ni 4.639943197887499 0.4504501327408207 6.1181678455166475 -0.20218821016941307 -0.25600936975492683 -0.956388926632798
Ni 2.6591535713411645 1.7132423848806684 4.685005030027227 0.6429688801688862 -0.12157178476792611 0.6423153057452873
Ni 3.3940379959836084 4.474018269835574 4.722048354329477 -0.5789535536591901 -0.7303575912972002 0.28829856880593574
Ni 3.7611438309919203 3.070243012832146 2.624463069973539 -0.4804137110100629 -0.7874057424604439 0.0909075229148499
Ni 5.020913232954942 5.054860067722673 2.0268642271362833 0.6440464295037812 -0.19933479988101802 1.2964648851213414
Ni 5.332407715988368 4.725264848743196 11.659280410736114 0.22989107540132023 0.6124401154524097 -0.5189810297602997
Ni 5.722441755946927 8.019398782792521 12.594759354857036 0.14144718353561445 0.07697728598700292 -0.5753894904570156
Ni 2.1423507408091558 6.624632983007845 0.2138977876401328 0.049607378614482306 0.10790765701727222 -0.3036951058666641
Ni 2.8866082738194447 1.7180153062124999 0.14836239580652907 0.15196119569306088 -0.6511365035813431 0.4220301288648473
Ni 7.887293411606146 9.056650046626185 6.785530433923573 2.1546055322035023 1.1167589152148445 1.005648177879242
Ni 8.73013677113526 2.531812030207895 1.2045517023570282 0.20031413307515178 0.3573581426077588 -0.32196767892360684
Ni 6.980256532983578 0.8351275912732552 4.699481073144704 -0.6771699515306273 0.5383375799100406 -1.1323056047001918
Ni 1.0119320525781375 7.397128027745123 2.202130444080507 -1.0589324911246796 0.3200817747548036 0.8455412131505953
Ni 7.4092376110098845 3.7295880025294674 3.888706290198263 1.6670593239137161 0.7015702347518628 0.31981797957045566
Ni 7.586572093864568 3.971097821920151 12.24965532349666 1.518542892236146 -1.5940770180187191 0.7745399422413692
Ni 8.371676742196609 7.361081107591384 9.214222816911338 -0.2449675101184684 -1.1955220894576766 -0.11866849507820207
Ni 6.923172393854872 0.9389472669553853 0.3321507774297221 0.7537114355317923 -0.4462481208719476 -0.8784274223556549
Ni 1.8822128913062375 6.61415073863527 9.137180593592594 0.667054203252864 -0.15749266703425135 0.1394715478664824
Ni 0.36329658922157393 4.990221075971582 1.1429273786319083 -0.6496120965170167 0.03215755856915107 0.15558259449573203
Ni 6.309083789662043 1.966479953829567 7.028298486290115 1.2161045415947185 1.3184750708438455 -0.9005203975999523
Ni 3.754643566701902 4.172178724810538 0.35975553615729117 -1.3527612457202252 0.4558409067667053 -0.7188187374196652
Ni 6.242508355542036 5.942332514524096 4.995327647232705 0.567036747616946 -0.001251098798281716 -1.9226855992976115
Ni 5.379964195010866 3.196129949369048 9.003521522871726 -0.8696195942560379 -0.919182749896146 -0.9468781589288853
P 0.4110821684680001 5.488632249638265 12.293231640692346 0.2961275779320513 0.5350841059697494 -0.09003874715665139
P 4.145077622924462 6.1935245457593515 12.84585683679353 1.1399343248900433 0.5216979144708306 0.1915214744841863
P 2.402524955426983 8.689307838370963 1.1600989858920294 1.2662176562010259 0.3513685006832271 0.30863676614265556
P 6.485854613235634 8.029135542309458 5.636024606004592 -1.5207815517586776 0.07683716086471283 -0.8611241551905169
P 4.9062994820398895 0.9736032214638471 12.641463981062788 -0.11240348800509674 0.7548612328655193 -0.6763009186621126
P 4.072547401238075 6.361876845231465 8.152922393460354 -0.11647020187530265 -0.4225410070629949 -1.070368243765447
P 4.653652846208265 1.1285913412068314 3.842654417805133 0.7995133243572554 0.8073528750063322 0.06979953729164108
P 0.2944783366395427 5.568026386763762 3.3586356474916355 -0.32922436048602005 0.8752914478298345 0.5890906420931918
Ni 0.6960219354668613 -0.04168714947615438 4.756297928678829 0.009206349089616402 1.652871462449108 -0.46363880554456927
Ni 1.7665445520588192 6.607668656902706 4.727237656227018 0.4316753652640952 -0.061727816027100146 -0.6729217177772346
Ni 6.059773653123337 5.697877120825766 8.797092220706068 -0.09026834666895421 0.145085294508834 0.8508762522102638
Ni 8.80131239229128 2.299748049414874 10.179253871663217 -0.051657576275291675 1.703109532669054 -0.4298403689378855
Ni 2.214035473573904 5.245649643093759 6.828415813935985 0.576144366345169 0.41169069461205227 0.5052068587943428
Ni 0.8738664390581465 8.820804093882607 8.760713468878782 0.2902649485036872 1.3874045468257075 0.24782683394413446
Ni 1.4257579689660362 0.844537064756009 11.162328387305164 -0.6552901207384004 1.7013028184776182 -0.32484602891266634
Ni 4.642652398948234 7.351662542829903 1.4718171143821484 -1.1078135330960985 -0.06771642951036724 -0.7126997690061209
Ni 5.950851042691574 8.052536493753523 7.941210149226262 -1.718419423553247 0.09812795192268907 0.0038016331342773236
Ni 5.388882739442346 2.9702934945042268 4.887455079493946 -0.9058364104962271 -0.5704468017397596 -0.15575794373133175
Ni 0.6973156244297558 7.348562416783895 6.803626624230261 1.4711548898704856 1.6419864401054882 -0.5795019699634922
Ni 4.943073704491812 4.947846625823643 6.526236255086547 -0.6822437665091088 -1.1752394279492404 2.0599822509999615
Ni 0.8061200482380639 7.410928588853162 11.417191476890503 0.6786655622395474 0.4849496512072035 -1.0897463911817427
Ni 4.861288561061034 0.2924455267161188 10.501378786912476 -0.4993182612240497 -0.9437552970291876 -1.5048900773394018
Ni 8.360912668183488 7.380627356855076 4.479919418857464 -0.848335745176597 -1.042572304599101 -0.5719663237080795
Ni 7.610554887147181 6.689335613710028 6.810373262173789 -0.5086341393083369 -2.1083331314995237 1.2177199657109543
Ni 2.5434034105852 5.522097246633451 2.4975770019045065 0.47173238118598115 -0.42330488181221293 -0.03589697100692527
Ni 2.7211560922613396 5.383000682105784 11.300537643029045 -1.659675115634503 -0.2841907172851493 1.0935716784651037
Ni 1.2987073487520402 3.5753999153144855 3.5887895506240506 -0.9771690966029428 -0.08493562160213114 -0.5170035943189547
Ni 1.6481761030293933 1.1554560698459984 2.5983565539802282 -0.20237512936923857 0.5314346821426202 -0.9501524588047829
Ni 1.197757789764118 3.414075174298574 8.072793681013689 -0.35229564048318684 0.056145951063948464 0.9483992235591021
Ni 3.6257565081849914 2.8299696073483753 6.972359848281047 0.050705753884983634 0.2537848512997823 -0.22641340126536494
Ni 4.049346457926009 7.058432438759618 5.885512022478479 0.6464591527103318 0.006165762491079704 -0.40328755815002154
Ni 0.6211634372984131 0.17389343385640135 -0.022417275085772556 0.9742686351266964 0.8811581910232567 0.4322260955612427
P 0.15601634336704165 5.705713803088698 7.956978063050889 0.8524873054511255 -0.9654888320515372 0.5609725437007371
P 8.909489517867405 1.5900737406832286 8.157459850673147 -0.6250128099110978 -0.23076499336584128 -0.97051276762869
P 2.195998376578944 3.3568455747102304 10.261112654451686 -1.6718243494025273 -1.224690997712149 -0.26826581852477666
P 4.313657204364757 6.180114909636586 3.9119526899039654 -0.2920171553081035 0.5103652630668307 -2.1663719287108107
P 6.959828429683339 3.949633312844999 10.099005154337354 0.718780170872246 0.6955299420950537 1.5415709777002031
P 6.48791833350673 7.575989845425992 10.06788207074232 -1.2851420039093544 0.6193710382442881 1.2776698639020254
P 2.498865236100165 8.56520279246461 5.722686311344692 -0.4146960570972793 0.7539032398276242 -0.7132808383205715
P 7.045531914245582 4.207734715913003 1.3510249304440247 0.22620719879182977 -0.7405689846125633 0.3137997984008338
Ni 5.639729302085966 2.8737532056990442 -0.040037991515022436 -0.24507292534808114 0.7768279669445977 0.4432335024153399
Ni 1.5960921672007002 1.2123947485150686 6.946240604497519 0.042159406976869325 0.21056794959267608 -1.169297608543509
Ni 7.194592520258367 0.6100493490542906 9.185548014677567 -0.4023329075462362 0.3848329509892598 -1.1791680735796854
Ni 2.9127820652753367 1.5224982659032191 8.969698329494683 0.5305641066122089 0.14135205271864687 0.8797266007830525
Ni 6.44090733120787 2.3343676388084265 2.304986444217543 -0.15541084480455816 -0.297208726811372 0.5794598038716472
Ni 4.356986238779061 6.861669893264698 10.725930644093129 0.8728789817335999 0.9716533089910362 -1.2210729413435875
Ni 8.488954237778758 7.409955822029341 -0.006706636317128077 -1.1556018562239712 -0.8909327539115172 1.5249703930290448
Ni 7.732778038356981 4.034473125928149 8.054657489080602 0.8424733728585491 -0.5891806307038369 -0.14751627254782979
Ni 3.1778928442420873 8.78525719405887 12.146999331491624 0.2831576480349446 -1.477419639833275 1.3047250682476048
Ni 0.1174911406322417 4.922072850631753 10.023213890971483 0.21911686760395166 -0.4825749803274399 0.48739811274769607
Ni 8.412851143552544 2.332003906339329 5.977709407435631 1.412166584261736 0.6866375247014304 -0.11801569198555159
Ni 4.104339602947437 2.8992451512503896 11.147053220787557 -0.9581498751879628 -1.2293495795300826 0.34737532036343405
Ni 1.6382757004953652 3.5114609520253954 12.402873371271438 -1.8028698779888435 -0.010664164582065505 -1.1294036005620485
Ni 3.1476825250312745 8.251344576962087 7.73068249861034 -0.024442706423396618 1.0148897510821684 1.5986281277245113
Ni 5.7513065659061 8.018735119445427 3.443288180233002 0.8233801036725239 0.22252383640297163 0.928432293518872
Ni 3.3463360565014733 8.40010517077687 3.5130910183012 -0.9043734527974554 -0.2562538816655651 0.22945630185674679
Ni 3.462358955619256 4.626769935011644 9.23717556831415 1.2013016722539311 0.015700441454392314 -1.4614314919351346
Ni 7.516178322679096 6.139731449529926 11.506754209272483 -0.19257331278746834 1.2487994607245783 -2.2514638733851484
Ni 8.492763483565497 9.291105033724484 2.0769080800185704 0.22258991375421663 -0.17091382553616372 1.0983372181745472
Ni 4.676935611028876 0.7846828129990941 1.7394543597072152 -0.4527964635134266 -0.8249870431483275 -0.930764026975842
Ni 6.46954485919886 5.959415027252689 0.22733742498269813 -0.4775466738749131 -0.2706111788285017 0.914044143118
Ni 7.790053094338963 9.005211591587129 11.311288989251949 0.8631800092782812 -0.7177288467895961 0.9938195606754305
Ni 9.079396426001885 4.98218438557665 5.71188223570517 -0.6385617522401261 -0.4842299994323596 -0.4212847660583906
Ni 7.2447127398819635 6.004680504035908 2.6366781120715372 0.879181269802544 0.46499943333752175 -0.20644981365924445
P 8.665434140433076 1.821274049997156 3.5379474834695066 0.15009971700428987 0.03262935599924703 0.23415833531810643
P 1.83721106160611 3.3615912222058797 1.2123420190984502 1.0867232880847026 -0.5681088976352022 2.338602159065553
P 5.013612936136921 1.0431878688425895 8.24345607441041 -1.679668013816662 -0.36282225104612353 1.5219321204233531
P 8.77593863336339 1.8387111225961146 12.249295308859057 -1.0411643685079812 -0.2691384509377171 1.038522817120076
P 6.827886701514056 8.187660169477361 1.4723225894793863 -1.3053938121798552 -1.9767343015128989 -0.5439279295136246
P 1.5181889997864797 3.374655389737008 5.792796434633871 1.5063180680351798 -0.9604443276490943 0.6154110251552757
P 6.893434821137879 4.070329129228614 6.084796488692353 -0.07890201381354153 -0.01516745176905775 -0.7040217816161489
P 2.636125362324917 8.65660650878887 10.025303066823017 0.6277996286276156 -1.3683179625079014 -0.16500311647868354
