# total energy = -340862.24372723344 ev
CRYSTAL
PRIMVEC
9.39015095977017 0.00000000000000 0.00000000000000
0.00000000000000 9.39015095977017 0.00000000000000
0.00000000000000 0.00000000000000 13.74343510062735
PRIMCOORD
 96 1
Ni 5.197627066245086 9.075797045717309 0.1107324182475914 0.08076786337768671 0.19604995848215914 -0.014330557690059191
Ni 4.288998481791546 9.175313867448931 3.356064430139464 0.11750352823582345 -0.11283440489492826 0.21919014404404832
Ni 6.12390913483294 3.06117987994781 9.96981831106482 -0.6689416500835641 0.8324923503864372 -0.16503139861345772
Ni 1.8721989431995631 7.657067281142342 6.74088056404002 -0.7355604756543783 0.5363670864472311 0.4049703451690832
Ni 5.037158773494408 7.369982190483645 9.32856301200681 0.2539900253320529 0.4055570709104886 0.27898988981050016
Ni 6.736531985049275 7.899070256200593 5.269384723190614 1.8848860119513342 -1.8914798631187681 1.399682592862112
Ni 6.5960083733099175 2.7627045359620275 2.3676777799731425 -0.16626861345466848 -0.4924816979181905 -2.226597449160772
Ni 7.739456467203226 6.692097789877163 13.407793029557268 0.31786908337420094 0.9318328345599888 -0.24221385863273123
Ni 1.6920676739716243 1.699288700194649 2.446015115819156 -0.4633739819189568 -0.9714460780762367 0.6879827258754151
Ni 6.570927279627603 6.427013823328411 7.337221831202905 0.5476130916746956 2.087106875130896 1.3038390660982255
Ni 6.00533969644785 3.246560243660366 12.980166485872058 0.13634020132635227 -0.5822718193991456 0.7335886966399882
Ni 9.08701827632396 5.461161657856518 7.703305324347539 -0.8789940934924022 0.4770134270792623 -0.781165675088003
Ni 4.102744834023408 3.81663631908278 11.615470467974792 1.010518104377034 -0.6745836788606898 -1.1823819525312926
Ni 2.0379632811905344 4.53385606279492 8.178471386185295 -2.4105837916101778 0.580915048260935 -0.8628802186496752
Ni 0.9443862799766598 2.777146588408077 12.49172462835925 -0.09773148781521879 -1.3395933408796992 2.4441729404195325
Ni 1.8740769734266178 2.2813935592213475 8.441176827451484 -0.5053091887001621 -1.0009278895854374 -0.33182271734081564
Ni 2.0705564957810667 4.549762978818071 12.094525930412779 0.11194660297333624 2.7061809509600554 0.45731826264318015
Ni 9.315640286014448 9.27078353404125 10.231163119431505 0.4455994315443551 0.6931372734931611 -1.5847637110375932
Ni 3.8488163670233604 4.1746170508127864 0.3545148269459772 -0.8471448101922895 -0.2669810382750821 -1.4004755210770525
Ni 5.507586565069308 0.368138058213031 5.2677348736361465 -0.5169426591740323 1.7797834284830252 0.4150997202936012
Ni 0.7284484864396986 4.093091758656348 1.1410554833840412 1.1317065376636122 0.32907909315740747 -1.8827771931384478
Ni 1.2354809651701177 6.620976785178607 8.8654370019547 0.9665956919624707 1.597779920791603 1.6705876487819487
Ni 8.683063364635657 7.886966351387226 7.696722828401712 0.9595729807877345 -0.11574977876951033 -1.0704970560338272
Ni 3.165889455257237 3.691653407472299 2.7965964084545676 -0.7959397480733841 -0.9254197319447933 -0.7231554171218062
P 1.6085798402279137 7.231693434714483 11.026399055820832 -0.02434551872390001 0.011891609231263391 -0.5444714607219203
P 4.119280890172623 9.021634653969056 11.599115641742484 0.7330407945563182 0.46107824390624463 0.44293551155894684
P 0.03684789206992414 5.451320779466752 12.797433205764534 0.43181137662132735 -0.45716245379160625 0.20295491313210853
P 5.43062488636461 5.12257158822085 9.141707455550902 -1.2622111061447938 0.003809346443761181 0.7235973897552312
P 0.07259056335122667 0.855151673738162 3.647838023260002 -2.319607106020289 0.07608485607972058 -0.5155180109123637
P 4.683797996122956 2.127075815464274 3.7104524900451152 0.637983768249469 0.0029218016324852906 0.45726169837363184
P 6.438516758469121 1.50864985184634 0.6387622139315942 -0.7868390713236965 -0.15473721577630126 -0.7585687636240936
P 7.2853957090571075 7.7588189588441585 9.238708655793385 -0.3906475007885079 -0.16387491641151133 1.5040485552747127
Ni 8.819295677306195 7.1723852401440995 10.918431098067465 -0.5667405565327658 -1.5428768409958202 0.8488247689978736
Ni 8.481099994018209 7.991290930500108 2.955800786862438 1.8622163382679606 0.16932591222375354 1.3235612271175012
Ni 3.304037358759371 6.1173172487359775 1.6605233392629024 -0.6238491286202997 0.9717877776863716 1.0371948423372719
Ni 2.8211394464768302 9.379455753129761 13.44896884228544 -1.5248027571029288 -1.5842962844828714 1.3698076596795505
Ni 0.6477241741750986 6.115073002614648 2.1522498716428267 0.019360406804482786 -0.41707869839684303 1.7992592778194496
Ni 0.25944799783736144 4.555068414209501 10.449270976895829 0.8587415138909533 1.9354148739388215 -0.6196993681179844
Ni 8.034297822699656 1.6279611121711166 8.455964437459311 1.1011602894456392 0.1478703134531389 0.09610783616886673
Ni 1.5245661580206273 8.694284595242308 3.5374089068940804 0.36547100152288026 -1.0778193007268533 -0.33383511978515407
Ni 3.2489359518975904 5.4126521370916985 9.9848941987125 0.3242590460609448 -0.03415273462230892 -0.8643717155935372
Ni 5.575984425938635 2.960714652951526 5.939390786994601 -4.671973665859786 0.07215646755959186 -0.7212574287681449
Ni 9.179210780170068 3.516790013031248 6.0332444085765395 -0.2448816352728815 -0.9147257425660569 0.9357668795070722
Ni 6.767463142888863 4.174476198545757 7.6000371372373765 1.288164335675446 -1.7967503953546669 0.8050396534921233
Ni 7.484861299472573 5.390632232679485 9.824110396883677 -0.32341238178993337 0.43123107863782506 -0.4538038217320185
Ni 1.9144358430060204 6.771059570773673 13.416190641717543 -0.32192191328733594 -1.0870855565201278 -0.9156076309503779
Ni 5.330272341181949 6.2858798517652605 3.9898564370751584 0.20957550377241974 1.3025473438699955 0.11289508292953462
Ni 5.889221087509066 5.5647725854831185 11.716278435487512 -0.421057737649249 -3.1737000653956375 0.07404777104503377
Ni 3.386295082704361 7.522975922930645 4.743656453549867 -0.43704048623075054 -1.0164925767929138 0.5591000092683726
Ni 0.3099970594287622 2.2895066498022234 10.441094033287234 -2.489014007993623 -1.2611525829732926 -1.9981960709311006
Ni 7.387316409479359 2.1333859970271773 4.311631563072893 1.6561550182963864 -0.3934222353201676 0.4903636231339232
Ni 5.179654316972174 4.652547573144768 2.122687797838761 0.38187438258156814 1.1963381576010688 -1.6171950920934215
Ni 5.66464623295788 1.766127795975521 8.014497750015822 1.9604193664029592 -0.23248197605694804 1.5490719140629385
Ni 6.528126970753029 8.944278588916678 7.491464453750897 -0.9305542249578812 0.46688328062379597 0.295999022773987
Ni 6.89295312266065 6.472856541170814 2.083848254713045 -0.37959792784256563 1.8452298310122932 0.992709358330387
Ni 9.01453569971079 2.1896799530831377 0.5638184787058682 -1.6490068372873794 -1.568743167239621 0.3476000347797304
P 5.750002706777511 5.687746004750651 0.26604176196455004 -0.6273157470126615 0.037868750021315435 -1.180276990373148
P 7.192395652213365 1.9226991760050605 11.326322361111673 0.8217973325664363 0.03315077572035581 1.1504362528626317
P 7.211457659017969 2.1455838033518964 6.438057580078606 3.8375362759318365 -2.164486281652324 1.6468172858352281
P 9.200413741433515 3.5952822863709937 8.483451287862481 0.15333365056055528 -1.2322968350838648 0.741120229130343
P 2.3327952465358313 2.8540707065082325 10.520489639166193 1.7094545010504751 0.6022058393189114 0.6411086870316959
P -0.015692820577267966 6.973830494388754 4.711428515838496 -0.4581276459183529 0.7782464445586791 0.06440844818305681
P 2.321846330312103 2.6069031483255807 0.7091752012345511 0.787631742428321 0.6215508195044264 -1.7861859895752594
P 3.959075521653734 8.767837649084901 7.472154546956322 0.49392537234325257 -1.1600470364795183 -0.6729985937617571
Ni 8.395649618687226 0.4300989704791289 5.673303952304602 0.7471427811753389 -0.4664389939975257 0.9300353763399338
Ni 4.076630823716214 1.4843105801037126 1.7381460846075216 0.4675677082853302 0.5004531461594414 -1.4754853989250396
Ni 6.034251971793355 7.644475088469941 11.973789245145666 -0.34475459491113525 3.490032400410338 -0.5473773215148058
Ni 5.823903196212108 4.0475495256502745 4.075862709353349 1.6224247159234768 0.5767074379374907 0.6442310347107614
Ni 3.6746760142197252 6.322022543484926 7.539538271503039 0.583050606546699 0.022512579280219294 -0.4164572627627602
Ni 6.468706094369023 0.31478134143218367 10.151698026434147 -0.18554314541356431 -0.6052407694904931 -0.5265812107050608
Ni 7.424707991300016 9.071083189847402 1.2481172915528544 -0.027632417005287898 0.011909349843076263 -0.6324903492350656
Ni 2.017952869121268 0.7642343524162234 11.265590619629185 -0.08458929400630592 -0.7305342260843806 0.6885596814248076
Ni 2.2846519416652873 0.2640623181052345 5.656234535570903 0.9791573306775652 -1.0849533406684733 0.4199969004849025
Ni 0.6865374248776354 8.0385421710128 1.0073528774293454 -0.15476986878644958 2.321198361766809 0.3200000136742747
Ni 3.6026535550121825 6.8116907547359995 11.741484418179924 1.0740647187804275 0.7498239275519281 0.4734174821978879
Ni 8.010756713803529 0.08882989072456753 12.237663760228195 -0.2550230945822576 -0.29374287974995866 0.8016859065285419
Ni 4.0633813204643445 1.3394393283887234 10.064840067447985 0.4670637720657182 0.10541497250240556 0.16359620882882792
Ni 7.922320270411529 5.39326147499736 5.551990711757785 -0.4102704172257579 0.9483056354040315 -1.4157625291431102
Ni 2.4046392928718037 9.36907024597415 8.850414638168491 -0.3827842959903472 -1.0357082304894163 0.22420250965697514
Ni 3.6709950749746985 4.687469545216848 4.864474833131855 1.9405406252011612 -0.6418129121875721 3.2626332381929357
Ni 7.562245534978357 4.693394730583205 0.9757362385568817 1.617580243346982 -2.597623576173927 -1.3737954406827049
Ni 4.113928504025518 1.7915563252498399 12.925398429375578 0.0033303499248136187 0.5095898183533869 -0.22191062829900493
Ni 7.930433360992404 3.8907809524468946 11.89051832389318 0.59052660320877 0.6231665007309783 0.23175152564882667
Ni 1.2366829045154328 2.001116328135724 4.937383722606567 0.42624339561524655 1.2787337863901653 0.7793746446258513
Ni 1.240232381644566 5.534010450363965 5.631798545271582 0.4698012256015393 -0.7208095425974489 0.8505180975398965
Ni 4.074273895781261 3.730209368033729 7.757771017977462 1.935232068504054 0.8235554529081235 0.8373707615246611
Ni 0.3607912039647935 3.573581647097378 3.3635549537000715 -0.19234936970212035 0.4509640382903782 0.8419038735083243
Ni 3.8396891401198747 1.510922268421076 7.050492627272235 -2.7661377911296614 -0.8638045302361574 -1.2831622544751642
P 3.097707567864021 8.438318465445906 1.7925563763457466 -0.8894497416080877 -0.4740242625439513 -1.327582175351436
P 2.5521303967535336 3.3631014094002376 6.246707897289356 -1.1870713875871621 -0.7911680377163536 0.18925916081257083
P 5.462194574481399 5.172865237701371 6.154049641946938 -0.8479613925563138 0.5112108988965777 -1.7692048816362307
P 2.2700972074056143 5.476908941310371 3.773411575376892 -2.1091648833722 2.0884762446745966 -3.5841031515445176
P 0.4873648071775903 0.33723694885707517 13.349644518652092 0.28973221592866877 0.4575488905967475 -0.613670388315085
P 0.4912391835360038 0.26491024875274966 7.8761564094003 0.04100138211302616 0.19221258701393992 -0.22994301168517817
P 7.887285616525825 4.612846014144835 3.119924665450077 -0.6799434005107065 -0.009498426408738481 0.7038173789148267
P 6.429417702019042 8.410626909747986 3.3399434186704275 -1.7960986207032807 0.13980733393934633 -1.7222092296129825
