# total energy = -340896.99796969723 ev
CRYSTAL
PRIMVEC
9.02209998330547 0.00000000000000 0.00000000000000

0.00000000000000 9.02209998330547 0.00000000000000

0.00000000000000 0.00000000000000 13.20475529341725

PRIMCOORD
 96 1
Ni 6.336707967231076 2.141783366315116 11.449751228938783 0.5329973986440498 -0.11198568374138777 -0.23865082387182127
Ni 4.60355355049385 0.35410569313118784 5.992608685121191 0.028692997059318322 -0.9593007009629544 -0.4560532798878275
Ni 2.7523539784029847 1.4439690480005798 4.727500061405183 -0.7046758702603799 0.08831122294258338 0.5599577292829775
Ni 3.403118045634576 4.357069780678697 4.871788701006199 0.5169128343773614 0.06022346356743177 0.2889310601836121
Ni 4.944435551772254 4.575612107041526 2.5745969569386324 0.4607745966228968 -0.4352761952414762 0.20249108612181255
Ni 7.1347939040567985 5.946051040693881 2.5264126278957413 0.6551073153036331 -0.8499843365236136 0.7587690525603578
Ni 5.316100957977792 4.59343075438358 11.430814743416637 -0.8367015033717783 0.24744168269057382 0.43688699137202175
Ni 5.597797983780814 7.771321097614588 12.530520307088787 0.24168986780846122 0.6181855025766192 -0.13386371476140174
Ni 2.0775911253841195 6.336509481032835 0.39157357188907055 -1.6141758456511233 1.2079132640331776 -0.6089961227678673
Ni 2.840653270320295 1.5416332796348788 0.46039956333899323 0.13268614951353278 0.34859093793809 -0.20204885637807138
Ni 0.49497225023253905 -0.08594091499821506 4.890090932903968 -0.00932873360009361 0.4379920515107425 -0.394930701544894
Ni 8.597059770695195 2.209791955512284 1.427341317847969 -0.6001628407469535 1.261665518053969 0.12867574280255903
Ni 6.899037411046557 0.613862776348687 4.671987982807245 -0.23670347033746333 -0.29320783318209503 0.2931440698236952
Ni 1.013443461916782 7.2247713065592345 2.6798388502957624 -1.252405947128914 0.03876837901744936 -0.7055734423739848
Ni 7.486664823037796 3.929476377068908 3.7759130187501015 0.522012617497772 -1.5866596425087256 0.02108407436380885
Ni 7.721040934760273 3.8741077498596983 12.766607911166094 -0.023442033073024143 -0.3458290589222367 -0.6768791597630859
Ni 7.796700264689625 8.792415300263553 6.9303973281585805 0.44713360880069447 -1.0260442250370911 -0.20650380682563144
Ni 6.784565007261247 0.8738309767043146 0.24743560135671736 0.3764642673095904 -0.7821902596977754 0.9503563472854729
Ni 1.530283477935484 6.728862562354997 9.231827654768578 0.5574383052952335 -1.1014459390068578 -0.37463569874128383
Ni 0.23733355607626247 4.930297921197571 1.4111655949013515 -0.2553596519860699 -0.67688353063846 0.2960931251496901
Ni 6.477434681783667 1.7385496324894016 6.91041788788568 -0.7246952508051003 1.3287751672182728 0.11583462517383276
Ni 3.28980047063903 4.431908099515326 0.5626136399629621 0.5490827342416866 -1.0467883995629779 -0.21113410650879122
Ni 5.8441193557974085 5.457459219524784 4.898396678090345 -0.007699168416470611 0.7248652007240614 -0.6354412043332734
Ni 5.30913589683953 2.8888854164927626 9.284698964719924 0.0383109797650566 0.027842476133564952 -0.39032791266556
P 0.15272069418627546 5.591762198934316 12.34895505724819 1.473028709854431 0.12291775727285928 1.360283008018567
P 4.0621102679932335 6.111435154327906 12.430890159881914 -0.16834452214709072 0.042138066820630656 0.4446666353174406
P 2.4255193867000644 8.31729347427506 1.3419859371345637 0.04660484434273263 0.2583588438237099 -0.4384031709062321
P 6.202991424316346 7.5747836729567055 5.632765838650858 0.04196914534293417 0.9151813420462367 1.2860336624856883
P 4.778284559645026 1.0212024678480058 12.559201562734556 -0.257157367316441 0.4691453371850952 0.6793888135588171
P 3.8712116557853693 6.124679597010507 8.221689890262493 0.490531001949723 -0.14900416994726598 -0.238384457584312
P 4.519864551635675 0.9617017188754237 3.674342217850431 1.3848391000913762 0.09951660474009959 -0.06498771772529453
P 0.043980932690150625 5.4633055402729624 3.6604770546933323 1.4118698789569233 0.037741480414831774 -0.3483356273941743
Ni 1.5022067029843582 0.8779883603474634 2.602221724683765 -0.5794991417500148 1.2398818465199744 -0.09279394130428535
Ni 1.814849531513075 6.440624514109953 4.861634327546208 0.13432419933758802 -0.2853104327118893 -0.8704819422563331
Ni 5.9149608843694645 5.548690693916104 9.1547383220019 0.34025387882730435 0.31035323461313 0.3516628919951944
Ni 8.57592099058257 2.3967118216554164 10.06659203660918 0.3515078544745688 0.08151399751509186 0.837306741055945
Ni 2.2925877664783774 5.295620791159329 6.913824632815483 -0.7173771198771323 -1.0824002352293165 0.9535866812973126
Ni 0.34739415300067933 9.188287000554526 9.293084104385597 1.1376259884718407 -0.22304062813839004 -0.19681897543769974
Ni 1.6369607873898904 1.2489292919294228 11.429613901917282 -0.091837490928287 0.016496969213758685 -0.5958945523889028
Ni 4.185397263400411 6.775163979144578 1.498264045319306 0.3061289121191373 0.13567968492421792 0.27053250307176635
Ni 5.645037698962079 7.836686211535187 7.98649998512723 -0.4026226708725131 0.22210808902179166 0.15804314022108265
Ni 5.166478452904054 2.841916364309099 4.6941976861803765 0.762860449020912 -0.5278449079088329 0.42847074228386856
Ni 0.7109766598878642 7.256556164577492 6.807038155952044 -0.5774548576264765 0.5863107653552097 0.6455716078990559
Ni 5.136281484471722 4.55771226080019 7.087546971195597 -0.07000214022075041 0.050545574158035525 -0.05935443069891714
Ni 8.07911905848625 7.226323107745478 9.158871345975268 -0.5480326957106175 -0.3163852997398228 -0.3394144136451445
Ni 4.557739327099951 0.45991056552332776 10.4541778403336 -0.0059420765160478305 -0.4002006916945817 -0.3463347949140616
Ni 8.009594756502516 7.126204864932933 4.483912385664357 0.0015488325443586228 0.4944838159498839 0.5685992070080594
Ni 7.249798611737392 6.176782224048667 6.973866707783266 0.2215416749953604 -0.3232619722549981 -0.14423734468624191
Ni 2.5061859820850314 5.136452904370202 2.794046906553416 -1.597634139242358 -0.1719587218609103 -1.2693158355103753
Ni 2.273118074850958 5.327351516578066 11.243756839144728 0.1576649309460575 -0.23865725162972448 0.45836187341634604
Ni 1.1592947292239484 3.197901360853628 3.8231328853115425 -0.7880886274600813 0.8609830016269624 0.1226526765369307
Ni 3.4100019078735575 2.7062149594119633 2.6793633856299772 0.6542791629753828 -0.1388495980117673 -0.1400374476722814
Ni 1.02583080510698 3.292922117211359 8.26770891532458 0.4207098673915271 0.3932355732306583 -0.7324617821243966
Ni 3.8869552201458175 2.5676896372398597 6.927755657301997 -0.6256501863847805 0.17074927493384143 0.20596850314745171
Ni 4.015691563904692 6.8732973599747185 6.094285044589927 0.6841204147065315 0.009543934934693242 -0.509570020859045
Ni 0.6124201425714745 7.515851316279085 11.341616850347291 1.2855685499238116 -0.45882801441948723 0.7773894958750225
P 0.1420827361705709 5.514090940722799 8.020832684162903 0.2825644945356359 0.1987280195349545 -0.3188011082701671
P 8.466374653353595 1.5637735128386265 7.925309396839626 0.5851735664269728 0.7074583181015235 0.06307893073835588
P 1.8141367856193928 3.3016284436341863 10.372718202365661 0.09596154039898956 -0.5630068005219465 0.1691726744753409
P 4.00887085636515 6.203090667415467 3.8093741829335004 -0.12161112264629378 0.3788525650361088 0.016035713306623997
P 6.990846299832759 3.928610255476585 10.373259528360864 0.4718545085861422 0.6296623928679672 -1.019090162316761
P 6.2421744042690275 7.793668839116496 10.2675024730983 -0.03994183050026024 -0.10693038070566745 -0.28332528396106044
P 2.395890810562694 8.389154500138078 5.794325484128784 -0.01753338089807303 0.8604140164973698 0.7267655030705676
P 6.840077988069177 3.857696550105168 1.6232868927510968 -0.05342263859551444 -0.08336236357774031 -0.3698048530115437
Ni 5.121395019603676 2.9574984863845724 0.5192389923874373 0.530028545823713 -0.4009722797532836 -0.15111016054667523
Ni 1.6335774999198802 1.2348097055545795 6.9534659354441 -0.5645407206679697 -0.6406973105258901 0.15371905892443202
Ni 6.826635059188336 0.7882121506732447 9.307213615070353 -0.6082643868081654 -0.45659423999296206 -0.4895269861652408
Ni 2.7430792596851963 1.5313480857260473 9.134388975632278 0.18389661094907683 0.1286808850088816 0.05643108640453507
Ni 6.252026537381697 1.810275326853621 2.6267825872960566 0.693159127870032 0.7362780705466933 -0.5705784422216174
Ni 4.129839172092881 6.980380663925526 10.237052885868206 -0.3923279738147243 0.015384967096502538 0.501893992371026
Ni 8.458750978921172 7.217490471923772 0.5542681975369366 -0.2432014193569812 -0.15044038817316027 -0.4676291576508849
Ni 7.696500822977798 3.891845198302472 7.947492936122991 -0.6666022033171101 -0.5706684308322623 0.8358471257912831
Ni 3.204496515895169 8.410239147651183 12.359465803655024 -0.5709630792545457 -0.40400849547644613 0.07066548483636216
Ni 0.0015445835063087278 4.904575914325573 10.243219491163545 0.15976680778040875 -0.8830155559469696 -0.6825882943327212
Ni 8.558751934434758 2.2604600686631593 5.749521735925926 0.8087338145142589 0.1493990913928395 0.06696926693169757
Ni 3.764281727533202 2.8451462760804684 11.514097747778413 -0.8861638717679641 -0.41486343591307906 -0.14191538142128463
Ni 1.2227922684611028 3.385912901087084 12.681292227692335 -0.3901592482981797 0.4360346706740555 -0.5927848031153274
Ni 2.993505687165403 8.178750107903115 8.052299062053983 0.7003728720096519 0.8138446533782628 -0.3998960159699694
Ni 5.592474944827997 7.7886705957608005 3.51341592378689 -0.4808124891103784 0.5007513941261506 0.2226716748347455
Ni 2.9592397516691378 8.328480878175894 3.5380823449682457 1.6116728767236117 -1.0063922551341182 0.5763989055581363
Ni 3.3120038585422176 4.227765044624861 9.090615551240289 0.28438663534603925 0.024264786084635632 -0.09138471966158454
Ni 7.35043111424538 6.21410665141782 11.38371396857414 -0.8380117375427696 -0.09420727671204421 0.2210868468461289
Ni 0.6391670599943884 9.335076566253374 0.3299833045750101 0.35242959495788984 -1.5334835727063783 0.0875180376173267
Ni 4.585725881051876 0.19044389837189493 1.5896019804896817 0.2542592198330395 -0.14750521680423626 -0.5058455208196062
Ni 6.1031438445014015 5.6357088476447705 0.38507134447670666 -0.22014685153036279 -0.45408098665280505 -0.34441700906605843
Ni 7.86039629012502 8.8667213152049 11.330578311095138 -0.7213065368385255 0.7522975859034011 0.6579974923672345
Ni -0.0292072440711054 4.729366733878637 5.769170967341755 0.5981324405804861 0.050981119033557364 0.20141945032418862
Ni 8.178371179706474 8.968616911701691 2.355755096858459 -0.6815652523848456 -0.8566998008705763 0.16405669340501422
P 8.601246025058087 1.6504849151700118 3.626369005945668 -0.8437478686955986 -0.7151171201983619 0.2993604830470522
P 1.5647839880296697 3.0959786980570763 1.6163019829930114 1.5142591772591276 0.13937358883603737 -0.2365610312223281
P 4.808246953479437 0.9787715319241159 8.17643684148362 -0.4930779367412927 0.058108216996641864 0.2834571815532344
P 8.648837602136233 1.676224966241851 12.316035219059994 -1.3185306066721292 0.9193838101633585 -0.34418483845059433
P 6.535221231771444 7.646076306524764 1.5310124636090223 -0.9302001840525722 1.5706280429671597 -1.8645051343021373
P 1.970706307631552 3.183664487179825 5.9140135638778615 -0.9654538650485438 0.00017303524275454068 1.365973373535125
P 6.907861024768344 3.7994318288216298 5.929701191218806 -1.0581477904398553 -0.09671024563955602 -0.15994884188422775
P 2.319284160141739 8.486259361577336 10.211131490587976 0.3077942156367022 1.1319335660727536 0.31450299511544544
