# total energy = -340862.6763415694 ev
CRYSTAL
PRIMVEC
9.35176177972022 0.00000000000000 0.00000000000000
0.00000000000000 9.35176177972022 0.00000000000000
0.00000000000000 0.00000000000000 13.68724865518827
PRIMCOORD
 96 1
Ni 6.614613465843935 3.927870954038634 0.7192140878353065 0.1784237607599637 0.17886419073149196 -2.3296575482777553
Ni 2.091961098452862 4.377989961404549 1.3322688440862949 0.3639622781878377 -0.0010073582185918136 0.09588235042162198
Ni 8.291814568957195 9.081028465525472 9.880414273593622 0.4824934763572271 0.23182711608176848 -0.4064487294868226
Ni 1.5089067946166879 6.686472404857474 11.690416007804705 -0.6743227118898193 0.32999723409630266 -1.0577068462476946
Ni 8.347747457327833 5.389888014114212 10.67605376581471 0.5877055888202073 -0.5454009145147253 -0.9619381385858015
Ni 5.1357632342139095 5.529219915775161 10.880788150021871 -2.1332489209045975 -0.7853642865503828 0.18651862195295618
Ni 0.8946643645949136 8.677415770459705 6.116626529634357 -1.2103493842784963 -1.0936477831186777 1.1099904861427594
Ni 7.491855497879995 1.941650228233624 8.08452434820235 0.4951273630711537 -0.5092242074838521 3.192912633768346
Ni 6.160117833873863 8.336198031289086 3.805890311545531 -1.0955961650943002 0.5533371386426664 1.7634520383128531
Ni 2.8053789642162537 1.8723817272870742 2.0523891176569493 -1.6344968165966625 0.767115367642524 -1.2138375999374127
Ni 3.2988433883348702 8.762872171384448 5.797275080312966 0.8451632609858863 1.8504075185584907 -0.04025087710024681
Ni 3.920080936313715 5.0693283171456915 5.499755319321496 -1.7270922687368966 2.7387707119706186 0.5407641870736623
Ni 8.113598041005472 0.9721717678411679 4.068028616281947 -0.9561102190501146 -0.22897499134495405 0.6366336819794778
Ni 6.47074595962526 5.3094254540839545 5.705803626086101 0.19385140816894356 -0.08481812218766038 -0.680812433379221
Ni 3.1561074453151337 7.303239810612415 1.080078943738556 -1.3652755761371518 -1.6648967690447583 0.34181376711525646
Ni 2.1767535242774017 6.9202664542247945 6.809009477188072 1.5134955596202255 -2.0504015492900622 -0.11339644804598535
Ni 9.094981294391713 3.5699977267910885 9.366800543124333 -2.236860778759993 -0.5614366278213492 0.576532345812207
Ni 4.981730362728744 6.291491386094348 3.472098806559017 1.0063806851698927 -1.2665112761820447 -0.3637645603547348
Ni 7.159690264300881 7.474872698133954 13.661626220464138 0.04569621648553421 0.9486193099897081 2.150652461093025
Ni 4.358837552880378 3.3848889502640187 2.75496922646787 1.1044117065034011 1.299945387470774 -2.8228295873947515
Ni 3.91110324481801 3.122843227971151 11.180046403564438 -0.15902144497395193 1.7538913912076117 0.37083380849669034
Ni 1.2682579037219173 1.0318173057157587 4.808919153198395 0.9496850322500611 1.7301217995918396 -1.8179249725497533
Ni 3.4898063678580975 9.332011053402278 8.305997451168015 -0.3065811691652075 -0.30439007505115967 -0.21074432726954026
Ni 3.848783103018657 2.555808492397626 6.608053204818688 -0.7530560613359806 0.5976305612434031 -1.3316617447374486
P 8.068447734191656 0.10462938332525831 13.457850391859383 0.61307234971977 -0.7854812717442214 0.24403522811218617
P 1.398939425556275 6.321744336082479 0.0650181251290519 0.3428121264727838 -0.7912662538571147 1.8140287228191403
P 0.13788518408346348 2.529109211959878 3.312273453706726 0.6523204965871153 1.0345666606858055 0.8591750018839461
P 4.815858160583617 7.17297911806692 5.781931644441087 -2.6963454529268724 -0.26375353247671995 -2.8828669030933063
P 5.498583543546067 7.608266230940972 8.786885625783064 -1.3260922210694712 0.26758524751798435 1.757317643280341
P 5.223089987533591 1.6612563489464087 10.502554266603024 -1.0323195165228414 -0.8116910973703699 1.1731799743170506
P 1.8102579724891896 1.5424702683438607 0.06948826735295506 -0.3801468583675002 0.11052683980767417 0.24148417955555831
P 2.352893961070741 4.475173471845557 6.87945723531963 -1.3981414736272373 0.000477196746734662 -0.4546294029571073
Ni 7.90696150841266 8.434971341265793 2.387385129585803 1.9435855826750723 0.4634516292344276 -0.9662946157822843
Ni 8.930465097732917 6.611742474917704 6.985095673761958 0.5337129366538357 0.023305764605475992 0.058400037205447806
Ni 0.44631284024221524 8.164602550815449 0.5554722170680149 -0.3557296058654002 0.8967421615044426 -0.3169406580226606
Ni 0.5991730007757544 0.7810385862500008 2.3080812528642105 0.1763231694771931 -1.390983265315901 -1.1949821577938065
Ni 5.200636407032353 1.2198438319789326 1.8513786050681116 -0.18290956444545917 0.34743291307424684 2.606163238213821
Ni 6.185171204204065 7.507762844998948 11.187150001960413 0.25840615212187756 1.8291964316985143 -2.413909770659617
Ni 6.623535046767791 1.6614714394718266 0.017017401265348543 0.12262516573310495 1.160180476733589 1.582915344974945
Ni 3.908045218652285 2.3412790726981725 8.781711295882467 2.460992325969716 -0.866050903068173 1.4629718398390612
Ni 3.7430427303708047 4.694434883104205 8.521886617058588 0.3803476615243966 -0.5364550181753471 0.14619164019913533
Ni 7.2422102119655705 2.690501920119127 6.124715803742466 -0.014255224367433515 1.2077474278792748 -4.4109645288974235
Ni 2.551983621749977 1.2238089790562026 10.352433237151875 -1.221541910560206 -0.6225892880712697 0.7810286352895065
Ni 3.0047117707068316 9.032923001927653 2.7679859439604444 -0.649756592514681 -0.30775899152339253 -0.99762967845014
Ni 7.99970293191569 7.967018523814138 5.353425494174886 0.5309526002998791 1.4393907100850114 -0.7091737581307336
Ni 4.928425319472994 7.236655265352602 12.998602194453772 -1.8525127378269515 2.9679830161373597 -1.2722931729711442
Ni 2.749754683990781 8.80329048663907 13.053598036274545 0.1793053920339686 0.891139984826317 -0.41531235052503956
Ni 5.197830878439945 3.4922845847813915 4.88310387541504 1.3138221454528665 -1.1947677277901552 1.208947361724647
Ni 6.30239554055684 5.531286655171568 8.94881886578445 0.7344546441847093 0.012163117725095183 -1.338279250053966
Ni 7.016243587371068 1.0735355158848632 11.714176964630004 0.9281978089105627 -1.4947478466990771 -3.577906792925819
Ni 3.150356111700697 5.287663903968845 12.912782945164409 -0.2502300440689884 -0.4873412913678316 -1.37771611589335
Ni 0.4869930048321291 0.09768102417806154 12.030229112326724 1.0482428726213173 1.1495628491187428 -0.448254352668699
Ni 3.3785391038832024 6.896915104573987 9.17140108772031 0.15543809849806778 0.6949768978050611 0.5209114140137932
Ni 0.7546722285385519 6.367652135616246 2.230227834424893 2.4372217059126804 1.4750531964836273 1.254107246090737
Ni 8.383218690497843 7.679236752566916 11.689266676258017 0.8456849378173114 -0.836192939166476 0.5042876894141831
Ni 0.4559722751858755 3.013306039961574 6.2824472970886225 0.5317226456966843 0.67505984716616 0.21393403785143156
P 7.718411283478904 0.6178587563773881 6.372331757308383 0.7539374354996692 -1.3654105590531194 -0.1496268911329294
P 6.149503584032586 2.284916003276699 3.5609564433139558 2.1725376912018906 -1.360031297019077 -0.491442972241031
P 0.15179031896363426 1.7589355027720754 10.46869247166886 -0.1226434205655501 -0.633083245624058 -0.3592576736233168
P 6.731267344716253 6.664102990214009 2.1392763381638202 -1.6381642381459207 -0.06804475938406346 -1.4421245640764067
P 1.977757381217913 1.3420713609881678 6.918507387797355 0.603570837987238 -0.7353365325690304 -0.14382313996695875
P 3.0432784370904646 5.147116273251187 3.1551984540511935 -0.5756936519609956 0.7531496494910513 0.049615349034282295
P 5.334011236315423 4.224134773396902 12.622737112343115 -0.10828175252723932 -0.8467141504127741 -0.9182314417264702
P 3.6909253608858417 1.211801316680697 3.9669482266260854 0.5294497905021075 0.578647849493313 1.7650286387713536
Ni 8.40935686521711 5.448626431077258 1.3120147980015051 -1.5466648472833429 -0.911307203802811 -1.7751757545076847
Ni 7.994316317018266 4.492969874883397 7.4005177738493675 0.3516091559391235 -0.01858110543629703 0.8554466451897654
Ni 9.270074333843887 3.1601661100121503 0.5588117312691776 1.8344072864754923 0.0552586633629887 -1.505986395727374
Ni 1.1594220978604424 5.337864162248996 8.686900327454438 0.27646763760927867 0.5082387036421312 -0.5592079956011465
Ni 6.981389570491387 5.676454056304725 12.373273250610998 -0.47417338652730595 -1.4547671925410817 1.4376642143122078
Ni 5.567113255296616 0.9411145663232129 6.017886886000761 -0.4526859060774914 -0.7635433340205494 -0.621388068674317
Ni 6.404554188368384 7.263279731694554 6.89804479742053 2.556294378407836 0.831475993306781 2.1508527500292893
Ni 6.502934724342153 3.319604299918688 10.16313861196493 -0.1251312199844103 0.7897639582799753 -0.47949942672590967
Ni 0.989304195778805 6.178157382723046 4.752472853095346 -0.5568492655609829 -0.4682202542676646 0.30820842035598534
Ni 7.749253394471441 2.537871812930165 1.9693492120264666 -0.3346702140919397 -1.8957908317892962 2.6587507825025503
Ni 5.0159765150800695 5.558593800137671 0.5074714932043115 0.19247432531575884 -0.669081518095538 3.9938796598529933
Ni 4.192946647211302 2.871103147374395 0.18991371182966704 -0.5416285919564866 -0.3936847449529349 -0.2539951675383755
Ni 3.980932851483041 8.774253265707648 10.826996815143438 2.355893856266465 0.04505344069521273 0.1623055150418624
Ni 1.6826718838684556 2.737064342991123 8.764985669590727 0.4609381187839546 0.5806563952829097 -0.9850202172162457
Ni 2.7794465282604306 3.26460658774552 4.280741923805916 -2.361667268415133 -0.8207820039280446 1.8052175522854135
Ni 6.51169732531244 4.405437382800273 2.896878473729043 0.4625378591709066 0.8273205763775107 1.1204057679388124
Ni 1.1250356690794967 8.058160796019495 8.554051067194347 -0.9044600989739907 -1.2235322015173573 -0.6839890313349897
Ni 5.075107706046052 8.215850206436764 1.7091953511810791 1.222101639718418 -0.24805643345643727 -0.8022464070177022
Ni 6.047457157364739 0.3996466128123006 9.165693707387156 -0.2330923559474373 -1.7526490341600782 -1.0436966480115315
Ni 7.960808953862942 3.3124969608179216 12.05232077963954 -0.028610464647841047 -0.910618919486535 -0.34048682077371684
Ni 8.026579895830956 6.206212668647124 3.67508067057212 1.1041401980095693 -0.30974208339169235 1.3707021464693618
Ni 0.33393832764951636 0.7638818437312292 8.184837893376288 -0.7629908039511891 1.3096867831282542 -0.1870189586281424
Ni 1.5189879940254067 3.2490920146295044 11.530904874154764 -0.8282238049180706 0.3229809506794696 0.40337831809161495
Ni 3.053406395309057 7.2550314776328735 4.045594674480857 -1.3353538488770549 -1.4038986878259885 0.7308461008978445
P 4.820543393332938 0.5588472679646814 13.624301468070744 -1.3075699938955676 -1.6180229873113554 -1.220518097281382
P 5.7486216034634285 3.5129052199355892 7.499312592878615 -0.012228423745391844 0.8184399860584292 0.6874433084321774
P 0.6895054103941023 8.2064142786043 3.8767214919180515 -0.31729701292081486 0.35582473668236786 -0.500774534054602
P 8.622436761810485 4.650995948731757 5.161324405219338 -0.13122833402108366 0.4495157358796258 0.8864454075641249
P 9.104707126845394 4.941863801430628 12.677991997970587 0.47657428265931473 0.15140763718243602 1.3612044913915717
P 8.733741432833279 6.708196547924686 9.163243545749786 -0.3772862489902535 1.3185414053054065 -1.2870173665551963
P 2.46223476207885 5.128880337400536 10.40803039726762 1.0694441892892808 -1.0718358294499089 0.93696578491118
P 1.9978730212254772 8.354967017572294 10.345602710205556 0.31057254971278775 1.1048547075780908 1.7992271390299335
