# total energy = -340897.17440055497 ev
CRYSTAL
PRIMVEC
9.01604388180245 0.00000000000000 0.00000000000000
0.00000000000000 9.01604388180245 0.00000000000000
0.00000000000000 0.00000000000000 13.19589157670763
PRIMCOORD
 96 1
Ni 6.283695812813619 2.06523307440564 11.41737627768696 1.4195309950466068 0.5001842087687709 -0.031077952351727126
Ni 4.66563147347227 0.47090797895856396 5.989614997119938 -0.8345988552064788 -0.6286951438586915 -0.2125070755969179
Ni 2.686113929527267 1.554645485732417 4.765287611190531 0.13159085956682498 0.06030008244163808 -0.14320993186299208
Ni 3.4505843016485884 4.2265050496703 4.662847319080112 -0.31672777068090613 0.08139598387998885 0.6331953457218902
Ni 5.114008358434712 4.468207157652709 2.745603591154002 -0.31729855558271164 0.2507301236338585 0.051816213340343024
Ni 7.149199974178856 6.087344406231969 2.5426371130777716 0.15416694509512802 -0.8204819561891225 0.002279025842163817
Ni 4.963819097215263 4.480216528282094 11.502330854032643 1.1344347352280526 0.45696910683387754 -0.5925842570687472
Ni 5.491465041166863 8.005778251968197 12.389675480422373 0.5373068246526811 -1.3294261705387105 0.26319148932566283
Ni 1.9774258217332783 6.410100749918713 0.3784195962330663 0.36852752896101687 -0.055383876086943326 0.006721892104865843
Ni 2.739687263070667 1.6975678154749243 0.24936304058285036 0.7463377687755405 -0.8458715999068206 0.9517074619967286
Ni 0.4895225034341116 8.890639859835906 4.696483474490808 -0.5390119802692459 0.7784601032313819 -0.4456716795431873
Ni 8.61411778986349 2.413351549909548 1.4870449909088383 0.395414583159848 0.30538483486426116 -0.14471814097740238
Ni 7.002833515622215 0.6140692338674968 4.910362972244073 -1.0237595427679722 0.0859532642333681 -0.5788337402518741
Ni 0.772986025694486 7.310019151293233 2.288312543472886 0.068897594302662 0.05356816303444323 0.5008272416694084
Ni 7.34567760537673 3.8109916451463794 3.951787090105499 1.2339860498608297 0.15499766852653954 -0.7784745014090851
Ni 7.635417195876681 3.870326230816039 12.752760588992931 0.12909457550753253 -0.15449733185135328 -0.8387866680355812
Ni 7.805387657667354 8.704602807608621 7.139254376024745 -0.5560532520222488 0.2012237893736147 -0.5755717816711506
Ni 6.752881727365117 0.664204749827575 0.35212881188224937 0.595957030195722 0.3551955877388012 0.04186501566490209
Ni 2.0106409278884256 6.280846742904545 9.17027426820266 0.10320716621780936 0.6793715871676365 -0.2424079769214083
Ni 0.08459032816743325 4.991759817621018 1.315888919330054 -0.01819852528589769 -0.5141239587783145 0.6140833074827875
Ni 6.345086056518939 1.9936006046980814 6.9228152233753235 0.5467265753046843 0.3108602561565356 1.5316987128918136
Ni 3.463396100195403 4.337844177224566 0.45796093975150864 -0.5769208394998774 -0.09363572047929035 0.1538337301254254
Ni 5.935018342580715 5.767383036190202 4.802882711528678 -0.5308728961018793 -0.5071498414533265 0.33242795502498235
Ni 5.398879285165992 2.8998122047958073 9.228757739317205 0.18015257052561232 -0.10417750055087865 -0.025153359337176037
P 0.24547351919432414 5.7597193987765545 12.475989676205677 -0.43433928524950355 -1.2794549808269062 -0.6004811433183207
P 4.055524790949829 6.159067036379688 12.577268701846826 -0.29225935322589663 0.030102732922651386 -0.21730423987524514
P 2.427858364731381 8.444336664997156 1.336954906173567 0.47021928697556437 0.35762785132937763 -0.04451479458292334
P 6.168651091168754 7.843913213747958 5.764149882806044 0.4864259786424138 -1.238369780750822 1.1537591465882775
P 4.7276618563027295 1.079130308281649 12.656259165075888 -0.29828807591847983 -0.5039004812780934 0.19307390657297072
P 3.9747320205219583 6.143992210784844 8.191284259202936 0.34140059083723784 -0.5521842559851459 0.16722994892667326
P 4.706807746493594 1.1667392079856573 3.840505665232936 -0.05007429094857182 -0.015940582489656418 -0.40050022521287154
P 0.09736516093378189 5.673489953807002 3.548032410187318 0.7431915098370748 -1.1705623341885454 0.5799462565897625
Ni 1.411578899285653 0.9362981389793021 2.6081413776676174 0.11382505094297171 0.9152780155251011 -0.2019930634394715
Ni 1.7663512152734095 6.632679828543068 4.820459489337978 0.11302852318360533 -1.3823505293415679 -0.9571851972818483
Ni 6.026125467362954 5.601424713986672 9.179774473782377 -0.6227306987451404 -0.04221391436388859 0.21380599691399954
Ni 8.70462985574067 2.319422403350285 10.256731013851756 0.09485725159121729 0.4587709359293067 -0.15846171581574
Ni 2.387547631935598 5.308763925225521 6.808908326485286 -0.5454142842511639 -0.6877911786898994 0.8467961686036191
Ni 0.5349877085938732 -0.0869967103153184 9.004995755717943 0.22020135891738205 0.4064968091159387 0.5368764219834818
Ni 1.5736242583862132 0.8727449463145305 11.331193716146293 -0.6783881402084446 0.9309728005525385 -0.12813092604268256
Ni 4.171398988644171 6.801198707247156 1.7001058318654438 0.06900995151081017 0.43558498473114665 -1.0122032053889405
Ni 5.585673685090624 7.754798634693268 8.067796913941436 -0.5236856343248207 0.7925170955450802 -0.08034903067271323
Ni 5.450433024849796 2.896954118842718 5.047217504363775 -1.305186067044423 -0.21811490870199857 -1.0498292432718306
Ni 0.7301643246402317 7.458874037998305 6.902282986337561 -0.3103424359798526 -1.0890725050431695 0.695248406298893
Ni 4.841471379917395 4.385719370949819 7.148055838193218 1.3614968258210103 1.2344591328425063 -0.38608045024311577
Ni 8.19287018134536 7.0100373347910425 9.04500535264359 -0.5143818404253915 0.5193623243591184 1.1436045746527788
Ni 4.736858221199106 0.34297301918394524 10.481206166532688 -0.5701261851755471 -0.33827207251058516 -1.0380337932987993
Ni 7.94317084232071 7.196056354930295 4.557900566733229 0.17628023205439963 0.23096888184653125 0.5651708980528007
Ni 7.345803829992956 6.193499308477003 6.96538537680153 -0.27558060701863507 -0.1313923704027737 -0.33456094220758514
Ni 2.3646288480467854 5.2594101002816345 2.6130632360959822 -0.8748134797521514 -0.1329535442423065 -0.008650476586146393
Ni 2.4551048497478996 5.170584034635458 11.301568798718339 -0.09055039668574727 -0.5823093575053003 0.9528415756011719
Ni 1.0506486252349305 3.2814162677753447 3.6957602913903824 -0.7005747036078129 0.43011804807930437 0.6423099064286487
Ni 3.544729833264237 2.7049394294327898 2.544247378539039 0.2094893718165166 -0.673758354745917 0.34767074011666577
Ni 1.1519438797553108 3.341390992570144 8.235674751915983 -0.4935746738720531 0.15998303755627286 -0.1929360954435258
Ni 3.5222798836642597 2.5982615966348246 7.039058177269922 -0.24648574653520774 -0.8289146603375079 -0.14536245942962062
Ni 4.104653214793315 6.880449734148281 6.11636164229324 -0.10024499826569187 0.8308818113662076 -0.8723763310655686
Ni 0.8431506834362308 7.333965764199875 11.146306209531057 -0.6652958258008607 -0.17349804132357216 0.440622547155054
P 0.3455714430693724 5.528052147784015 8.05672521188972 -0.1902634337073691 -0.7574989275986824 -1.0611711506472112
P 8.532288174373774 1.5872204527624245 7.940891586393451 -0.1752438203700853 1.093961971924987 0.3985605849879974
P 1.9126004652578412 3.0227279328666876 10.476707160568676 -0.7352285462362564 0.5402803054587082 -0.4119429198321744
P 3.944789738344639 6.19642952278222 3.7787890407342353 -0.030792559900824388 -0.3487516318856703 0.9484858697356376
P 7.058390378849147 4.083195030035102 10.480229728965748 -0.8650168053767039 -0.5051600647168075 -0.30617647752762106
P 6.405223070106027 7.822067339097057 10.156745790526909 -0.49950389487229463 -0.4306857476573163 0.3630361668291425
P 2.2285226475804163 8.465064550190066 5.785567495366183 2.4498769327828454 0.5171935988425738 0.05852113616434438
P 6.904143897822475 4.000220376955347 1.672486984231062 0.5983630685340534 -0.6364313361606846 -0.11554717584040101
Ni 5.30321004211163 2.904861189444798 0.5560113200305108 0.1536216141146193 -0.3117197759433534 -0.018147617443304228
Ni 1.4052947166064624 1.10216630074267 6.847414047269054 -0.5842973344696066 0.8241254664789807 0.5584862869437737
Ni 6.8263895342280145 0.8878323943709974 9.105455222958033 0.007504278796845142 -0.8653749600470708 0.7911572390830761
Ni 2.585296525339737 1.4094601289418798 9.051523952467196 0.706429619726693 0.9736613405600005 1.1390632351389995
Ni 6.475259700022744 1.7110107371028627 2.5144376322087556 -0.3425683858930939 1.0696434497842806 1.2032317993971084
Ni 4.121215687650808 6.828445192263675 10.359289416138784 0.8693969367222706 0.49521195236516 -0.06608686432674425
Ni 8.018220392710354 7.3079274290815075 0.20062230663205585 0.06954396963740926 0.28007618089614345 0.39895344955104195
Ni 7.627573237582713 3.9627136338485567 8.253951174740928 0.6531327080757654 -0.6864624325761468 -0.212667255323866
Ni 3.0484146422684293 8.124032685282778 12.292989227602998 0.26191005151007796 0.9296792785520956 0.46649067317106757
Ni 0.22513693031170998 4.990632812119012 10.344206476104326 -0.7376618382680973 -1.2119213567513065 -0.1556910950491383
Ni 8.465939106459624 2.3772963898893433 5.776989631089307 0.9182137011146573 0.8655122569558837 0.4358091849268108
Ni 3.848020537920318 2.5131321090352308 11.268314923573922 -0.9606207053259584 -0.2723217337617052 -0.13998782538126858
Ni 1.0973066530180162 3.176902285541232 12.576714215139841 -0.5390459188309749 0.7356602344570362 -0.21422662939118592
Ni 2.94729970862837 8.43129946534994 7.989993863709289 1.0644873595046378 -1.2472848238522647 -0.9576575089325766
Ni 5.555064215656117 7.829595735850463 3.536894891014285 -0.07386008051425991 0.8376980629570929 0.7716183977192002
Ni 3.0253876658514245 8.293056462451766 3.5961447258701935 0.5302743432859319 0.3470588175642797 -0.04935721027688919
Ni 3.3978494601986813 4.129654704849835 9.201442732366163 -0.15928164061387406 0.37805243773231667 -0.03592628158296393
Ni 7.1546276326765215 6.08628952908209 11.409326753589427 0.2501742511303885 0.15946161783516408 -0.025512799559123805
Ni 0.6055689075691598 0.26694522801855963 0.31655060059049384 -0.2120584180952735 -0.7287002581994354 0.010217049742317888
Ni 4.602861775032492 0.3210360824884813 1.7489304150255878 -0.783962778217166 0.13182328729260523 -0.8192809939024857
Ni 5.90485967534701 5.510362669424515 0.3660847464147012 0.321624179541259 0.8899853023965834 0.3867836469577274
Ni 7.992623843748773 8.746139722390588 11.325334189140259 -0.37663987365550616 0.8382696191898467 -0.04579263285408242
Ni 0.13230413470479907 4.88458610240217 5.803777199465409 -0.35132427770885305 -0.12297226465987854 -0.3069210690031295
Ni 8.114583871153952 8.880803355814388 2.3724105956370427 -0.6195253044339653 0.11381450942001042 0.3647940300605137
P 8.439567177712663 1.6367816467186802 3.703730474300575 0.7326055067911125 0.2598691098206492 -1.0443687343778918
P 1.7196481072702436 3.3454932925974488 1.6200731139481266 0.07921517417858616 -0.5123126166011885 -1.2859896966216304
P 4.724289855840724 0.9839749797362021 8.176965879701038 -0.1678621831940335 0.500096534150971 0.40474717341468364
P 8.370630505165904 1.6673009557130272 12.387181642647532 0.11812522098022236 0.10927908344350212 0.07719480131444771
P 6.339045307028182 7.769503802483454 1.5188337589006458 -0.45049738306660475 0.4705473597389444 -1.217390607395994
P 1.7514747426469184 3.3284259212750564 5.965282497529408 0.1353834938400378 -0.7059989599471777 -0.7686757701511084
P 6.84847884206735 4.21903074918099 6.128079794700907 0.24356548756461924 -0.5990346406797812 0.09462688074796606
P 2.4165883097113117 8.314352358417688 10.152575870169484 0.8528277195096796 0.6684472269456488 -0.7379135492675871
