# total energy = -381165.7352518701 ev
CRYSTAL
PRIMVEC
9.31197842908979 0.00000000000000 0.00000000000000
0.00000000000000 9.31197842908979 0.00000000000000
0.00000000000000 0.00000000000000 13.62902170017422
PRIMCOORD
 96 1
Ni 3.906579815820324 7.86799787262769 7.6966630566628425 -1.4365283009355518 1.806549897943592 -0.20572142013365213
Ni 3.6984664098397833 1.476870467363541 0.5079088268128428 0.46893682071871495 0.5229495274897445 -0.0776498865739953
Ni 4.211109446487541 2.664939235631799 4.8700716002399655 -0.09884554681500396 0.45329268642355486 0.008038811144076476
Ni 7.9993247044565665 4.859074153711575 3.039081492266537 -1.1685514744061036 -0.6181567062212128 0.6954417532566216
Ni 3.4905206194710217 5.369966538414085 12.002479979794757 -0.5852869520763856 0.6980036004465269 0.17966997446223895
Ni 2.0453667506474473 6.291982770896848 3.660755690783029 0.6810446039946851 0.49666873941634465 0.8867999626900662
Ni 2.689764970131961 8.63938354199169 0.312581698417513 0.766141433765029 -1.1725112303848 0.0909319483948821
Ni 8.97840474077166 7.051411859953943 3.0751980006157034 0.44155611471291695 0.4025270258349132 -0.6023485355443627
Ni 8.21152606896883 3.6320813155968517 5.4677451055453865 -0.29616871558263186 -0.083277774283734 -0.19495106899102552
Ni 5.950205226500955 7.732098859388619 13.063989649191408 0.18934452143752553 -1.0926725636896022 1.235088281786073
Ni 7.0082787758561365 1.5118741942900638 2.3903671707787124 -0.02831015979860286 1.3388333227852232 0.9234991178833128
Ni 7.160026776386759 6.640129708540343 6.715059474192632 1.3582801186559252 -0.6306918625737461 0.288840814462651
Ni 0.5957030906691736 8.403343512693075 12.864733797095546 -1.2780161914978505 1.251606334045754 0.1717913430451106
Ni 8.100937013108393 4.016712584737585 0.7429096393184278 -0.5881992406271741 -0.5699842602810441 0.07004430631259549
Ni 2.5775370060674625 7.750098913698 5.811796635074414 -0.44816307850647336 -1.2660716175414646 -1.3346285406752565
Ni 1.6057016889725968 2.6434844373240822 1.7446373383783986 0.6533419958730942 -0.5927202684259792 -1.988717442016704
Ni 4.132441852692578 3.489608045584669 7.639366453369709 0.6918234397777441 -0.4852422427469579 -0.3547456446855761
Ni 5.060306007630743 1.3192186725069233 7.320120171988292 -0.8039695603563961 -1.5868280497657898 1.3791520770089278
Ni 5.1640973192356965 5.037435788601337 2.9118267886060476 -0.3679269192625405 -0.2856819571186951 0.9691559964904793
Ni 9.145247458340828 5.461931637410184 7.201615934460512 0.37056744220918114 -0.9781710555048958 -0.9831314848339648
Ni 4.868739987324166 0.3229310312470254 4.583753405792542 -1.0278781929220364 0.03978705008995083 -0.49902824078745667
Ni 8.759256640349 1.7086176746049264 0.7512885575116932 1.0341725105711803 -0.30249594335224034 -0.97508393193914
Ni 7.676524972105434 8.634569249142258 1.186000577858473 -0.9269983892858229 -0.45757948672436677 -2.5496719879953123
Ni 4.400645455495905 4.582005547440825 9.760437726275002 -1.504898047759202 -0.18173482741106767 0.11985197386334197
P 6.38327740744583 3.464074600723662 3.9457106115879834 -0.45104245693679745 -0.9531639919375973 -0.028271336140867437
Ni 1.824924285222715 2.6209587614966656 6.454677002074485 0.25465671238177434 -0.2125343292904275 -0.7931729839615242
P 6.953924757747567 8.892566923583928 3.2327762308427075 -0.8399454642303728 -1.3606398771373533 1.543742274319909
Ni 2.6712527570088094 0.6655196489643591 11.477258322680825 0.069543455416777 0.6229441003075271 0.5729723963750906
P 9.145731681219301 2.8490370492357764 2.825990833814002 -1.1566380107979695 -0.4801388600821215 0.6506749905638923
P 5.872366398786456 8.206758336011559 7.865226627846277 2.799832612278946 0.5288080431530505 0.500446461291222
P 2.2442892339154374 5.257030863988741 9.977711325439266 0.16105338780231618 0.0014004798919524267 0.47513266511678176
Ni 1.985891144401185 7.699153079695605 11.156294912476517 -0.8930127763689976 -0.6612717922431322 -0.5710638664984682
Ni 1.0789044451079428 0.4078683801203668 7.07896879772826 0.7863868142776264 -1.2538948729696147 -0.3435191798421374
Ni 5.697468819873462 6.1884521946879945 10.781156274149538 1.313377858826596 0.46224603896210065 0.9796669233241322
Ni 4.351990368187822 7.3044369379128335 3.8240989668573886 -0.3469300052958993 -0.4786087965908402 -0.48375537378878625
Ni 7.813103759770054 5.935157069354571 9.026228268405749 -0.22349442784635704 1.4413974561023948 0.36828301705037864
Ni 1.3884346081932342 6.19981280837524 0.3384047458077603 1.651027467261834 2.498564370686219 1.1534251602876264
Ni 8.98445752675257 0.5838405613444336 10.657199873249722 -0.13979962062986245 -1.8472005815854187 -0.7783256345360465
Ni 0.3355655235837921 5.8502783859453515 10.862507580128652 0.8261692363818869 1.4867324325937683 2.0427239781401463
Ni 2.3211968637867195 3.166854873125698 12.919930549252227 1.7020247842453073 1.5348503711469181 -0.22530165625842488
Ni 7.196380740185946 3.974827305749689 7.642596778687828 0.1616146596224249 -0.6247024777595306 0.5775008803730635
Ni 1.8811127630824214 4.27268024788104 8.039692130960018 0.19922064290065689 -0.29908383234689784 0.3935284218807287
Ni 4.286108120780228 9.207200050850046 9.635568751488833 0.6066350787348584 1.5092198150630072 -0.025807190871091037
Ni 5.328593418239959 3.845744660722965 11.960297648694874 -0.5989945314704652 0.42939068299497657 0.43539035222183725
Ni 3.70459369164815 6.987187144707274 9.704545369329438 -0.5552726651024823 -2.3861544549232194 0.05151616560142096
Ni 6.814319577092492 2.2349772554832685 11.51394751770357 1.8761422043204337 -0.010528924555781865 -0.856341646200209
Ni 6.782770594164305 6.801394551028642 4.187871404310063 0.6251115402724912 -0.10435979176501382 1.0028605878317762
Ni 9.052546713048589 0.22081215096848936 2.6081175432387047 1.836445914172076 1.5228088666013515 1.6562295802880638
Ni 4.209870953356062 8.023275112984106 11.657433930969173 0.5183883904816232 0.7655259116682172 1.2933823895412757
Ni 0.5154617725191749 4.627354882405486 12.93981534799628 -0.7516404119353765 -1.628985142749814 -1.0185024081340912
Ni 0.5026876005059256 2.1715440584033345 8.538732229514062 0.08024901475973921 0.11066285116490619 1.6181937085612648
Ni 9.072511594807159 7.8711732572730595 6.4061858055868095 0.1740274314644809 -0.8172732194438377 0.5202141308364525
Ni 5.160502895560879 2.439896652861575 9.773711951530057 -1.106190909891011 -1.1810066694503207 -0.3758731706928107
Ni 8.087630195928824 7.540486279189881 11.569008314975141 1.6807082821557182 -4.957023645821437 -0.08449930539566092
Ni 2.2429948689133656 8.606465698233972 2.9917887474030813 1.0495651909771666 0.6597764386445282 -1.0902660111306384
Ni 6.929136271161134 4.098900106379906 9.990754613629205 -1.0743089735807496 -0.40994722955838425 0.21807814192679217
P 8.670289998408057 1.7835418530701568 6.84717968658393 -0.7251634486907705 1.4780025089199385 -1.9910993119853193
Ni 5.312474383573874 3.020675435697512 1.6674559363412105 -0.36855066888946847 0.1355945814095794 0.6446277559285478
P 3.3529361381357274 0.2577034159232125 6.317501316592363 0.14004644653334591 2.210216179589271 0.2569282820247704
Ni 1.6794898060691024 1.6826000068654468 4.137785065916956 -1.0370462325745493 0.2878208578385688 0.5232241213073698
P 8.935076105126777 5.932661459134749 4.999220360313559 -0.6099140065964463 0.5171128662033094 0.4417278644040909
P 3.1360042885799224 1.434156422295183 2.696978959823362 2.4081834096988013 -0.3260012255630321 -0.45841920901684274
P 1.5084753221623222 9.22133563411008 9.563116903297345 0.5942102227079443 0.8071672413580874 -0.3021737841261312
Ni 0.862285478027459 4.859102089646872 2.2979215736955134 -0.38466788616630526 0.2633400990883852 -1.5751004769162165
Ni 9.185652132758008 7.760649385261647 9.493553630815514 0.40806261094116175 0.5152812123112093 -1.092150629747861
Ni 7.736279937704662 0.2840535212927206 7.956745683075475 -0.3577564064874419 -2.8986673604606725 -0.9521689750141795
Ni 6.75479741095407 8.793077746014635 5.637644945633837 0.5587354268401022 0.15958708766943486 0.35334182235951406
Ni 7.3700491379458954 1.8448612310459882 9.340527095646152 0.25666731505389995 1.3938837267921478 0.3627597732393043
Ni 6.579983639846964 1.9270860006020387 0.08137272352950715 -1.0193297891313928 -0.21392966697605734 0.562148052066077
Ni 0.07109602413176565 4.334362793015727 9.439365365923038 -0.7755544995488127 -2.2558725439758054 -1.0192495707127607
Ni 0.20979701168107687 2.5221959182450835 11.289272758081417 -1.4187964308734275 2.136677744080488 0.9735050174877944
Ni 3.5108766043237423 5.676116453328499 7.159638466886138 0.6212911380851365 -1.671516331243805 -1.424953708724075
Ni 5.123059430285129 6.821238377067594 5.97884700976262 -1.408628232091174 1.0960399374999383 -1.2062729002162773
Ni 6.659852478859676 8.577971044231536 10.332979132989841 -1.6550923813598268 0.36277622829953654 -2.9004234239198308
Ni 5.9549636474797945 5.360533504262297 0.19678817781133703 -1.0584072147488286 -0.80154192475151 -0.2789996600025131
Ni 8.523430786554323 1.121450874564522 4.681091516344003 -0.5887767103971989 1.149319365649369 0.6768529345108407
Ni 3.5361958736808092 4.5132831466114185 1.006567134251169 -0.2675870472901972 0.9639870506950302 -0.5434239932940125
Ni 2.728297936884276 3.9256600596278375 3.342912724551341 1.9550118222341428 -0.13819628069848458 -0.21573689538812524
Ni 1.6844996504656091 6.685907394512885 7.797286433205173 -1.1047498065691101 1.2745783694608952 1.4606434488162006
Ni 2.8964257074770834 1.522974072581209 8.403777450888013 -0.30382263258346387 -0.45614403982942087 0.6508865923540662
Ni 5.0646174536448365 8.76699489442613 1.8282514551165288 -0.7390746594552239 0.4040807434752783 -0.08260003149041904
Ni 1.023256061997302 4.318653485400659 4.742109186218632 -0.062335367704111994 -0.2248224026291612 0.8758234090739045
Ni 5.6036692611262255 5.904893139450022 8.29767583743404 -0.25873345355430927 0.14336188405982406 0.13246760574482347
Ni 6.417489616205619 1.9322448366534604 5.789730970981547 1.6341612876341147 1.2523650665886497 -1.2495952171529965
Ni 8.069127294784103 6.333160339523897 0.49565240080042217 1.643347582119073 0.364334831035908 -0.7143779280394923
Ni 7.728169204490243 4.927358891554669 11.93267180228016 -0.6264659974178566 0.13252931222069433 0.8928626239443784
Ni 7.38261099685089 9.272020732716374 12.29824331396593 -0.3969870698532905 4.595441437830002 2.9896694999718574
Ni 5.856861954696895 4.603506905640702 5.840267077932927 -0.8535633121241235 -0.6123740381011648 -0.7810229788625517
P 4.125038829839004 6.821899527536278 0.4902961508062387 0.12798643004501828 -0.23463707472673787 -0.2853729105187085
Ni 2.199256506217469 2.8963418996711936 10.449289468399003 1.5665235338804828 1.253717723961802 -1.108436254281762
P 0.728599922061714 8.176289542581504 1.3897513219435427 0.6662350497856784 -1.5194031833539123 -0.7595311275373628
Ni 6.390252079291525 6.769305473351388 1.9880924961025497 -0.5210114299267673 0.528459144454064 -0.29712028086262376
P 1.1923429663686231 1.5385530124982276 12.95303556377643 -1.1006118731413368 -2.0863882517973167 0.5261060708408553
P 3.708784081942626 5.157225079152756 4.879162884783293 0.042381807400320555 0.571089577530081 0.10303515941631933
P 5.2608022152537695 0.9561725693719578 12.173156438884448 -1.075408891513148 -1.026366127152884 0.03462993136904358
Ni 0.807005849262732 8.74311898172605 4.677548308550563 -0.23518780502388528 -0.145111262650763 0.14509943557622107
