# total energy = -340892.9160897333 ev
CRYSTAL
PRIMVEC
9.10073309764086 0.00000000000000 0.00000000000000
0.00000000000000 9.10073309764086 0.00000000000000
0.00000000000000 0.00000000000000 13.31984280459978
PRIMCOORD
 96 1
Ni 6.659224759035715 1.9988940984570185 11.630993424003925 -2.1009039289149882 0.33557318552218335 -0.5604806916659831
Ni 4.633274181347984 0.29834204959200544 5.915048720295548 -0.07120490227959995 -0.31010666581996266 0.5481591939861526
Ni 2.787208692282604 1.7658425276060057 4.869548321756884 0.2286831711361481 -0.7942646743638062 0.09340560674635526
Ni 3.377982775451672 4.368051519316156 4.850847225500177 0.6707187965886449 -0.9357074870240466 1.0788852800975224
Ni 5.495650540387001 4.440593462117367 2.948773095287952 -1.9677860911806755 0.5436944733465798 0.4127006239338054
Ni 7.220039229144742 6.187743084126373 2.8161481131725266 0.5719961485047503 0.4305726191182197 -1.3555799461159428
Ni 4.985163123808359 4.57093416024796 11.732929824345424 0.9046395619746486 0.47659587992586944 -0.47728467846277806
Ni 5.3871880044059655 8.045484813640122 12.644486544555907 0.38776735102723536 -0.09084067423265646 -0.22592386322345603
Ni 1.7542572944877088 6.5975854943772525 0.36946336797077695 1.183706327769671 -0.05185503699807844 -0.11518362185339517
Ni 2.422141888427655 1.5059255929174344 0.3431895517786935 1.4176589748348745 1.59563433520351 0.08610830175399364
Ni 0.6860214447502 -0.14175574754165232 4.464757728398358 -0.17679728090013425 -0.5191882606750994 1.3503086704146745
Ni 8.67854090236112 2.3662997906948444 1.4395949003937072 0.16538029731244422 0.38539319436810404 0.2202725784749497
Ni 7.0825635563364235 0.5840968753616103 4.923773219234296 -1.2523046456643592 -0.16706745520688002 -1.204784231485893
Ni 0.6348725950292554 7.543324567763163 2.3711586720474433 0.7666798227670022 -0.7819871425480339 0.328396465268086
Ni 7.810877017444861 3.9472609272574912 3.604602858286424 0.5256412153892948 -0.6619487637054987 0.32134418640699497
Ni 7.560233729690732 3.8954049505818795 12.824011244151166 -0.3784255048010192 1.0625209798068862 -0.6146165542784382
Ni 8.005286875946867 8.986036469211871 6.971619250464296 0.8375126864191641 -0.06633394734054382 0.7354080092369142
Ni 6.899875441947826 0.5670357311928195 0.3412328941821234 -0.2659682807398516 0.5508292846191482 0.9357853914498335
Ni 1.6094373301424978 6.4927177479341 9.182073538775581 1.7401465308176935 0.2503717118531753 -0.10901220293536064
Ni 0.07841464581082407 4.959398948664685 1.3027899516080277 -0.3582274325865895 -0.4582212340734237 0.027032321527443767
Ni 6.479731001932679 2.003417162761648 7.0126444447879175 0.3995843982668215 0.4787291242187884 -0.1422686509956453
Ni 3.4810121738273487 4.241141797529317 0.3503882315874701 -1.2174499998790194 0.5367082718367338 0.3702468256449688
Ni 6.122381619667923 5.9159860957953 5.00180108389231 -0.8726396120292843 -2.057884745040985 -1.6139305624095366
Ni 5.468339240632084 2.7063668809787322 9.51436405270473 -0.3909904859502234 0.5719156729758021 -0.011880553487669861
P 0.19224024375306376 5.741643353574399 12.494957860952717 -0.7087078742379085 -0.027844275905777854 -0.9402781371138644
P 3.977893994560073 6.319831122994367 12.8989494099532 -1.0265813284874836 -0.8482462707865842 -1.378114379773033
P 2.359319528478243 8.557783276087218 1.2887402399913535 -0.5963254692787343 0.41885198824718184 1.0739698450737762
P 6.40377628425373 7.8134070212208915 5.903660973083511 0.018494716370077827 0.8531308525723952 0.06331752911172321
P 4.486206335949969 1.1898207326417751 12.693423916156075 0.8921563419059731 0.06309872823269777 0.11717956923750142
P 4.104903824409992 6.042204161873585 8.25465242078677 -0.39605118830258246 -0.529012702964689 0.09070903375079863
P 4.610040009980341 1.1523257126516873 3.8614228135326103 0.9042891206137652 -0.7076418948672394 -0.48423462741804985
P 0.3688709102520015 5.5547962042014625 3.381215355815866 0.07771519259429197 0.7858905913674982 0.8371840994351517
Ni 1.5362128323657387 1.1890198681371325 2.693271836254524 -0.06542943324840343 0.08851099765821531 -1.5467430088194458
Ni 1.8337794995055219 6.416062273813588 4.995659909258983 1.455689447245035 1.5247181678089226 -1.8831718574737053
Ni 6.060278217626089 5.7656601879806715 9.198777024137186 -0.18185772614217713 -0.30943792188771224 0.940755076750283
Ni 8.53702450409756 2.1834296616460995 10.131299102976591 0.5599713561297324 1.2950428079628342 1.333754108490103
Ni 2.2825639462946503 5.21909746576108 7.039696373652125 0.4222818398643372 -0.3366489350848654 0.7916177236592624
Ni 0.6723794459722529 9.133222624138982 8.986058310971089 0.009391468517228987 0.03139676914372657 0.02041121666650033
Ni 1.427222453870279 1.1883282124285774 11.20549047239408 -0.12059450845632134 -0.5807864931028708 0.750741554270191
Ni 3.970840926479413 6.971652923176424 1.7377203525401388 0.37041291890918787 0.2241968532300203 -0.3668018045191619
Ni 6.0085496512125784 7.878395355626042 8.164624329585328 -1.3596638863773294 0.3590226747943752 -0.8794347805742466
Ni 5.524208640563917 2.939054422509453 4.824180257642178 -0.5865087402986287 -0.2557481456737402 0.4263434115282206
Ni 0.7760777482239659 7.364731783227851 6.920843530796652 -0.18667288814263333 0.836064898229044 0.18643840353432406
Ni 5.207903564162097 4.375532321848159 7.183923880278561 0.42596520225319545 1.0304639513713412 -0.25055734550142006
Ni 8.31884353098048 7.132945214264852 9.073397135568873 -0.5432522436028386 0.5765043207877492 0.4382936419115613
Ni 4.826928679010384 0.4591074082393121 10.534943003976196 -0.4898149497193048 -0.20443663988395758 0.1461283910613677
Ni 8.241523703350435 7.030935097985995 4.846411528232418 1.1246573441263146 0.8347497789620463 -0.23526493811872387
Ni 7.32967575968372 6.08581487444458 7.003439963424331 0.6718164005281978 -0.8413587996381316 0.416102964747135
Ni 2.6125292229404318 5.159123635242954 2.756235257565549 -1.5461997347214662 -0.3349090695756232 -1.45248868091955
Ni 2.4791761821844225 5.458264729193001 11.362345246068147 -0.7889077809272671 -0.36378615762128963 0.9419118160625456
Ni 1.1627733541440708 3.2361478515328566 3.812898615210972 -0.46860874795533486 0.9280294016534985 -0.3828210627655536
Ni 3.67189094792252 2.7432976555223676 2.6876111803239815 -0.6094671488670148 0.24517319837137128 -0.23458976642857016
Ni 1.2025981617840285 3.243373833540655 8.404141061164728 -0.7088012052826631 0.6519302031272322 -0.7384295696720573
Ni 3.8688854145985987 2.5452202016184193 7.1982293224927405 -1.0124657150217078 0.013191044768977282 -1.2260017461037724
Ni 4.268926335400613 6.855545771469253 6.099928291192305 -1.004319945986122 0.44971371082304484 0.3346442459500108
Ni 0.719136281943873 7.520600037443928 11.203612991174673 -0.14601474830163885 -0.32029517631719034 0.6926235670815362
P 0.1732233520610036 5.482509081924456 7.880658707924958 -0.1173528615905721 -0.5811880994166635 0.6717919750481656
P 8.52805118135236 1.8618097571680148 8.10006281955822 0.21590633108645393 -1.2226744815027524 -2.0017596199126433
P 1.6330810344954707 3.2638413820740793 10.545799268380607 0.5945429234570148 0.4701961470471128 -2.0535490937801084
P 4.148687450908127 6.137834664314323 3.864498861289079 0.39906554964887403 0.8875599807845423 0.21478635854939782
P 6.8385183000125895 4.17185791714472 10.531413739715964 0.33879529200390684 -0.33588146079122155 0.8372157240040357
P 6.45519542574499 7.896478512111552 10.411308635998685 -0.15911169069491307 0.1738140299020942 -0.33601438682466
P 2.456842983384501 8.458394170914463 5.854936558635711 -0.018524284056432614 0.1626562135130618 0.039465405084473965
P 6.92105284765582 3.89594189382931 1.5341924696381173 1.4173663832951202 0.42364555298108325 0.6398822708237625
Ni 5.265511204098325 2.826269038349948 0.8447327679577583 -0.8230137214720407 -1.0383754929089342 -1.8481014961331332
Ni 1.4124883671314556 1.1386109080096818 6.787352158898931 -0.03147930155520385 -0.22649413390462927 1.0720428032543925
Ni 6.922454360538944 0.6898756051787927 9.125877422528788 0.45048838420554027 -0.19083396149885842 1.0420210600813216
Ni 2.87292849647839 1.7232966007968644 9.187627716129938 0.32866128889369844 -1.467415991653344 0.6604863202273592
Ni 6.434873488939684 1.8993047771581026 2.66166408044686 0.889006740533398 -0.35433786772419623 0.8292303918057137
Ni 4.2639937381106545 7.005635060225693 10.565485974022005 -0.07451982558544586 0.14319836189876628 -0.1889619412871262
Ni 8.104412059862408 7.333971305663167 0.3294592758905756 -0.0008137541505469856 -0.284970018653335 0.24206113510495084
Ni 7.489575638622033 3.9421008116423506 8.4242946344094 0.9421516999874936 -0.27444597919355956 -0.49284653745677703
Ni 2.966893564778793 8.574892654140948 12.50607986676094 0.33638334012830456 -0.7084314806480703 -1.0033629813894915
Ni 9.21103389135142 4.924652350042802 10.256958384048227 -0.7201742230062952 -0.43428632052438115 0.4917018823293726
Ni 8.626839638146633 2.194186728060732 5.615272395181592 0.48061528549790783 1.3758302117245467 0.5676856940548546
Ni 3.4147588375341833 2.8542355908813897 11.546851686911605 0.8451552905660864 -0.9362669590719425 0.5523333799685004
Ni 0.774798185163139 3.518407085754356 12.42073956313156 0.8609153816138204 0.28799646418448466 1.389219231436943
Ni 3.400252269120543 8.096876652932362 8.267133166032986 -0.24167058453475154 0.9759668487647256 -0.487499928432883
Ni 5.571405041939791 8.053757379943761 3.662796585428322 -0.5481818196939721 -0.19998631742208783 0.4654023252028952
Ni 2.9538158114472983 8.462025363384377 3.4045787575922146 0.4197205068950643 -0.23377189851296512 1.3796465001468432
Ni 3.5465647536789517 4.1752342890904295 9.452599197930766 -0.2700010560483285 0.8781263461754683 -0.6466350161665638
Ni 7.178357871971294 6.2396809673990505 11.569122090653776 0.4030918971994477 -0.7100877853045706 0.027418758332585037
Ni 0.5771866887891652 9.23951918566428 0.10065683728067239 -0.7538703297071597 -1.028965512448944 0.4440662827292804
Ni 4.708782963109576 0.32239346678370556 1.7730712398337063 -0.5683469817879373 0.5038524016489775 -1.1342640139781432
Ni 5.778546825919012 5.640707123790403 0.664031343584654 0.6018980782705053 0.012700992506436191 -0.39392488598819897
Ni 8.013768759109672 9.000834261081746 11.60711037037286 -0.25213163196707544 -0.43181266217290787 -1.14274711174849
Ni 0.27173787679175687 4.8706759025764885 5.4896131141099564 -1.604130288489663 -0.9877196184252797 1.3011409504407718
Ni 7.78834360251878 8.710229654692549 2.5486721096480895 -0.16214662086649492 0.6193301577040237 0.42669205311689096
P 8.59870927242106 1.4602854168858104 3.544956654156561 -0.30435767915132744 0.4991020314481856 -0.36080727749862374
P 1.692399612237071 3.3018005394475396 1.4514495152090199 0.9983662995058484 -0.16956631036933378 0.7062902659353514
P 4.918118023743559 0.9899504343353887 8.220886881183075 -0.5932447734708816 -0.8166304436535161 0.11229755855485174
P 8.508093273867345 1.8067321210078175 12.621164096078092 0.3456969042197465 -0.7765585153332948 -0.2519310859204951
P 6.172763277596352 7.728642793990873 1.4121834925757109 0.46463150847514173 -0.09100548194529488 0.6193440416610946
P 1.74936110012978 3.268309841980665 6.113461081174165 0.33416833475485674 -0.4098677824707005 -0.3653781846987578
P 7.074800631081194 4.046759241226334 5.868136261789504 0.37730398960206635 0.017986152164775473 0.40184954015191443
P 2.443446704397751 8.457383989550653 10.239935462958067 0.06512732862695235 0.6069505530927481 -0.10659125219869385
