# total energy = -381178.65843780496 ev
CRYSTAL
PRIMVEC
9.16004876799264 0.00000000000000 0.00000000000000

0.00000000000000 9.16004876799264 0.00000000000000

0.00000000000000 0.00000000000000 13.40665728387601

PRIMCOORD
 96 1
Ni 5.0885260115964694 3.7294862587256596 9.516607947718356 0.4473436679289715 0.8196000678048014 0.49010394171463334
Ni 2.9086909545741584 8.247808412454052 3.6636236781405414 0.5820892710746943 0.5119830011759118 -0.6411871056781151
Ni 0.1681903981666068 0.26328635747267143 9.041851795018 0.03692438383017512 0.5179785566377144 0.24105969042363
Ni 2.0837919487033534 3.797545418936423 1.0715864394918042 0.936644139905703 0.24021456881451533 1.2947515019746605
Ni 8.501450154881514 4.0739773619835855 11.499935232701173 -1.3441431650339108 0.298486307972215 1.4835591770721095
Ni 4.549869360695535 4.11303580870481 3.1439283275944234 -0.5804843884814197 -0.17229990725041294 0.43980776456324255
Ni 4.12302026154865 7.62524571747094 5.89272147589145 -0.18408584414174747 0.1910918431459354 0.3582145770707831
Ni 5.130323312813388 8.339692858762824 8.48834395751549 -1.402815996284771 0.10830129291126508 0.09968192667337027
Ni 2.6672961969652422 5.8883356446789445 3.057387853569227 -1.587158436522015 -0.6441865546260712 -0.9158781110029452
Ni 0.4241276487433031 6.617026661358142 2.5235347320915134 -0.8135746875463279 -1.166746559986881 0.3895987478090193
Ni 6.702205952179123 3.6774938235498467 7.494213971970683 -0.7976855271198972 -0.16691138924498997 1.059511760666917
Ni 7.766576105477921 1.76570010516648 11.86348381682296 0.6609275215298359 0.061076041375714166 -0.21286934403234306
Ni 8.961623510400775 4.989954729896869 7.556287040499383 -1.260208216782152 -1.1016197455805607 1.2343724866659709
Ni 5.626761300267296 1.942140958999552 3.1078505606487825 -0.0619180776610353 -0.9407051973489541 -0.8524451393592802
Ni 6.146685652025428 6.1474917362917205 8.13864536669635 1.3653133713536227 -0.347247279426002 -2.7604628522320716
Ni 2.809066267299291 2.930986512575908 9.945299132614688 -0.10757572759915021 -0.5285897564946574 -0.18642657645978217
Ni 3.779573403817511 2.5739003426571747 12.204642494443648 0.5489801472255513 -0.31782537462045907 -0.6747934808786508
Ni 4.16092454216132 2.5445790274708147 1.0745286470637687 -0.10152617897096063 -0.05598422867510358 1.4042457867527622
Ni 5.6813368691146335 3.0037081374632897 5.196018264511313 -1.4294413121817833 0.5042987451577766 0.2597773214377913
Ni 5.986082522015292 1.3377426401534436 7.929568176131794 -0.05370366017104299 0.5940109622129448 -0.43781695938545895
Ni 7.653559427324435 6.5673517184479175 11.188994639013094 0.2825120440311457 -0.11358105325296568 1.1103532687988167
Ni 7.738729558096935 0.943384232967201 4.550205534474773 0.2490851318312678 -2.0513731691747124 -0.23408325910579686
Ni 3.5557201390489195 5.367715129236287 5.217897956312043 -0.9851217757911163 0.013782912716705297 -1.5758679512098601
Ni 0.5186694251162922 5.49066129994273 0.44758928091663125 0.1904027874987108 0.2317615529511557 -0.28141546853285726
P 3.9748656374236315 0.6084617163520969 6.95275892625893 0.06461439354627581 -1.0788050616788905 -0.1906293016872201
Ni 4.597794734345968 5.129040906026106 0.9897478183516933 -0.9236484989769834 0.5676090751806482 -0.17359111525801071
P 0.6718932200704675 8.90680062024446 3.9907592375422984 -0.17691709430745015 0.0036584226881936992 0.02643376871149641
Ni 6.525627697618842 6.793687356354748 1.2944760671602376 -0.3259562312577096 -0.6902252420526886 -0.6845135363798921
P 3.92258924074492 6.352200499735884 8.51983620419175 0.8234538943332528 0.6537615999090161 -0.15452844219960482
P 7.479307825078223 1.6870885691060804 1.8062388157221672 0.2381234906134415 -0.5524390523084292 -0.2731079771084264
P 5.321310323633633 8.634673899983174 11.087331840951297 -0.7561904931999042 0.2558779863833851 -0.014355240280407534
Ni 0.06216008898926513 8.647397207322712 11.496476398394904 0.2121743748478475 0.5855669452106496 -1.1277264699699416
Ni 2.1413170531614414 5.955707801253664 7.463566281764335 0.20613433930135466 1.5136498258099027 0.12064001698227611
Ni 0.6992185606929073 2.4563036402633953 5.127577130278908 -1.1538769031130645 -1.168867977205258 -0.831568038799955
Ni 5.998393627173201 1.753966083062848 13.374936700357413 0.7711247459122332 0.2811066790431868 -0.2254492375798827
Ni 8.188378017912003 7.11550733962322 9.039920856798291 0.4944012835384066 -0.5413280299969322 -0.2581845230293747
Ni 6.639065738002435 4.9587189645780665 12.843148253807222 1.1850530716055527 1.7510595781857712 1.1397486912417982
Ni 0.4444794444574719 2.665711508578101 10.003457196422785 0.7245037036195845 -0.7386242021813666 -0.2023746151486063
Ni 6.7540976268216495 5.516877358694171 3.3441294311812904 0.1683560921113165 -0.18673125218439451 0.8973540840568287
Ni 7.08462881619516 9.259343406116823 10.058772897187355 -0.04813567916496226 -0.13450083412476835 1.45098844222494
Ni 7.297105300750862 4.746123399392117 9.646344462363459 -0.22375719458944043 0.4097878211623846 -0.5630229984718625
Ni 6.352795902887122 3.6986901757339257 1.4860474890735436 0.4219689366096087 -0.9054674571925825 0.44512969099678823
Ni 1.97611557881405 8.471643357125682 7.5502404924973465 1.6222123428023545 -0.3851944480937366 -1.0079416018991092
Ni 2.04957916762836 8.283715802497955 12.730250656283985 -0.6490755072872563 0.017426680116879662 0.053308995835785605
Ni 2.86864322261703 1.703430095595448 3.0928491492521246 0.007080046775232968 1.453893788797193 1.789422494234686
Ni 4.787261177118435 0.5908386990802951 4.888858022831172 -0.1732645851565274 0.35343283941142356 0.2452729571740292
Ni 3.4488681735228695 7.512082478541765 10.902279625541624 -1.3027846566917822 0.785716270573163 2.2625707819315873e-05
Ni 0.9726780680081191 6.215001293593648 11.636039813049978 0.7778782625859829 1.2027872556605221 0.8195463317487304
Ni 2.6295384771282615 0.488374396776446 9.630202624930966 -0.6974310157725085 -0.11820106852348031 0.8493117359366212
Ni 4.275837350350287 0.08078979558908347 13.115129329297668 -0.49607918546146185 0.3508650786842474 -0.5702385423836953
Ni 5.184807281175921 7.080479314233455 12.62649661915407 -0.008943068125900728 -0.6789221583350437 0.7588582698400543
Ni 0.5605134425804629 1.9410692333273234 2.4633119933558927 -0.48910095437141576 -0.32472467284345363 0.23158388972271085
Ni 8.686162532492556 2.41940696498359 7.764237545100826 0.3460280623069202 -0.34203873864186896 -1.095523402874836
Ni 1.3591313533556149 4.352818397781142 6.067182843247867 0.8285392792759602 0.04610964987386897 0.11113079194026024
Ni 7.060547048739696 8.519825212133572 12.488287059664424 -0.8013892012237295 1.3158242634845596 0.41703576097404954
Ni 7.778676529520776 3.0761274807508125 3.6620820419812583 0.037593127762425585 1.556600618339816 -1.3988492983275393
P 2.6652260260086296 5.535838659048987 13.045320599827113 -0.17984763769068382 0.5096600094696899 0.459409340844254
Ni 0.3229393411927999 4.9434308436639665 4.076722628513218 -0.19432860491567824 -0.5740496885996694 -0.011369675289522355
P 5.609741930190364 6.035317782598448 5.1973318154634285 -0.08657907074282509 0.8035831235512548 0.2830640598798738
Ni 2.1103560892970563 1.4906513294398867 0.2663971099366789 0.41182542041770365 -0.05410783758799713 0.005155318948694347
P 7.321379429224419 -0.3835770301245914 8.077859284979173 1.2895468178452694 -0.07522122252784465 -1.6325517770551494
P 1.821301599443645 4.024641340867142 8.273127702459243 -0.6110062112193607 -1.717397924267268 0.6980969314912816
P 7.629404379481126 2.665564947802411 5.74712525330706 1.747775508117861 0.10601661064214646 1.9675436361525664
Ni 3.826106450098894 2.5814207424597364 7.712152593435359 1.6428703853723385 1.4164433572602186 0.38112079224499523
Ni 9.035132899457489 0.9706353771969481 0.22868793835664533 -0.9741357090932578 -1.5321100893976194 0.4914830814503472
Ni 1.6641518077106898 6.848556046753465 5.182785658476256 -1.0033763511259302 0.764266328229503 0.1894219116426802
Ni 7.334762260054556 2.3982655730903946 9.718539384463206 -1.3831419148946116 0.7249158514563386 -0.4100914684457324
Ni 3.119811751954733 2.9998975572953657 5.240367555234924 0.835793132624896 -0.895815278814799 0.2453153803761904
Ni 5.335334357857412 6.451587025750255 10.137363365136249 0.7397092077154294 -0.4310436452173674 2.0507478768858878
Ni 2.2799543869151293 0.6249378955541292 5.326022252572047 -0.21640615354100795 -0.46926772169557246 0.2840819596214269
Ni 8.833254590993825 7.617697837522935 0.2228255073290695 0.6316071752991639 -0.3209292103567634 -0.6519088629709934
Ni 4.738932761334857 1.4891857216829927 10.12949305148173 0.8055258490999223 -1.059607405704517 0.20734121512526227
Ni 5.892201185137753 -0.13984371213858146 1.4738206563616556 -0.6836681576604612 0.8580799690475545 0.2754147708647321
Ni 4.415518929630762 4.946087257723336 11.978794171115986 -0.19465590634810992 -0.4751555479349172 -0.8878520581036645
Ni 1.8700880176512527 1.6360212988268066 7.478193047178135 -1.9564076741404048 0.570071934898844 0.07592544768372086
Ni 1.3833505215382875 7.385426488200685 9.4087914290873 0.3121123833960818 -0.5167585681876842 1.3889441233986854
Ni 4.697245380699703 6.6989724550654755 3.1697358481836297 0.8717592663068598 0.14583271419781982 -0.11350314882717871
Ni 8.018981241360503 8.303217545713125 2.2318467282999332 0.80934805105949 2.1910586328242134 0.14230567488116783
Ni 0.4419842472513599 5.11505351199625 9.777568568881806 0.9026677829602582 -0.15604667861634416 -0.8534460698199687
Ni 7.412274590297286 4.9211719258561395 5.6657070783922086 0.3408945977350967 0.5705835844279399 -0.7690670920522562
Ni 6.339889394577974 8.190402388626213 3.7432858717616644 -2.6473985907145248 0.6665181282437359 -0.05083867991842212
Ni 4.594341396068786 4.785346726985991 7.013773093183273 0.24316696657461992 -0.635012858546603 1.2456182347831193
Ni 2.9621856377007876 5.243431591451681 10.10900843506459 -0.6616363746714023 0.6260301954320187 -0.41372340877136493
Ni 6.546237806700164 8.343952281306297 6.180817824673792 -0.2469086930052393 -0.30468832301786886 -0.45670916830427155
Ni 8.612259261351177 6.834202250784385 6.466539888889966 0.47689798454732063 0.20062652210924803 1.677260432816434
Ni 1.3367716750145013 -0.6824089557261818 1.807311457399244 0.4478776860555706 2.2766645410204918 -0.6895387575086254
Ni 8.954148910840617 3.3072263438675487 0.5565407295544322 -1.2779231175634118 -0.20371210301310722 0.01884515773096109
Ni 8.187599413791153 7.4365212386254 4.470476472499741 2.096892750873066 -0.3424827681578231 -0.7490641665677681
P 3.485444247105854 0.3549592066615407 1.7755645613752247 1.1379730873986145 -2.0291511245517184 -1.8105595333236173
Ni 1.5758031401154258 3.8382343542871915 12.095257775512714 0.5527907792208933 -0.7578411414294497 -0.38804220195517686
P 7.924238859925789 5.138283394943019 1.671515570684234 1.64994323305872 -0.04596926764126276 -0.945991385448558
Ni 3.248977595579494 7.1400013092603105 1.0579086551005912 0.4067392641440479 0.4974367279306207 0.09487242109986888
P 1.453983655372096 1.404088871298337 11.55077350176843 0.29708531385963033 -0.36161126145715783 -0.41561728335996806
P 6.027101219111362 3.366537657779351 11.760225338315843 -0.22705771971758312 -2.2185074730637857 -1.6597519916190255
P 2.2300412827444096 3.861400116894597 3.4613578996261496 -0.744503543780279 -0.6324484402535366 -0.026512444468231762
Ni 9.114596320026582 -0.06918126614963525 6.641765204289664 -0.6552888351868199 1.1369683002831839 -0.9218034753484448
