# total energy = -381164.15328296635 ev
CRYSTAL
PRIMVEC
9.35907702608923 0.00000000000000 0.00000000000000

0.00000000000000 9.35907702608923 0.00000000000000

0.00000000000000 0.00000000000000 13.69795525768536

PRIMCOORD
 96 1
Ni 8.908109676057812 0.5739435124076738 0.45808001354743266 -0.18084059773157243 -0.8066530207258301 -0.13748305668154387
Ni 6.099871889461124 3.5564491806726815 4.243640329977445 0.46832438394569664 -0.008236786087495493 0.17605191809367746
Ni 4.3535804691365065 2.7592710968249 12.743344228465029 -0.6421551260183392 -1.363092195332588 -0.7905761697686257
Ni 0.44011807336967734 6.0986364913246796 11.244021062415436 -1.0679141257979996 -1.7081326969152582 0.6337483900118828
Ni 2.863091335670169 5.901094457491895 7.480288920785643 -2.343030627150552 0.09572757001131256 -1.0119553510441928
Ni 1.4313210499920943 2.9845815114973053 8.007002788073983 0.6976737279109338 -0.8663236971135855 -0.20801124460909337
Ni 1.8805286587414278 6.751815819662382 9.63140159226944 0.0654479451911647 2.3524040979456515 -0.9344522744607069
Ni 8.16660874004114 6.943892152649081 13.269003327798996 0.23426169366519012 -0.1566233770554206 -1.157749241584277
Ni 0.02183098252325552 1.6122881588275866 6.060591844168273 0.3737067591691112 0.30480119444664927 0.446458951331173
Ni 0.2242088513340762 4.655625954420321 13.098464102324309 0.2773911778648126 0.16339412012035087 0.44330857862764944
Ni 1.083612629043801 1.7940133528831692 1.8714147897621145 0.9090626307430086 -0.20970611581301304 -1.1861529895379508
Ni 2.1063070272533957 3.153222716198729 13.763567830401735 -1.0304914621751673 -0.04035320700606599 -0.32572200375971644
Ni 3.519209414120322 6.982357958261094 13.054753470078483 1.253855535091247 1.522593665266752 0.34385933679037556
Ni 0.09407182445950893 0.28026316995987327 11.7583107552634 0.29531253822992365 -0.2034539642557141 -0.4797439386365479
Ni 0.5529754367645711 4.977671786807023 8.816277478674447 1.0933991574429816 0.22035639643800758 0.23659291290152804
Ni 2.689396229501473 1.073551621493214 9.625949930038539 -1.4342217642895623 -0.2387045599278921 0.9792146662780619
Ni 2.6222542126010895 4.999104072658972 12.194658992501566 -0.9926036859904581 -0.4323911603841972 -1.876731758275316
Ni 5.607247523477209 4.067520287012138 7.732330730589198 0.7664401959523703 -1.9945129656525584 1.4602917219037368
Ni 3.061176195956846 4.811239324228334 2.32736467743186 -0.01701221828728038 1.2064652187327416 0.6839160120052092
Ni 2.9647028323927036 8.6877221357776 11.487679947137075 -0.9187451481380952 0.6631882925395547 -0.7004988560645549
Ni 4.664077200762814 6.338416038716348 8.705174006270234 1.436008680986656 0.8780821232010942 1.4098672467045976
Ni 8.324739701505997 8.875483934363535 3.141722282637649 0.5516535802926564 -0.9342550708482362 -0.917383491903878
Ni 9.053446779549038 1.8797518553677546 9.548542877713519 0.30771425432838617 2.296648697451903 -0.6394986622320986
Ni 8.399687188450278 2.4076412227010753 11.846197165871576 -0.8091768155889484 -0.2318152890072266 0.7347472357244637
P 6.651673697996072 5.95937342867097 8.093519029839921 1.304158140000541 0.5660777261377864 -0.44351889486624263
Ni 8.353790275866018 8.811439771881053 7.34592533483215 -1.8956000559347288 0.9543017050864662 2.1630107255480615
P 0.14012784134922016 7.956619134076 10.470209785592353 -0.02447973030891913 1.5411614009666101 0.06884797201164918
Ni 3.337091138839507 8.277981753856942 8.340150357350458 -0.5305602499574669 1.0042667241506833 0.43064126757262605
P 2.0021498616436424 0.8568889937759177 7.2509849880464134 -0.07977464622648196 -0.9441013675146966 1.2170185687685555
P 1.699992067438333 3.0525471271553184 3.778210633425848 0.567488490442384 0.3993082617872994 -0.24813845164728232
P 3.4461150243807075 3.8110628647784717 7.3059686282872915 -0.47879545868034956 -0.062348994550866815 -0.3972683485391351
Ni 6.506926216342695 3.906459934511621 12.49072683543881 0.6215472199600005 0.4839464067536697 0.32298583577547596
Ni 2.290166090817382 1.561692989694122 5.352832251799394 1.8841141667823167 1.5787298461386876 -0.41494931075866603
Ni 8.37863862474677 2.867330997456602 0.685495284590189 -0.23565728846113607 0.7074457196960332 0.29763758681867447
Ni 2.938927934909618 0.8164933465295506 3.1279279393550343 -0.3552030439379689 -0.8976998974320216 0.5117387463755896
Ni 8.410000891074228 5.331164117212306 3.994392204596074 -0.2436523908514707 -0.34357085901567924 0.7154521349402776
Ni 3.0957860619308657 8.641731632425428 5.926036397140559 -1.7749754655714203 -0.511059718030694 0.2589363135937347
Ni 7.5710251702767515 0.45258529956329335 10.140307944147079 -0.7112640650008589 -2.024823186600326 0.6441323043493681
Ni 5.024382939072122 1.52225384009582 2.9734975568534354 1.8303287455307444 0.9253724236466256 0.33683019785773605
Ni 5.94003757602026 1.511238206712526 11.489173655792957 0.2753306957913581 0.8288110448801081 -0.7497905032108313
Ni 3.562729121199606 7.1228002645904995 3.807524197843702 -0.13605609442703018 0.11807842690268697 0.44461289926136977
Ni 3.6669798775772717 8.971611012086402 1.1677161008129562 0.901785380355305 0.09152175946008108 -0.3479898140189813
Ni 4.832231733471093 6.687135239958096 1.8448265885058697 -0.5263498114205452 -0.8191490963103117 -1.1943301260321044
Ni 5.277180962280411 0.9483552512567442 7.76419277161731 -0.29825722268054444 0.7693810237482491 -2.200758376610481
Ni 3.0235620663328366 4.837023580788211 5.237153126751941 -0.33556058711669307 -0.4772198866631136 -1.1191667533253886
Ni 8.085811830102331 3.735179470155066 8.134708326798185 -0.18970164766662811 0.07633296753478468 -2.179786145234188
Ni 1.0062598593641703 7.681518430874178 7.201206866316824 1.263403069570366 -0.4992290439443531 0.20349561612692696
Ni 7.340950985517604 1.6911009444866512 7.0515561643325135 -0.46933045661270784 0.32424284811102866 1.0406907713056723
Ni 5.310976588573593 8.41226578765771 11.513774925046421 -1.6851516626390528 -1.4376930106676142 -1.113704958879869
Ni 1.8917127555069644 0.6756719975900994 13.258935768894656 0.8216914031161914 0.2888310442706381 0.8224974439572544
Ni 1.458434295456328 8.471153098828216 1.5837710518446664 -0.7703325890282411 0.37454956678538076 0.5883676478842383
Ni 6.950761715013853 6.694070315860408 10.839766971309805 0.03388019768721262 -0.3450623559595412 -0.1424753676898127
Ni 5.227671446054731 8.218392511927092 6.843634914338239 0.3461087949461846 -1.3166750415206292 -1.0288145886933766
Ni 8.488149182281116 6.8007076368198405 1.8502782507367694 -0.38417629124186736 -0.496615517580906 0.6144648591919225
Ni 6.223945170482644 1.602601514348649 -0.04048455847588373 1.278488760258895 -1.0999490427463574 1.9550509030021943
Ni 4.971429282587264 5.628633013945202 6.360837578985131 0.630833787468249 2.0480988692988147 -1.0531089424643671
P 4.601558567797305 6.180444181556942 11.262061618838237 0.1263021003640599 0.2912561087723629 -0.15382087460961896
Ni 0.8716061420301487 3.488773696395197 10.846246260172382 1.6686089277890228 0.33151367074082905 0.26462745044124103
P 2.967547991737242 2.9183566841224637 11.07949504377912 -0.48014914449476664 0.17733361301957848 0.3730920084032478
Ni 0.8768397377718122 9.476065251134447 8.913560402381032 -1.3486048003496902 -2.1171733554989736 0.0607112018371277
P 2.1275895678766843 5.901496897793918 0.4584824538494561 -1.1924827884107205 -0.9735474406899555 1.1572085385894586
P 8.02222626238262 4.110478449483947 5.7236632078681335 -0.8915750154812064 -0.98235012658325 0.21431044735424382
P 4.439019481163772 0.481866107212379 12.969196533683647 -1.027580202065643 -0.38976047019786425 -0.13465921407950357
Ni 5.92596152452623 6.478165773363202 13.076492733649184 -0.45751315226280564 -0.5932272899693848 0.5959097218975543
Ni 6.3270634785685695 8.32437469751114 8.829030156710196 0.4374909435046078 -1.0397294358336675 0.675507733336856
Ni 0.6805022171220604 4.704630080499275 2.635472972661042 0.813181308762651 -0.06087498110850162 -1.6001430217071408
Ni 4.142037256424021 4.606312978807257 0.17691837221559992 -0.16673346890622898 2.4340584776933496 1.2299028809303916
Ni 8.154133090678412 4.28370560181308 10.328175500300755 -1.2628744507604057 0.5108810263609846 0.733266537413879
Ni 5.772257406383631 3.4612673697057312 1.1175364746890228 0.9056469201932403 -0.6284789140828273 1.144504460759229
Ni 5.560012262911801 8.594852016778088 2.7523304054765134 1.0334932251159685 0.1834181286507615 -0.7845711012251262
Ni 4.577384072445522 2.508167066515826 5.935022046767833 0.3070869051570324 -0.11450639328071248 -0.01682581330808715
Ni 0.7807238909410957 0.6948815027041275 3.9634754303238786 -0.7986273222078762 -0.5770715061451288 -0.9575184122515509
Ni 5.301430330246523 4.317482509952679 10.390350655148028 1.5649453907600854 0.20542265794631076 0.5328361904758372
Ni 7.22731307511832 1.2862272824974403 2.468317053446389 -0.2802895824585302 1.0629511253657695 -2.1313887277674066
Ni 3.562691684892441 2.667009317816818 1.8311015023915107 -0.5784311054968168 -0.11158484875854331 -1.1050789077737548
Ni 3.1725585688494395 4.965299087289 9.775408770948628 -1.2192533716363454 -1.581893845688966 0.40722263153836963
Ni 4.840804647811873 0.5464343779951707 9.789668260347769 -0.3052369964324872 -1.0836778163901595 1.4544419479911792
Ni 4.840374130279476 0.08462290053106908 4.7709017032580725 -0.4364761290868483 0.8617031676224385 0.23085138243206046
Ni 8.515664868047372 6.839959604882317 8.951120249359652 -0.4176129736337582 0.18244985120022125 -0.9360522719579749
Ni 8.457778978093529 6.48846075783357 6.328058348431478 -0.6153688590634305 -1.6078907839733598 0.7529768713586128
Ni 8.946210477674965 2.7120358362594916 3.288152526298093 -1.6213499948020593 0.685869021966522 1.2956832697603102
Ni 7.123296295660435 1.5933547464789002 4.790914217160789 0.5628993284098048 -0.18085885256401757 -0.4000376837541562
Ni 8.981924714710352 8.560747540950794 5.328079365501912 1.1204679886353155 -0.5075851292185323 -1.7497763405979738
Ni 3.998440941215966 2.7355364780823055 9.221532055089062 1.496274824866565 1.0216401824321242 -1.6814996677087621
Ni 0.9917813675681159 7.690727762436762 13.085519563214337 0.9708711794093731 -0.209820015683058 -0.023729996627088162
Ni 6.469761322404665 2.3177566491979693 9.2645023843607 0.3837566872059455 0.6970949725893285 0.37371267270638225
Ni 6.439232013911627 5.118937691894059 2.5227662904024872 0.9086232292127449 1.0949230502866756 0.04691826181809339
Ni 7.069275704421375 7.215707819897178 4.294418001108338 -1.0067398682815243 -0.7270354689025027 -0.45565733000098946
P 6.791376637258971 8.978255956608184 5.432800883442177 0.5620578063451159 -0.2829668721803772 1.3775142842951889
Ni 7.07593000801995 8.938255262402409 12.539738448779197 2.3525339386552973 0.49025872212494276 1.2940357068545587
P 7.19999392996468 8.621955903165528 1.0795086738708406 -0.08231181082603889 -0.05371291614242363 0.29444556224393803
Ni 0.7618747102835305 4.305493532583096 5.9811023972572 0.10748239655439554 0.037001774035329824 0.21569292952406724
P 4.975210349610927 5.374150356914489 4.2332292929548645 -0.2851651653832766 0.9071268471728764 -1.3204293663567388
P 7.685589629278368 4.998130728672683 0.489285047384798 -0.793900349045852 -0.024282269586132374 0.2715097793833711
P 1.7453367944919098 6.803403050935718 5.273315663565627 0.9026040196018584 -0.15001204238649002 2.14821017020012
Ni 1.0082627017974963 6.977575470020768 3.403490045042666 -0.8843928959104705 0.5084698458163308 -0.8786112562316868
