# total energy = -340895.3122443311 ev
CRYSTAL
PRIMVEC
9.04346080470976 0.00000000000000 0.00000000000000
0.00000000000000 9.04346080470976 0.00000000000000
0.00000000000000 0.00000000000000 13.23601901472647
PRIMCOORD
 96 1
Ni 6.406785463096895 2.0413803809261735 11.357179460665405 0.19315618187413186 -0.2865152516532678 0.8990846935946902
Ni 4.636338120899147 0.054801563072415835 5.972184777197232 -1.060546886799651 0.6929521540655486 -0.7590906975658347
Ni 2.51783510723236 1.5774689345931614 4.743166713305139 0.5230179188338347 -0.5178014076299018 0.5289085732866569
Ni 3.516585862068251 4.3877514735288425 4.931661373101003 -0.49540761331573385 -0.029220587428014193 -0.20961689853331641
Ni 5.13437054440504 4.567010951270917 2.7161898522155004 0.042089472970882356 -0.36992775174265324 0.11827074541915114
Ni 7.26040676082428 6.108523086171693 2.8133555068771985 -0.5325034897267669 0.20335651944590136 -1.8511343694221862
Ni 5.068479889837954 4.595407417828788 11.430943352106784 0.42214222896267944 0.09314721087864603 0.20227151391183876
Ni 5.639646779921396 7.8716000079093575 12.484993964698957 -0.28224130686826226 -0.04228564814208847 0.5837412048558205
Ni 1.831879570646035 6.696103857402438 0.14166219428102664 0.1279524914832893 -1.3162837196194814 0.941007301970405
Ni 2.8840862216040835 1.6937678390308106 0.3320966763942995 -0.8402455119692948 -0.9761722799073123 0.24687346889192968
Ni 0.5021426763882348 -0.059554806009618676 4.701063073383648 -0.710116581659977 0.3987063665372424 -0.5194785382220086
Ni 8.4407140324168 2.2849026903116343 1.3547728108242998 0.45637543911393663 1.250960215821323 0.5061633091703411
Ni 6.929759751178142 0.5000898108122359 4.987623212179589 -0.3447566517936643 0.5360325859259478 -1.1898965157407828
Ni 0.7007470208863423 7.466118361076473 2.278157172985037 -0.0762162394512623 0.2010299281952538 0.2643644265878415
Ni 7.684156198245348 3.9238671575778916 3.9231961327949 0.705415833750198 -1.0499416004799789 -0.9146725207306182
Ni 7.703174596070571 3.8300231660266095 12.659550842883679 -0.4980939018986454 0.273133173919407 -0.24828191920368206
Ni 7.769200902547965 8.558695020542272 6.937407805881324 0.0033892281872070665 0.6201248856911772 0.9057929588528014
Ni 6.960109605244452 0.6476203067331996 0.46073266990145445 -1.4722908032471418 0.20121093385780833 -0.7839134130364693
Ni 2.020236769839453 6.44210017708049 9.329341662118344 -0.19847348032198722 0.6294783018816191 -0.4405469567221122
Ni 0.07282337152990788 5.20177145690689 1.2102818220403107 -0.244848725152417 -1.1595976076469254 0.8160424323605301
Ni 6.274461546321492 1.857535868615678 6.9620005928741495 1.0606119357096315 0.43749737126251104 -0.36408594824989554
Ni 3.5185844668801267 4.376817929557993 0.5405249322369341 -0.6455816352013849 0.23761158397402954 -0.7212792831450158
Ni 6.118832631355122 5.416535561306991 4.817725524940924 -1.1145999598903127 1.5689930784668977 0.7798307583266635
Ni 5.208002401320385 2.6041639829525627 9.421808334606961 0.3806376819609896 0.25243270814726204 -0.9029678306991805
P 0.18129244770456218 5.491071764291059 12.335929697845442 0.501546122113304 0.8114787242492476 -0.5978658171826607
P 3.9516305818876574 6.139388417497174 12.551981591047403 0.4935839298434338 0.8931238480255652 0.8231175940397567
P 2.3092476864816307 8.537668974444486 1.2106155257396691 -0.166637566758313 1.6671279723681225 0.1551107970656361
P 6.19314274782201 7.560559221033112 5.831061573173164 -0.19029840071036258 -0.8046542451282465 -0.783404848831167
P 4.827236532545673 1.202870706007134 12.675830880812812 0.27457761967541744 -0.5868329564072667 -0.3219674218132907
P 4.064483927803476 6.160758115101076 8.331835287473014 -0.5984826248310532 -0.14023310862285526 -0.44500344983156914
P 4.492737008646779 1.0297698249930558 3.831086677003427 0.5175363268939732 -0.18028755344157982 0.95319767338901
P 0.20347696111638158 5.781701460396248 3.5160685761169423 1.3803972622699388 -1.452868175746156 0.5088269720454335
Ni 1.2707599653860948 1.1722495481202069 2.509112689399536 0.13692255619238355 0.037109246147471575 0.0007942137665212128
Ni 1.9337631987482555 6.361351116604302 4.886129357232987 0.11159153362676263 0.7746075622545111 -1.2662012011407935
Ni 6.010654754614597 5.63312644476591 9.263849824167565 0.10145778762687044 -0.21078983579549504 -0.32608632907767066
Ni 8.593394779199135 2.1514573844110156 10.101465100824639 0.32643934154171517 0.7398531894924613 -0.10393453130213713
Ni 2.347411090581699 5.351621600494126 7.154505123138727 -0.08768670198470704 -0.9796733510820353 -0.4326238452202937
Ni 0.6773642489334663 9.09301885178598 9.072152874942356 -0.08646208554898657 -0.47709004595346866 0.3864152078747151
Ni 1.371802551644404 1.0229420121742048 11.386059752370043 0.015548489257560317 0.8538618172011488 0.16304882096579018
Ni 4.035165028255508 7.1758865772415215 1.470932445967366 0.3224214786315737 -0.5175381266661861 -0.19785153046727216
Ni 5.687794164620156 7.967279821980145 8.03930646462351 -1.3400818504803438 -0.9693115482317372 0.06171444629066145
Ni 5.414211391910376 3.0256073378983896 4.760069845675622 0.034641501333269376 -1.1810760892356755 0.2418078814435642
Ni 0.7030531033615833 7.537398918213142 6.882716573029292 1.3675926543061028 -0.8535710254336073 0.1807855761239209
Ni 5.136857496094025 4.590659600967998 7.101627104154483 0.07058886596215586 -0.007709195718799627 0.1994129614171211
Ni 8.284162684460334 7.174014580879267 9.14329597147658 0.19079076696574884 -0.0897070748488455 0.020744174525886852
Ni 4.788440086197499 0.1308507370294551 10.66426045934992 0.12466559320190143 2.3699045687232605 -1.128096965935483
Ni 8.117455530152121 7.04843708577653 4.864765990051568 -0.0552676622240532 0.7575439219040051 0.5019592983913226
Ni 7.205720954048661 6.045472078260394 7.1155250945386035 0.9378615572525718 -0.6333593821035802 -0.2147328796036431
Ni 2.328618779273656 5.28680711774882 2.4209470868137597 -0.6241437770425832 0.07497953883068377 0.7610591341461151
Ni 2.396372386742308 5.240405120962694 11.364816663215764 -0.9883901621297428 -1.0060562119509384 0.33043457874403737
Ni 1.1048848094611052 3.379622649960304 3.802959705574035 -0.0015802000029263108 0.6266814558627724 -0.5555398027209401
Ni 3.679169198303093 2.634088794366573 2.6251918377424865 -0.6755218744042432 0.8885861080562116 0.4349301247559671
Ni 0.8859580001066769 3.3091740912068603 8.279818205946194 0.3817152312958845 0.5762117292479948 -0.6708239547079415
Ni 3.919987512943074 2.6553318835208533 6.743830721179242 -1.1058980612409408 -0.783082946715374 0.42395151425727634
Ni 4.131369363046155 6.601554475917553 5.944004449349786 0.3207883139035249 0.8101273524276758 0.05437214699297732
Ni 0.9582360509571455 7.406133086338143 11.330059026410503 -0.35086225047076997 -0.23620313366227708 -0.44551072848529083
P 0.341148276196138 5.57024726260767 8.019756311309877 -0.5451186073876161 0.24834131168670778 -0.1376200964800404
P 8.483118819579174 1.3941941603059607 7.772071296970089 0.5043684220534475 0.918489066263231 0.4456889059343679
P 1.6884412406860383 3.219734265010254 10.373319668197091 0.36409417578001163 -0.48254232731729146 0.43690293221162174
P 3.977096967182869 6.173337568916998 3.587066977280169 -0.2566308053890096 0.5138336812314055 0.824513703056335
P 6.897836334952254 3.980171743816524 10.388461134425704 -0.09184443290682245 -0.378429104345445 0.44461752724706
P 6.405329465926253 7.5784833601151815 10.120934767338154 0.2211711790298191 1.687087960429817 0.9773876403716522
P 2.322125574500232 8.446302891121501 5.603508206669196 0.8416657893555892 0.07485792565115494 1.6685482497544166
P 7.088581007767099 4.070506872621164 1.6264555524436948 -0.36034653581212134 -0.05253046579854824 0.3086969299566297
Ni 5.32487104378133 3.008117284929306 0.7067826265489929 0.9270798932560356 -0.6982188017811265 -0.7007526239465738
Ni 1.6852850729061983 1.2590667707175192 7.262021018556949 -0.3590337305379688 -0.15826245532074035 -2.0711287545350845
Ni 6.909674224991826 0.6867947697380994 9.106182513162297 -0.2764748366981303 -0.37765751628674316 0.6738604275414201
Ni 2.9401104605614115 1.6345150846081453 9.21208415084785 -0.23228245845163223 -0.407527307262982 0.7515005439234025
Ni 6.251898111906878 1.9201980077174254 2.7539915178880796 1.1687592195415355 0.6069991469424966 0.3410635192127932
Ni 4.301974248910561 6.973738100500093 10.496308924851146 -1.0020370634892164 -1.5025981959814314 -0.4526985044829816
Ni 8.087440284131237 7.337827827767571 0.24257365035937115 -0.1678925222113367 -0.8690454669201227 0.34356725947125344
Ni 7.468623399686834 3.7011448077730376 8.267362647541685 0.1827128750536208 -0.12393000058745753 -0.20566357031252325
Ni 3.0771098465121076 8.383523187030821 12.30364725623027 0.955189249897742 0.45889923397705484 0.6636850296703151
Ni -0.06475298721263274 4.847421536799549 10.114912726866535 0.27405671417494093 -0.18754732032778668 0.692990977723284
Ni 8.893908977835457 2.2786536589767654 5.723016635304741 -0.5311114944752465 0.17432619365182236 0.3877241564941258
Ni 3.7005841132104296 2.7586895957150905 11.512808375631776 -0.8969581341699907 -0.5520143060661848 -0.4051924884822183
Ni 1.0847721528927279 3.252869504968228 12.700489685068654 0.12080328203301778 0.24606614249928588 -0.5821769456924941
Ni 3.0457561683095156 8.33892988238214 7.974277651859916 0.37770636724680756 -0.3706540883857165 -0.2486693844500879
Ni 5.505586518694047 7.93616127375542 3.5508135520772415 -0.5152318471305127 -0.06911793784358419 0.4360614101469329
Ni 2.809007410978783 8.384020577368618 3.4030596826773034 0.9325416877015552 -0.29390897301417773 0.17496357012550512
Ni 3.394987489667891 4.143026383871981 9.321770476831004 0.20933459140620722 0.7951049108769145 -0.5695710840030256
Ni 7.1698907628058945 6.16972018464211 11.592833054906917 0.40964563915756547 -1.2813835653081869 -0.7580260037467462
Ni 0.3221949912878623 9.228942065914897 0.34373651464482036 1.3806715989772478 0.08567584220226536 0.00581454979924805
Ni 4.653538783126239 0.6482994706308098 1.6597571920783138 -0.25751063689080167 -1.7662360288158934 -0.8888715005071144
Ni 5.8494008071007775 5.611648225633763 0.6375594567186674 0.23581206887144548 0.6650063195848999 -1.0727562843816494
Ni 8.086508807680453 8.638422169960803 11.229914455798433 -0.9876391428963314 1.0770453986753064 0.07557757742599887
Ni 0.19791613713981002 4.990832736377484 5.719297059924087 -0.6242872445989829 -1.0045138071644828 0.7618582330086427
Ni 7.779962620765756 8.79122952519276 2.6069529862285012 0.3321325352717506 0.022443159494864574 0.49180498356614005
P 8.256634390128436 1.6327425663134503 3.623320402483097 1.3233804785652628 0.521594813234063 0.026585978018644537
P 1.8551393515335648 3.2279999880783734 1.5407913710840033 -0.9013837740415122 0.2684941324854989 0.6794597760060685
P 4.682812465370771 0.8951063649378688 8.065818273974163 -0.11375048895129442 0.7894387137300727 0.5331526932749915
P 8.369107910695393 1.6555501741666192 12.289484292448016 0.5202426700815428 -0.19698095493686077 0.19809012884063948
P 6.28178674947814 7.771326115809462 1.4236261031125181 -0.4116405581004072 -0.572421408967627 0.031145572364868944
P 1.847506670713551 3.332388654790954 6.075809271481743 0.41027581654239664 -0.1980083677601106 -0.16400167179736272
P 7.024960261832507 3.865699618437693 6.086159512238266 -0.1278352491791347 0.21462797859466262 -0.12873976327127504
P 2.5238128347466127 8.625987411515876 10.206399992562728 0.22914519837423114 -0.44487772288698224 -0.5888199049303084
