# total energy = -340890.3363445545 ev
CRYSTAL
PRIMVEC
9.07047446022102 0.00000000000000 0.00000000000000
0.00000000000000 9.07047446022102 0.00000000000000
0.00000000000000 0.00000000000000 13.27555623014620
PRIMCOORD
 96 1
Ni 6.440953122655878 2.085084431684567 11.543255663229969 -1.8206272019722645 -0.3522377906620579 -0.08574063400192976
Ni 4.6400466618977125 0.5190814953395384 5.869415258294266 0.22352888062871823 -2.2280022999280984 0.1085064669435357
Ni 2.6495763513345403 1.581718440731466 5.086702231215766 0.23588534531154215 0.13774453787304664 -1.0508957368631322
Ni 3.547136100298829 4.3631250706949345 4.673500386518548 0.2514698300133605 0.08157801798380789 0.7426472072978307
Ni 5.088073686983531 4.2590050921355935 2.8842739759730196 0.31844758158549025 0.8336604025526093 -0.5281094744241291
Ni 7.265667889669642 6.063666729400734 2.713390768719016 -0.2779876737982309 0.7830065849514837 -0.8437658664177277
Ni 5.1239655551915035 4.532996920024958 11.667581031129739 0.5480411803510497 0.43996357341481646 -0.2799741081006404
Ni 5.627712506080094 7.81348827690459 12.468920277911318 -0.4779778478750607 0.18647722719205947 0.30838299826063664
Ni 1.9631500409037301 6.466468367859069 0.450820731279413 -0.24858633781797834 0.47209387829045796 -1.0709809376487816
Ni 2.4658085348337777 1.554298395850824 0.4042257029790962 0.8215021699235208 -1.2208484840376073 -0.33587220481984087
Ni 0.6784842028233047 -0.2022597931789515 4.543678310978132 -0.5302717721827707 0.9783924274870828 -0.49428944055089064
Ni 8.773126354404477 2.4972921523596487 1.3378977326854615 -0.07593187544162407 -0.9643835148025004 0.5668824814272689
Ni 7.114073046768494 0.47890473490476654 4.886068774142371 0.22728191991324728 1.0717124164981673 -0.7942474479726257
Ni 0.564686934855046 7.347801037666404 2.3742665834778722 0.9222459622025019 -0.5868049313828086 0.024647109124718843
Ni 7.768698273060525 3.8935919502032275 3.7076907580637197 0.8199461382903105 -0.8548293233207406 1.1280002924566186
Ni 7.81196443716263 3.733951596283513 12.507897014549293 -0.7474613408570223 1.9085311621741001 0.6239344892452545
Ni 8.123979694803781 8.796473756165234 7.28238658855287 -0.7521831718127239 -0.021015940130034775 -0.6109110804023931
Ni 6.882785013552653 0.7064004026675493 0.35229995672431264 -1.131302103136342 0.1306125548139557 0.742149955946438
Ni 1.68876818260422 6.90208698361749 8.856986520775461 -0.002566218065279451 -0.4656553217539658 0.5055493297354261
Ni -0.005712584937422525 4.812177059416714 1.5298616300840568 0.57535066679928 0.8320017839032638 -0.7722344340366442
Ni 6.537345056809561 1.6794165232354006 6.947324161862024 1.3170473372583833 0.8774128650482115 1.154466457067947
Ni 3.706259437163235 4.286878660748962 0.6852081456847071 -0.6525997183904308 1.3524925654398707 -1.0157533846340443
Ni 6.1249649971160425 5.412370367306915 4.756790927081228 -0.9933081682566507 1.2849864521680967 0.7863934991458457
Ni 5.342364443923258 3.0314977571381494 9.419047553218022 -0.27111022995210726 -0.6026768654180588 -0.03918926860495186
P 0.12952093578188503 5.814636847760633 12.510539243816158 0.9715059847798946 -1.0454514259191092 -0.4475848374055002
P 4.04826168401226 6.179224576499437 12.756774512215197 -0.8070767385268101 -0.5569929902276988 -0.9227115889850108
P 2.1903019376771065 8.510490760782583 1.4082710102926266 1.1351322755157094 -0.17271616885222513 -0.3116657827769665
P 6.407773326369611 7.866759174550641 6.0133228739257 -0.7368964208569826 0.07821115839410402 -1.1259382677212675
P 4.58536984068021 1.1722409329273973 12.707031122162295 0.410780266982641 -0.2178022625575862 -1.4059149469250691
P 3.871060891161377 6.1967940859052595 8.125357499903805 0.39157309792657075 2.125872683045184 0.502010206233916
P 4.850508885306755 1.0821892605572307 3.5527915412459277 -0.9155754921608619 -0.3735758900182018 1.7531455141805228
P 0.24514227620316945 5.671223572997872 3.619115758967311 0.3016161118504483 -0.5910261685530079 0.08936126147365256
Ni 1.4638657635451673 1.051376858155795 2.6716130695077194 0.11341598843001112 0.25488734033534166 -0.7930459714653568
Ni 2.0751704028871663 6.647251998198492 4.648621888636105 -0.13421518456354947 -0.8653178815568904 -0.3779529360399749
Ni 5.857540192876557 5.481278763257374 9.386216970205952 -0.1650717649330899 2.0627829536735507 0.46647936031715787
Ni 8.597676163161918 2.2945216914576476 10.532958984784537 0.9152489620593786 1.004067977876316 -1.918004391771858
Ni 2.393816177500779 5.323352729047365 6.820940703263142 -1.1490578844578663 -0.30897640887026145 0.29007108732532627
Ni 0.1616440217709004 -0.025878971236837415 9.390199815626756 1.4219491175697965 0.663238943271832 0.09200075597902865
Ni 1.395583230345871 1.0165371650077482 11.51335937876864 0.9628691350405031 0.3868931759523982 -0.9773827552756459
Ni 4.158059779705337 6.983666832660327 1.5946329825445849 -0.3908215644725269 0.6867133722446883 -0.009051568679306992
Ni 5.728059167183152 7.909317841629692 7.994699126600241 -1.47164674190524 0.5317812668487616 1.7574549401891542
Ni 5.580500685503269 2.5191157143784464 5.059553393527295 -0.6397447168046336 1.664878257101997 -1.6139891835616138
Ni 0.5900951484573134 7.429344604810622 6.3379497195265095 0.9040394664968043 -0.7237819949622115 1.2982962819031254
Ni 5.074340988356574 4.5613240123710534 7.415845017382287 0.3892804452376522 0.18758331577204468 -1.6144609809917099
Ni 8.055189215023832 7.007014234421085 9.110603341448359 -0.04815341977677513 0.14389333108326188 1.0452040857949936
Ni 4.485431350936607 0.038310963798335214 10.652386296370862 0.9124850261609962 1.5662497113938059 -1.452150837964157
Ni 7.98785908166326 7.280634172849615 4.742082245381444 0.1350885883074383 -0.899294238502335 -0.8737338735347274
Ni 7.017100602236922 6.17039900466058 7.177004906969084 0.9251870471086968 -1.6641395791637597 -1.359089244820782
Ni 2.407458171381191 5.265891272110922 2.436900932109793 -0.5981661220318989 -0.19112655303861278 1.5896032985180817
Ni 2.245586480696462 5.187749132962153 11.480462581291595 -0.9054180920118858 -0.37821441723147764 0.44988803161738006
Ni 1.2291400204352592 3.1985668297999235 3.900158973853107 -0.44267454458807637 0.6284837991788338 -1.1477527924931976
Ni 3.438163417799314 2.644714576919713 2.776117636192413 0.060678034606347124 -0.5125949237282978 0.09002512030989657
Ni 1.2234256214029058 3.332238414783721 8.183172705351774 -0.6227389262752565 0.27711941226066467 -0.9025389706918778
Ni 4.075182852786904 2.5660463502409807 7.116322524482817 -1.1793557641104593 0.1928427643987711 -1.2266856595446745
Ni 4.153941784212181 6.84999524767653 6.0729830139184005 1.0415996562731866 1.1333343030750223 -0.8004168100081313
Ni 0.7355855619159626 7.800073044890541 11.377324935137338 0.4158327418048839 -2.417282800896908 0.27379780408659943
P 0.18248615843207772 5.830029443249369 7.656424844834228 -0.23008210836620374 -1.4942881334538394 0.9859391294860891
P 8.614801219309669 1.7088955658626206 8.069586779442966 0.14251110602375455 0.3400322497348015 -0.027242894876353084
P 1.8421952613855825 3.120043730715664 10.262960886885562 -1.0517681121657565 0.6832963761433394 1.267994031375158
P 4.1130520844695635 6.315626374354248 3.687816441048181 -0.1126909373385285 -0.7836946121574438 0.7168898958280685
P 7.091641762947844 4.023254385389723 10.319435476179592 -0.11838747350267352 -0.14246791149064497 2.2422570100748995
P 6.294591943630395 7.9355405838559365 10.30912053240246 0.8058292392729541 -1.21682702158304 0.0010724071285723466
P 2.395448862938595 8.640525085429914 5.868326801335724 0.7487255522814267 -0.9098447603246718 0.12350499723489698
P 6.890386071313149 4.004578278076048 1.764560161770001 0.8913256184745617 0.21408701848952805 -1.6392232755380545
Ni 5.41025694671241 2.955196924344249 0.43595875855796684 1.223421386971106 -1.0243835495052165 -0.04424405742003994
Ni 1.560348402445395 1.0085007244638353 7.267066556861369 -1.3309477493895594 0.7872882430459731 -0.04703910366667383
Ni 6.905252579271922 0.8086101392646468 9.290553395167029 -0.3016940162762352 -0.0026811463765889307 0.5489109845505127
Ni 3.167446031260234 1.8105574457905846 9.12464806440343 -1.0032591088217753 -0.9308007937510485 1.163459661705493
Ni 6.5021062627767146 2.04225365036588 2.6381448321274372 0.8524001450539579 -0.6698230242472529 -0.40213056172744294
Ni 3.769825323542176 6.606353227981219 10.463196150121622 0.8639168874443057 1.4235799683049999 -0.2339657596913261
Ni 7.841162295075559 7.165339369515894 0.3068577857525865 1.0871518909816889 0.040887996463613456 -0.1413872768319565
Ni 7.447966289276371 3.850697675561959 8.218034167638992 1.4664955367216035 -0.5683276985142277 -0.7000584260930265
Ni 3.1425566488082053 8.350487587876685 12.365690112915585 -0.7781970793779823 -0.2605201131410868 1.3314072055244812
Ni 9.153197383378561 4.852214134541807 9.91187546671749 0.3790723943563988 0.12817772012021797 0.3200630057017262
Ni 8.792546240639824 2.363765694970324 5.779659283397837 -0.1101961959411328 -0.4452870425102589 0.2965176142816184
Ni 3.5399432138977867 2.844618767830883 11.597552431559448 -0.07063591715000739 -0.6156249409382947 0.2671103647640948
Ni 1.0091084462656887 3.1892423818550677 12.514508483524981 1.1531135425844785 1.0712732720782194 0.049609435497011335
Ni 3.203936550795405 8.577947880788317 7.93939372148918 1.5834881867592794 -0.6074429193481345 0.5057030817044711
Ni 5.743351987450688 8.029419996530313 3.5480785226154343 -1.1003650472378532 -0.5265364735100545 0.4081960511952325
Ni 3.131554163052262 8.610202488659823 3.7685191751919236 1.2625319798193224 -0.16410554436507865 -1.144300829388855
Ni 3.3644930226552274 4.551954212052925 9.259740085718128 -0.5976840401891578 -1.722154465115647 0.8318241206748191
Ni 7.240796648166923 6.1529655523745745 11.43186025695023 0.4671187936733697 -0.4585066265243265 -0.4684639948473545
Ni 0.2896365825734973 8.963796802117336 0.33551957861343346 1.220592916383375 0.010960869886877897 0.4292970948399058
Ni 4.588490083961368 0.5117026642080789 1.4672544928760995 -0.2995206627740003 -0.8069019035118427 0.3444643173642261
Ni 6.018504836095833 5.591584805531104 0.5542295846258393 -0.49219861946013305 -0.19352796339125378 -0.3883381359290409
Ni 7.87236472788714 9.09850242121175 11.52467026066284 -0.9846888020187557 -2.3463586630825204 -1.5578077512740396
Ni 0.18363992280813385 4.74858396161381 5.558050353685844 -0.19615768770461703 1.0885631695069187 1.501121868546221
Ni 7.916937040339496 8.747475052081468 2.352056619238792 -0.5413383144095774 1.4235478295154838 1.2869291777167642
P 8.611590271281965 1.569137692385634 3.497883422924734 -0.5533517939306857 0.3003814681123988 0.9356408954521693
P 1.9322015813824762 3.3369913435026946 1.3855168175742747 -1.8304279901127702 0.6631322424906386 0.6111147117727669
P 5.018820612996199 1.0356033027315685 8.321211723881728 -0.8160110649019624 -0.452867168850362 -0.05045584265770665
P 8.548604895280913 1.5941087091095527 12.588586142981056 0.25269470355939705 1.9588728478514457 0.939157650356176
P 6.198499335140311 7.816254771674222 1.4321408713934858 -0.14041128607193237 -0.056981045370734125 -0.02831298801208027
P 2.0450110746608567 3.383695217498866 5.934001573071842 -0.7219778518739371 -0.1063310565587717 1.1098051096048307
P 6.845160684685665 3.970427941001745 6.1343293551493785 0.6120588208535911 -0.3968754839760907 -0.7411469686032204
P 2.4191862951094976 8.613876030894906 10.101623447157984 -1.110959534924248 0.02432700678113875 0.2092651716208525
