# total energy = -381165.8356161614 ev
CRYSTAL
PRIMVEC
9.20239218441798 0.00000000000000 0.00000000000000

0.00000000000000 9.20239218441798 0.00000000000000

0.00000000000000 0.00000000000000 13.46863115395186

PRIMCOORD
 96 1
Ni 8.176215025396454 0.0024487565597486926 0.2223509606298979 -0.24521202202910677 1.9759421446289067 -1.2319199113604202
Ni 8.742852324030522 5.605370328563259 3.3369208400413086 0.9994119671615432 0.891470114472226 1.0771222746598288
Ni 4.227836635596476 0.3811483603693921 11.112253895272335 0.009045398031719904 -0.1800345568905093 2.931946691339092
Ni 2.38770789001035 8.33226919202636 3.3280580161303956 0.5387073045446336 -0.3533788462450365 1.4068996794358417
Ni 1.8726960115197993 5.54715599561711 10.351855628040788 0.2278719880887624 1.580902171199658 0.44709375670169454
Ni 8.954176058108196 6.804322398837508 11.066298989191639 0.24402494369954106 -1.2045338060379835 -1.2120972202075382
Ni 4.320771594246991 1.6993781571556248 13.44277167858644 -0.3238494693273519 -0.761606779119469 -0.524769868527935
Ni 2.110826314024936 4.58657349004474 1.6084640438283746 -0.03393779039802543 0.12245367315224716 -1.2203877423511047
Ni 8.275113134181192 2.74684044732246 13.158273282591617 0.4143204189254155 -3.1682575542238274 -0.02949620968690404
Ni 2.8474870106218644 3.3730724377300447 12.702791679129305 -1.0364800756584345 0.8221421175003648 -0.3806610789997573
Ni 0.9725088058408184 8.23834037502014 9.923485192187178 0.24073830252846926 -1.2139576704550448 -1.8363826650343085
Ni 0.5551205048177386 7.713325496227273 13.065945681825143 1.8863507694223192 -1.3117385234509602 -0.23448537964022195
Ni 4.554043033679796 7.943541741455506 9.676524274143766 0.6852920664171295 -1.7112159638262723 -0.702568851219706
Ni 7.71828558561361 6.77715693711493 1.6924009034028948 2.946989701715144 -1.1453274708811565 -1.4724720660200126
Ni 4.074607603366579 4.8327834928860645 11.114112778493187 0.062365449611099036 1.4041349722065108 -0.33969466388972464
Ni 5.161290489014997 5.696381987247642 4.843387409397896 -0.17571304669701995 0.9008883224623323 1.4113847117903886
Ni 3.3147292712933414 6.840975526900189 0.9552865288713721 -1.4339597688774273 4.335361754660443 -0.012566780921417067
Ni 4.587760598636276 2.716435743551661 10.886074739494537 0.2961268066011029 -0.940792871966754 -0.04363007798512486
Ni 0.12377401533232568 4.160199053055503 9.926677502035268 -1.1364720773730557 0.6803930864536153 0.02269538471498672
Ni 1.6477343322277418 1.12195565488373 12.948082362991602 -0.34904319498416014 0.7398493328377194 -1.3682986792341918
Ni 4.934598759992639 6.888331037071052 11.992846447277234 0.5164868025835363 0.1912283687237997 -0.2965160716197216
Ni 0.5062613237642636 8.64455237073764 6.8615272293612435 -0.7387375878307793 -0.7570456421113478 -0.03277282355564678
Ni 1.362736246337411 1.153179371558767 8.089071132146351 0.5133767961996449 1.737090517600189 0.4655956721606239
Ni 9.257698559461788 4.551641209320178 5.610654342154419 1.4876336042517992 -0.702844473478596 -0.6858947329981349
P 6.220697484234646 4.622002699947155 1.3570988608864452 -1.1402863089128232 -1.235876582015323 -2.5239876958553307
Ni 8.257702208172006 4.1373403108743085 1.5967604414507408 0.8513678471347016 0.48636170106338167 0.09445050307110185
P 7.128108567776846 0.5655385330074849 6.317542539323482 -0.7500273018119857 -0.3088830778255068 0.48302749448382615
Ni 7.662537493772357 5.736246750181996 8.967333638450656 -0.7292538167100602 1.4371757047115636 0.09517915370701027
P 2.2628866424476626 0.5249449406122823 6.0779619398103915 0.03527116449746829 -0.00578369656131262 -0.0817489963440334
P 1.5800231305493093 5.502800465297724 13.076895608283035 1.2713894302099522 0.6171367495971307 0.13290546461319047
P 9.291655386615012 8.213457106558808 3.0465099070692636 0.4661392033689198 0.07044591262638836 0.306734149803304
Ni 6.108768788119564 1.1230875491221708 9.852317572005019 0.20011975767615858 -0.37246337368031335 -0.7776759167671897
Ni 4.248054291221308 5.272933910972422 2.5012727714554712 -1.0717584392447541 1.3987564815034168 1.924039028001712
Ni 8.448081297642435 2.4067016274749173 8.799797647094712 0.16409551706274964 -0.42610198494137586 -0.33505202291139075
Ni 8.333419491049167 0.2834686483096083 9.255980472841326 0.9440165211103743 0.24646569193054976 0.5005781017730798
Ni 5.558189663843862 3.263223482248195 3.6761016908626587 -0.36638837113082706 -0.3850895470847562 0.14586665275954877
Ni 8.91783581137972 9.408433743410242 11.410543916430989 -0.08549457942939469 0.8989275991915359 1.2679086707502034
Ni 1.3241046039555056 6.79958316686355 1.923751803587224 -1.9738348684779168 -1.482682688004427 0.12552125633397737
Ni 1.399232933732989 9.007246253824357 1.2989811530582118 0.124060869738367 1.277507627292548 1.2896995413730499
Ni 2.183147914186774 2.220518828839684 1.5893792026812015 0.25781634105667856 -0.5665544086638887 0.6356422646004859
Ni 7.193417945095661 2.6591324474315745 5.359410630789299 -0.38812653413886705 -0.48497793334197764 1.1811935886501463
Ni 6.514474652267029 2.192479139859773 1.4466657439981851 -0.12912208631135827 -0.7819562893100985 -0.3609479168415461
Ni 3.78137337647296 1.1138575497631782 9.085575175602896 -0.569109828095891 1.1155142441744659 -1.084120560354533
Ni 4.331786857689377 3.3930140215894036 1.5666713797317995 -0.37544945289183085 -3.245313001746933 0.03191330376882891
Ni 7.147912115753469 2.929830015870385 10.875434933653194 0.9728856387362406 -0.9387195343774931 1.1008178185045556
Ni 7.632059170864098 7.040612222906157 12.800479673342053 -2.7062989645951583 -0.02777357056884249 0.9053682126105569
Ni 4.564230081825763 1.6417067653482402 5.522044507829653 -0.6271072305462813 -0.4402271114888483 -0.17370424379710728
Ni 5.613450028899446 3.823989654669864 6.307265307734127 -1.3683997235884302 0.7930349157217633 -0.03224111942189286
Ni 7.904928503857966 2.636991491840611 3.3617571763025103 0.5047389180189887 -0.6800747838822482 -0.34248533926098434
Ni 5.654685948268983 5.849353352496431 7.384028934849086 -0.6698677614422592 0.919246770364862 1.1929219328306682
Ni 5.621115621587423 8.843636923212662 13.208106996977214 0.7524194561932461 -0.21455367371330145 0.1521280602882283
Ni 1.8372115872642902 1.044499119884088 10.407184090798522 -0.06181780463774516 0.46760010418516246 1.231269422260615
Ni 7.473916061208775 8.822112527897923 2.2097980419471357 -1.0922100222308866 1.6411444038201672 0.9876928789524022
Ni 2.9249803551902365 7.529056795165987 5.936232216851678 0.5552006742139665 1.3424374951967137 -0.8912315160988588
Ni 6.150059921842196 0.4570607339608198 3.758623222519519 -2.000595938621845 1.413974841115068 0.565401268896052
Ni 8.381704442830456 0.4803013754175854 4.558121533895056 0.1448063298158345 -0.8518226752839331 0.1979425475191817
P 3.8072689080743607 3.5590619861294464 7.613210831196014 -0.11401634101817137 -0.40454431337525815 0.53692501583323
Ni 6.343144514614263 3.515111361066088 8.777264669596775 -1.2990305889659886 1.176753807711238 1.0513839893534602
P 0.4500715170982526 6.099492776799659 8.536202484942311 0.007158208311336059 0.41340484908968156 2.875223013394803
Ni 2.6165713835877646 7.680620194410861 11.481981166704092 0.1649162131918321 -0.3943550315470821 0.3428776896033966
P 3.9107774153425057 1.6190044638341476 3.5495503935696715 -0.16110532408617415 -0.21583048354319603 -2.0450911928207427
P 1.7596170163819116 5.683599864506227 4.617774200739322 0.45681432642356806 -0.23720432123328178 -0.23669884235177302
P 0.017368595005147244 2.047909558673558 1.864354963245631 0.6813953024658845 -0.3014747011765776 -1.221770224520928
Ni 0.1134332872369119 7.270994111193675 4.9925388616517505 1.7524595438570918 -0.1678434141409561 0.11128171569582772
Ni 4.818179296492524 8.877198047502041 7.493986478558688 -1.0974321898617743 0.16501262956038035 2.8605353294756415
Ni 1.4927108335222683 6.034901186071075 6.8789952102019605 -0.14133379788620176 1.8355907652606323 -1.1986189832154455
Ni 7.118344829671272 5.220544692277762 11.139191137668787 -0.6151945382690953 0.3191034700019343 1.4482165359067574
Ni 3.449645543080172 5.105045467995891 6.0900842510323265 -0.5686971660385045 -0.7387519860084826 0.24503435880066185
Ni 1.2709883962784314 1.2338567438222647 3.811959367369753 0.6639187429476759 0.8254428997388236 0.12738042102990318
Ni 2.584243379850834 8.377452937642166 8.314994461421474 0.2530382029417449 -0.8417910020795437 -0.7462336390975084
Ni 5.6376431179470945 6.819395917232354 1.0845157222894513 -0.5272031605597759 0.563383724245391 -0.3338914269443862
Ni 5.7951604649340105 3.6111659306664516 12.912511436249579 0.6634253482510252 0.6999614955038461 -0.6104914763664712
Ni 0.9262115707709363 3.8310202822972523 3.4196043338005797 0.1565390448717304 -1.381229528363247 0.23187185327677484
Ni 3.131343999881572 3.596865413214932 4.110249388528408 0.8248291774142246 0.4501950213348375 -0.8476243209318691
Ni 2.359226486205682 3.287020868431999 9.885853849835504 0.6159653549968489 -0.397168075515845 -0.006563255039814503
Ni 8.010038227365856 4.160447517644429 7.418764284380945 0.15483594613769464 -0.9158439153309001 -0.6057917568979567
Ni 5.357522299913461 8.308462603450375 5.654467851574259 1.2549927340194837 -1.4525159346130598 -3.233550976114999
Ni 7.110872487219126 7.399376684530968 4.320036323111613 -0.4841091575837792 0.3156610199792886 -0.21875177095504905
Ni -0.18743708468970044 2.010032512450613 6.42845621158084 0.6097702819297306 -0.5450463593887839 0.7351051332845147
Ni 8.796180186727792 4.8118572530631845 12.897871350526527 0.3029307168968138 2.2473670776079553 -1.2216725226007994
Ni 3.4802526994789855 5.995119244666364 8.486301593093783 0.05370031773693332 -0.5444231239824882 0.24999607368131138
Ni 4.137551965894505 0.051954865783649634 1.9718214193914454 -0.04416435322204007 0.6456109457774236 -0.5697659736226509
Ni 1.975956054199018 2.775846387481528 5.952798363258517 1.2124126945654279 -2.462257308725069 -2.101390381633103
Ni 5.4642332396610955 1.855966062532114 7.554353251036312 0.7294602762939114 -0.5948116037373692 0.7896456875345561
Ni 6.443487398971646 5.49371770421365 3.130944616060854 0.9189017283206175 0.2980780167902028 -0.24999813056384043
Ni 1.5463147679850122 3.9300564269647285 7.610288151438869 -0.9562164056106758 0.4494941386130711 3.175627621435653
Ni 6.804570863426434 8.291254130069202 10.872067778353639 -0.1021833529389853 -0.5164680335304589 -0.15883144045033293
Ni 4.2149808937176 5.181379311149274 0.17325067690124277 0.5555308038598755 -2.291450698190731 -2.9625957836835175
P 0.4900605123270686 2.6983254357366087 11.419163797188286 0.7531015698619352 -1.1955262032227345 0.16027537198571107
Ni 4.677290672179286 7.341631673586124 3.2578870150215953 0.24625177614753077 1.5470577118463873 0.8445199709749326
P 3.313045233523954 8.884329901443436 13.141720939773053 0.31736360449269213 -0.21352111868372906 0.6588580405953168
Ni 7.190528393950372 8.297594578282906 7.972379277837635 -1.5787321601315327 -0.8171986574521604 -1.3292600772744914
P 7.321993768668786 4.96975189812958 4.979568089870595 -1.3775340817895307 -0.6904234741064239 0.6143746134709612
P 6.44323893438272 1.544906801981098 12.589964829537216 0.13932216677281167 -0.38992579213113493 -0.4126733702402957
P 5.6044961013059265 5.758617765577521 9.774388034047199 -1.9488275478003014 1.0093636790576166 -0.6029496594634713
Ni 7.740380529243661 6.350165939849469 6.582187694423899 0.7922296462116485 1.1401251007446105 -0.22804708021404596
