# total energy = -381170.404222475 ev
CRYSTAL
PRIMVEC
9.18535120353485 0.00000000000000 0.00000000000000
0.00000000000000 9.18535120353485 0.00000000000000
0.00000000000000 0.00000000000000 13.44368995589983
PRIMCOORD
 96 1
Ni 7.8048387469127825 7.893183453684905 9.515201639079201 -0.32310333518994677 1.0994440780854806 1.006285040132293
Ni 7.060669157751094 4.773636146202882 11.813911068931501 -1.73218588120972 -1.6256010567689294 0.8432624444187476
Ni 7.997740305128769 6.682113283328186 7.4189272433379605 -0.7029038659616217 -0.5500427841621107 -0.9564105238993529
Ni 6.095803137978694 8.185874666129667 4.547408297166494 0.5868123875819764 -1.1520069397838613 -0.3563795807445734
Ni 4.784667752860536 6.73295420160472 3.1807639983484712 2.293556431679824 -1.4516864967332288 -0.763210376161163
Ni 6.529691567360561 2.233611009615723 12.261062226750495 0.06787455235478633 0.4246328565950171 1.186231665294686
Ni 5.013814706472947 8.394079019259602 10.785012129648829 0.2435814284042192 -0.6342356140609464 0.762398421782829
Ni 7.4768849716381 0.8410906582454293 4.861776019645725 1.239327002457769 -0.6424155787685775 -0.7773907814266031
Ni 5.431389952321096 7.65231599208318 8.460933678624357 0.8715769750927247 0.7443209954558277 0.2658158143223874
Ni 6.94335385364488 2.173143843398122 6.526602533789396 1.1761807088165872 -1.6702125248307171 0.5152274762551385
Ni 4.638574743793098 4.684290236162079 5.223922264348483 2.0428021396762497 -1.0155623516691608 1.9055098588492732
Ni 4.840753506608778 0.7908229058768367 3.2584142008478993 0.3025162550672145 0.1645763133539101 -0.5284038657360964
Ni 6.652205780183038 5.68033133752988 9.492320929516989 -0.11229370190010982 0.035538559226242016 0.2318155461175427
Ni 3.5312255579311604 8.374211104854517 2.3808641285256775 -1.3815210914617368 -1.184491542675128 -0.056903655165579416
Ni 5.581588813325231 2.4187417608105815 4.812276162628156 -2.180452832283909 -0.5371435596019395 0.9996158556422333
Ni 8.637591861974904 5.607353723129328 10.550594621581661 2.54123105631681 0.4624388716991971 -0.9289750533962194
Ni 4.514205090050682 3.693741974745382 12.37772628946451 0.37144907348318607 0.5258800708729782 -0.38885492766445934
Ni 8.834893203362428 0.3528883293403515 7.018291621967784 -0.3764472980287259 -0.09494595465028163 0.511779369805538
Ni 5.20927897764271 9.098393370046967 6.462139739848165 -0.5069711497836172 1.4462049047933674 0.8277098413961292
Ni 7.5358457402771375 0.07495246488464621 13.235285363677058 -0.49858086883739294 -0.8265564445179764 -0.4632567396148022
Ni 7.743682679363521 4.232040289953691 1.0032341498054451 0.5714379620084352 -0.6019078484625182 -1.56673025057465
Ni 8.55416131803529 4.328780407620982 8.435632629050247 0.6083410056823716 0.09315235308496861 -0.7348441663136441
Ni 4.0719947325823584 0.8103978075821885 8.913394887907788 1.8084406872084018 0.9982354303549389 0.044426605744491234
Ni 0.6547731596898974 2.767233981119831 1.1232673992988356 0.5686994800313496 3.2226662108816946 0.2823012135719203
P 3.2358522229684685 1.1974023679365784 6.902823491965529 0.25937571512399843 0.1175842608750878 -0.41519022312487847
Ni 9.075035022228137 7.471061459047797 11.939609842976466 1.727897281136695 1.1995273539623277 0.201994091880736
P 3.7010810702653365 6.426641113495261 6.771990106661922 -1.2972812103750495 0.498451028127748 0.12846645500523035
Ni 0.6623703635754477 0.7925708781890363 0.3827287794225513 0.36194987574349924 -2.3726746752692294 -0.8039770165555638
P 1.0308627673454607 8.39624676211656 10.182008527230542 -0.07607842832181737 1.040538304888208 0.2288081267497866
P 1.566359550471685 3.894846051483672 8.566184942610535 -1.442600989492193 -0.12189728642814492 0.5763783367328461
P 5.999494731812577 5.462491551107789 1.359708440210866 -0.8122549402936398 1.1371711603226091 0.20273945468719276
Ni 9.023238827438368 0.904205042646824 2.8297219245769694 1.0489033890234516 -1.3199010046570947 -0.4540935850582954
Ni 5.387979983075406 3.3741927957169557 1.1522141147200948 1.5209275904182387 -0.1329417171677646 0.5013538035968398
Ni 2.0077248556398386 2.1204015574462054 2.80792967911878 0.4696469594118621 -1.4723041729835804 0.9258994997946891
Ni 0.6683830943981792 7.157473572876006 8.529954243775855 -0.2135514577010322 0.06402998179771553 0.8343029212326148
Ni 4.2799970079883405 5.50682924081345 10.533130513556516 0.7304594069823872 0.03569745340160949 -0.14472611139720234
Ni 1.8011922364080653 0.5618054657147785 8.353142665062126 0.47383760045444206 -0.9219603126412832 -0.4959300614781072
Ni 5.002250349452142 5.249198513474655 8.060621381612508 -1.4455179060286718 -1.7159807322047675 1.2570097644495126
Ni 5.867289973591411 6.460672839279282 6.5001716860313605 -0.03808215158370216 2.3781066449180783 -2.404198456909124
Ni 5.164353425467366 6.478483235040475 12.566932580937472 -0.14341844832937237 -0.8911350997303104 -0.11429839103496443
Ni 0.7299525027464371 1.6177607751646357 5.152966345722575 0.1582827670357145 -1.568763221844279 -1.632512439176782
Ni 1.1364943048667144 5.611064604969205 6.431259508022713 -0.5758443186062471 0.4928007718205062 0.5450309327698162
Ni 2.603633692877131 4.985156411075876 12.311596354300661 0.2639196257409391 -0.16360623613115693 0.5807612962918902
Ni 4.1649321148988845 1.5161432360691898 11.519830112867004 0.11302158120506986 0.02316409682128914 -0.6389890695855318
Ni 1.1547731535334358 7.587375559885332 4.776219985464163 0.6149947635534635 -0.3975424281361283 3.0371732019797757
Ni 6.6716511684380375 2.745657591412229 8.63802816615162 -0.0598748219787614 1.8041117208157444 -0.4658041886270042
Ni 2.113227798245849 2.5463446581362565 12.50350497606395 0.5022349206502124 -0.1870996912674068 0.5265130764712868
Ni 1.394088290801153 6.846365731498191 2.7177359611724805 0.5711661964042873 -0.15233066321733765 -2.637790378200799
Ni 3.2651810489950215 7.863165726326692 9.11249563957361 -0.7123603833888312 0.14181305151546544 0.11562276627334281
Ni 9.022035546445734 3.064444386300284 3.3357153600059526 -0.9255526579782317 1.8880574677007806 0.48317636135686465
Ni 7.625081426104874 2.00879035636614 1.0704507120031 -0.59878832899693 -1.009752686965919 0.6239655995935061
Ni 8.030017628854829 3.0095986549490314 10.478415214190726 1.827706220306233 1.1780123627086874 1.5739247114405603
Ni 9.139451889413925 1.3491719239768982 9.215877684613215 -1.8762738448022913 0.6401820614523684 -0.5602449215060932
Ni 6.765644866129776 4.333731311857848 6.515941096780621 -0.5310253625193435 0.9536764127976413 0.8259620054670871
Ni 3.8085680487065288 7.76097869546374 5.04497325443639 -0.6463915326971901 1.485469506720945 0.3334304281475677
Ni 6.84691685256352 4.02972374687168 4.058138630464897 0.25833904632936794 0.23132960762005966 -1.4953602834720956
P 0.05492656244083424 3.1924146976695114 12.595325419688077 -1.3695994003234864 0.5537019781812528 -1.2888258805188448
Ni 0.9846971927731284 5.482258426650897 0.48304567280382277 -0.5681868020609891 0.6429094876858605 0.1773233286069333
P 5.434219040456448 0.3422443444986447 12.740679007992865 0.4827467300186137 -0.22872893677241898 0.20609911518804505
Ni 1.0075595316331631 2.4867409149210027 7.167597666846086 0.56586098214129 -0.4363604294445904 0.8250718895526499
P 0.6414654230324371 5.420174638641665 4.36031279937374 -0.5107468147759656 -1.2986500656981181 -1.034198478713109
P 1.6870918051829336 7.734423845466005 13.46183837414199 -1.3819581789991555 -1.452738592146827 1.0196123533688184
P 8.371372831368078 8.018517569291644 5.636334424349615 -1.1027865121951523 -0.34889098567701204 0.2014096801321757
Ni 8.865544719945769 3.676905226199603 5.799621492120187 -0.3073414443699997 0.968629691673364 -1.1822726806469381
Ni 2.2268230351610967 3.477215693528989 4.978332613752003 -0.8092050977237225 0.9777401386150644 0.1864890542666014
Ni 7.614095746202664 6.352763334688005 13.399621398541973 -0.19554113716654067 0.5637573055347259 2.230471330293881
Ni 8.19084394106871 5.820922321295125 2.4773360339411754 0.25281708806987424 -0.747866289604925 0.6147170844120445
Ni 8.894873545972322 7.93656586687733 1.2315020653186568 0.778468587871814 -0.26456214442094433 -0.7683296996655993
Ni 3.4562547223443367 1.1015899707292567 1.2233142433580964 0.36855581109579105 0.3368111716943425 -1.2631816975881793
Ni 2.0696524926805595 1.5856671584603523 10.404272897272111 -0.269252093697446 0.7789290724480005 -1.4707080321410542
Ni 3.545692485896028 3.3321881851878516 9.47628238798083 0.7286640056448613 0.2249591853173416 1.1282430045950438
Ni 2.1740164517515583 0.0289219149733193 11.964372630976776 -0.21900631016801636 0.4335108758109373 0.22199161804858542
Ni 4.637132643672155 2.917607363794653 7.408589130687511 0.8832757515868918 -1.659857149738322 -1.3571668309870886
Ni 3.2049986286611736 3.3347876395459837 1.0971130306085732 -1.6147756840186513 1.3619416266679125 -0.9150448164683725
Ni 1.9601171809465638 7.945962481041177 6.920340875026989 1.520006621265866 -0.21578548923787352 -0.9930464299548317
Ni 6.88149051406178 9.087122944261004 2.457439644947716 0.041977372873050284 -0.10303258831315804 -1.1318142668860702
Ni 3.963442253414865 3.5028152670134878 3.3522241915178617 0.45254809494804643 -0.10818482193805884 -0.6148404973637862
Ni 2.42121262025347 5.803497710279663 8.982401675032651 0.3895874349551097 -1.427021389886381 0.26576542070042614
Ni 3.597984689644593 5.980554537867462 1.1043143458621962 -0.1442903094113644 -0.33773676883240544 0.03258744701771807
Ni 3.090787973222976 5.759885663310018 4.302236580044554 -3.0003128386183167 -0.10118807890525154 -0.9266803438247718
Ni 7.439684299728441 6.019408572973106 4.8700171166426 1.423084773836136 0.8171744890824442 0.1999932594006233
Ni 3.724871129585341 8.268643864790885 13.36554190893229 -0.682655657235547 -0.08103345833424754 -0.6945115281328684
Ni 2.9437580583444793 4.323057933892657 7.126392181861708 0.8393086019773223 0.23453860147566058 -1.5638711838593002
Ni 5.553573492504377 7.873894216398416 1.003072487626282 1.7018610049739338 -0.504947434485369 1.022433110647065
Ni 1.3329138525497137 3.928409324362164 10.60582062646799 -0.7238293032603792 -0.07585217124362421 1.2946080344182607
Ni 8.464043838503027 7.786385376575374 3.446195844366987 -0.81157951149317 1.0062300185246413 1.3845848179887252
Ni 3.3004252411227655 1.4230497027841542 4.738819991435877 -0.7370851398290209 -0.863941570034654 1.194946933680497
Ni 2.4766737701276726 6.977348838024546 11.192799465376748 -0.23863616858380193 0.14578000658301346 0.2782262721715983
P 1.7685291279362756 9.029484866178755 3.444179659802994 0.2926648161944314 2.117976825236875 -0.6098798109244012
Ni 9.088895717021144 0.7651948578039629 11.435551761021896 -0.6340690065760951 0.5257700276576752 0.7551219427260738
P 7.015523157149619 7.053559696008358 11.5204087899856 -1.2494232103515062 0.07147666788374787 -2.0105458507457055
Ni 1.7708162803573881 4.477968880005348 2.6295051527538584 -0.25440140183785864 0.275598347630448 0.12196902020634479
P 6.692768290591199 1.9369884669049537 3.078524610984313 0.7992402732015267 1.1216936335123007 -1.0365489812231568
P 5.789738054348633 3.5415958193104213 10.34780962559412 -1.3150416196822643 0.8153474631760346 1.8241807236514775
P 6.502411074626811 0.6658745750158267 8.07836656138097 0.28781725829414306 -1.4103521567608164 0.585181793957089
Ni 6.7131965114127015 1.132562974600706 10.2467533114502 -0.6558945870916187 -2.4198616173676775 -0.009976137376105398
