# total energy = -381176.1112574416 ev
CRYSTAL
PRIMVEC
9.12943736956103 0.00000000000000 0.00000000000000
0.00000000000000 9.12943736956103 0.00000000000000
0.00000000000000 0.00000000000000 13.36185440802296
PRIMCOORD
 96 1
Ni 2.1782654490801563 8.195751368711516 9.910901468034746 0.3688106074190745 1.1751797783558988 -1.2868019081102806
Ni 4.505432018347814 5.980438663609235 8.494665574533412 -1.1221358632560416 1.1085031029639554 -0.12527391620986167
Ni 6.296892344115632 5.578323474168482 11.66727736677126 -1.370834301171852 2.197473535211622 1.035753481905055
Ni 5.247974790294497 7.887477663906407 11.39851677896698 -0.7166721233903076 -0.9848690363503619 -0.14126283543895027
Ni 6.451481103657934 8.275004012754907 0.4190466436099574 0.3476051769860529 0.41582605693666447 -0.3154206218337084
Ni 4.745061485097141 2.424532016649613 5.011764297764067 1.340868350937381 -0.44424703128151877 1.4714508238443498
Ni 3.7316574418541393 7.354848040731718 4.637672828649958 -0.2466456691518397 1.9798790177894674 0.2990514364470656
Ni 8.034598543846418 0.6227846410824519 1.733767760537108 -0.4890767860016997 0.6813353957622266 -0.1027083722045199
Ni 4.606567923279582 3.9653801627566656 7.312969486561018 1.2880195825674656 -0.09557047560815798 -2.124471174711967
Ni 5.198118933927608 6.962912173731743 2.537469545006665 -0.36257388248074335 -0.0764779777530812 0.28654867599436457
Ni 1.8689418590008855 7.045159273165782 7.570652415307328 0.2815813046867602 0.8510189484357151 -0.06608403611326683
Ni 3.420343634472546 2.5788195047654168 0.9204344198567711 -0.7482036183396856 -0.05190183107561384 0.30452917173218524
Ni 5.2482395439723275 3.900634194371028 -0.02542365662159121 0.15784979326335394 -0.10472000331790995 0.9873100416916868
Ni 7.047112972719439 0.05621542229715241 11.111944659250632 0.692899189340426 -0.03161119914737782 -1.5257864611724368
Ni 5.658233437687869 1.4023089371036606 1.6279009812655998 0.5483450847447137 0.32070141061667345 -1.7223730088843563
Ni 7.711407338711058 2.316914211329548 9.426360242191489 -2.232814119494445 -0.1644611279322845 0.14185624604857505
Ni 1.3953614354198662 0.6917977083997661 2.1221960977776697 -0.37801130008173606 1.5403065091654826 -0.13080127378599407
Ni 7.661688423901669 0.26696300162617426 5.991414985914656 -0.5022783722936383 -0.4569842763425291 0.17816253667877704
Ni 0.34792102453228835 2.133302971034574 0.5127995727050834 -1.2117773749742744 0.6934463200931477 0.4707047112524152
Ni 0.9762472339748759 0.12306846478084535 6.201637622606598 0.6275031804331193 -0.8815022046262367 -0.6220830378588126
Ni 9.108713344247413 1.9205962144895967 7.416363101304091 0.39879044161061644 0.0037412122099871052 0.1609618565297744
Ni 7.977731279735569 4.3702524422217355 12.779651812450108 1.0768111711773132 0.09632406594473088 1.1732308821596438
Ni 5.23760374967322 1.7045937311274708 10.173835649039292 0.023004431314973286 -0.6044118458312945 -1.845589785454873
Ni 8.909280789342695 6.160233799168562 8.438210960982495 1.2364535375647157 0.11946656549946522 -0.13113114632158707
P 5.995401811125318 8.915278829561162 3.071916839121227 -0.5380133638014024 -0.03832666349434045 -0.053062941263250556
Ni 2.9133220825502137 3.803916937027902 5.473963964973183 -0.1176120287892297 2.6271663228280495 0.7548054399269194
P 1.5806251038419974 0.5937210778625309 8.34312878583591 2.1064407995728174 -0.5629656628713658 -0.9402778800035483
Ni 4.523252679697047 7.018291339584433 13.648465655735686 -0.6379146055744304 -0.910795297163399 -0.062443868257518256
P 8.03478113258975 6.809163322408769 12.268827849947881 -0.8122929926204268 0.9632200906220185 -0.02845902667164131
P 5.154343282713686 1.3502711452539518 7.175235493915722 -0.054576806804615685 -0.7336594019769236 0.18293270437391076
P 1.455104472238199 2.9731655431773794 2.3988399545753234 1.3806844544930543 -0.19833824029570354 -1.014243632857737
Ni 1.5816293419303251 4.034690849725611 13.119817380109358 -0.7902375554822842 -1.1876264887596837 0.7785683466744721
Ni 9.137927543180584 7.56557370941154 10.293705159036955 -1.1480811223668936 0.3008249834077207 1.5500134520406015
Ni 1.7731192865000878 1.6085337932603412 12.16620841147654 0.40429774458209083 -0.5688151796736075 0.17067497005248028
Ni 7.5261254114145935 5.44685044953205 3.8287453543462298 0.4547998670967006 -1.1483063510038225 -0.3762544652916294
Ni 3.3017157279295426 5.362284473057691 12.568025981265658 1.9978885669930107 -2.89074116363506 -0.9897024531832633
Ni 8.871968779642737 2.6201393373815196 11.480852433941536 -0.4317704960810628 0.8168088782129094 0.23869247574303407
Ni 8.460906741778702 3.0532946131887644 2.524281160075772 -0.43553639088139834 -0.047205196930892895 -0.14927490711014937
Ni 6.210746975011447 7.21308614040851 4.73998369214507 0.21010720790617363 0.8500463001098005 0.006959976257600917
Ni 4.492723841811885 8.713171349566625 9.060940825441946 -0.4537554849925862 -0.056936822396360005 0.27768505495614754
Ni 2.3553674006753327 1.7264769920158485 4.915906120458319 -0.5541434365940455 -0.5997406656078703 -0.7080049346336129
Ni 8.85142754601785 2.4663722271842126 4.774898311645074 -0.6737745526958332 -0.8724444652993426 0.6201907059321061
Ni 5.245902408057674 0.13362848475146966 5.184453079432901 0.5237661098537689 0.9569877365590616 -0.4700549934835582
Ni 8.586062195895835 7.3435914447052815 5.050500499662017 0.1211534662835849 0.11153779757069178 0.5448018474781455
Ni 2.130819764125255 4.640292064173059 7.77734743747809 -0.17336691506234655 -0.30277413671429143 -1.11057155545721
Ni 2.715268072657654 7.294274225131224 12.013229171706708 -0.31871909007932203 2.8883577510045484 -0.28540453508759234
Ni 0.31060353717003036 0.915700806685881 10.078579101642825 0.05507868614169869 -0.5601618748739837 0.12415497211407006
Ni 2.8450247631067627 5.699598917489805 3.1800678035718226 -0.4770414521037204 -0.16939533200910828 -1.8379878047378992
Ni 1.912580568657308 5.928419130633859 9.803231624922832 0.24477262049884296 -1.2956398181168847 0.4574915549962508
Ni 9.007796545807643 0.12104172972985668 3.889341993539641 -0.31479250133140624 0.4512242339303003 -0.2846578867295549
Ni 6.335199462466751 5.2371016306290565 6.082703879918513 0.3098331004436019 -0.29503820152261445 1.0814658963405053
Ni 6.177607118096632 3.682258057345582 2.3978786248416784 -0.5842883356085421 0.6241170375697058 -0.03476619983659174
Ni 4.702472660714879 5.3498866973854255 4.379908647912865 1.6905278393493013 -1.5081764614001574 0.9914284347354344
Ni 6.683624431930637 5.735879300789935 0.856427935881629 -0.3657682210483249 0.8061249161365021 0.37134468669483783
Ni 3.8297623736465907 3.4955975850369585 3.2802816353497626 -1.5155902373657253 -0.38464834578227947 -2.1336500129977574
Ni 6.246150932343583 4.720850217731275 9.32502440258577 0.057047636942611425 -1.061286850289469 -0.5076833453592934
P 4.489628962612402 5.643188125237287 10.540458325607393 -0.873820519711263 0.2500025014392146 1.2241407816356338
Ni 7.552025624656282 7.4775933234368654 2.570272525690031 -0.4726394663812828 0.15136752797311998 0.4113675069446786
P 1.7146452414479147 3.893467586195235 10.955784723571956 0.7796317549419798 -0.08103834343025398 0.6136871004856334
Ni 0.8507037787781611 4.439015362960685 3.9316185911708046 0.23482373681624716 -0.8030565616238234 -0.09432246213366982
P 0.9071465240607621 3.4109768319395988 6.197963024147035 0.7836107941943858 1.4082633925525876 0.37363245428775005
P 6.530423346837661 3.647283183560277 4.580189327530362 0.29723675183583004 -0.30572679158471217 0.37938632605239175
P 1.8224273766369787 8.677584803491156 0.18842793134407998 -0.5893554657188044 -0.18845620529530124 -0.3537017768020941
Ni 5.523473815671455 1.1326983986991679 12.423584591134048 0.2948535963156341 1.0519576024687431 0.8515190280005851
Ni 3.4876458452648365 0.3928104670805374 11.322073262739758 0.7478480347724797 -0.13471449279747122 -0.4487410624971304
Ni 1.7519937688965392 6.202594387621659 5.110909072449795 -0.4696832119664362 0.9113959068618755 1.7971643429636337
Ni 5.285359835491787 7.554673161434601 7.084014157746899 2.5374677326196364 -0.8839249551351164 -0.477260767203378
Ni 2.8077036239696374 8.108419172775672 2.297210147092841 1.0157145609763087 -1.7670574962759245 -0.0919840438084803
Ni 6.738245854498499 0.2307620444293933 8.569972475833392 -1.7670091595364925 2.354818363814099 -0.5757054790355375
Ni 3.858447065224097 1.061917872346397 3.011989387672129 -0.27088988641118505 -0.5088200300668979 0.5960516467920574
Ni 6.291542493935996 3.3669638153593446 11.365740273651395 0.531812120086697 -1.5373587393910684 -1.312024173012179
Ni 6.949418865599485 2.506925187078319 6.683532224615254 -1.6275386401112744 0.14161456235141417 -0.750167941154908
Ni 3.583897501312465 8.777077409732934 6.6565949073114385 -2.8931333180163206 1.8134612803514445 0.5530548315155571
Ni 0.7987527165815348 5.922923209459556 11.973917815267262 0.4287134544222939 -0.1947338107738969 0.7685287030502829
Ni 8.177611177061452 5.221453775325477 10.492382709487995 1.473974618707468 -0.5077069995083772 -0.6402345119568587
Ni 6.952906310597132 7.1827307618295135 9.139467679230592 -1.3483474329232457 -0.5280637087878584 0.7089955806816564
Ni 8.782545942595737 5.406407042883944 6.225915534863779 1.4448000540260408 -0.8420118598410983 -1.5244849687521937
Ni 0.48948390312526363 6.576746111021067 3.0670663691546043 1.7235390041679992 2.009334089825791 0.6491582968090498
Ni 8.203712237920806 4.049425761312529 7.863291046020892 -2.8676585707839837 0.38912309372418147 -0.9501591436730021
Ni 0.5009148714015831 3.5392636830048816 9.227482757066499 2.840612622409785 -0.26388748695142294 2.1635719973681704
Ni 3.7360943483171143 2.8148976204569305 11.659981120587702 -0.07273188044708764 1.2111963056598236 0.5398293339642186
Ni 8.943406625471505 0.2454695677048111 12.337747797006095 0.5375636778584936 -0.3161191905626297 0.6377572540609596
Ni 3.858027111114433 3.753485926119517 9.339721883480307 0.08767693179269416 0.7220884093098725 2.0649809897661338
Ni 6.8846272500280135 1.598464024065564 3.720555133315818 -0.06583412488598984 0.30812691638577255 0.6892387097697034
Ni 3.9155608241384443 0.1611911685011989 0.33329566619137013 -0.8160388328161042 -0.011114364745606665 0.8203654852159162
Ni 8.901210366887407 5.262444948203582 1.5439092463890192 -0.107371324897828 -0.9806516558349047 -1.1931070522582805
Ni -0.27713958523580073 7.799533795680398 0.7203317642640232 1.6704768342356973 -1.4484811024220536 -0.29086015888552486
Ni 8.8131021687924 8.807396270563265 8.183254082174136 0.06007074003965138 -2.442182906572697 -0.5597163026961328
P 1.9833702244472458 8.870891506057076 4.1690323435197945 0.5113713357338419 -0.80396930324608 0.3737288706562983
Ni 2.508404155899311 2.0099277571649306 9.719920033115162 -0.388200324799596 -0.980578379394808 0.6814158712911748
P 4.448382165493633 5.0666276504168435 1.6814286972609003 -0.28812759044571024 -0.2814074981130573 -0.5648379401934143
Ni 3.14289090954193 2.1514705509961396 7.402694507978233 -0.8943798319198532 -0.8369087342865781 -0.23551947733169115
P 3.6000383462230414 6.0220415087775025 6.486619394368522 -0.19611860693656546 -0.12841503294200465 -0.547836006318779
P 7.472891663296058 7.0008815029076965 7.011071780673072 -0.15836864188130145 1.0464901515962688 -0.5709615365926489
P 7.166827282285269 2.38984928485364 13.119549887600376 0.5519844812695139 -0.7118137668567418 1.0818037392958981
Ni 2.0376264695284427 6.2300009579958395 0.9903339555229638 -0.5531779873569829 0.42912225982493835 -0.33223615072915036
