# total energy = -381167.7987874369 ev
CRYSTAL
PRIMVEC
9.25503989089455 0.00000000000000 0.00000000000000
0.00000000000000 9.25503989089455 0.00000000000000
0.00000000000000 0.00000000000000 13.54568639409123
PRIMCOORD
 96 1
Ni 8.524086216935421 1.1624700470368825 12.979855823162568 0.4023334217668684 -0.8086492252202525 0.35059562707294456
Ni 6.312353772421822 6.690801613998406 12.358908348409846 -0.34812376849368437 -0.5229197026930735 -0.3045589965288561
Ni 2.300081056572244 3.308102995706898 11.62279485762811 2.0610284328762893 -1.8171590409180058 0.820109403341052
Ni 7.582293344204671 4.48822240406746 10.427591585038218 -1.6411986540968702 -0.2662917255175414 0.8715420080897311
Ni 7.133266567413418 6.951469816243508 3.512491299572719 -3.163684333030848 1.7242848811950884 1.469208307667076
Ni 8.52277200125217 7.074635888868319 1.8981568804735616 1.3333694714571747 -0.06370396591686447 -1.0159868408010888
Ni 0.11187214728486136 6.742139321005457 4.257612720808746 0.9481989346228379 1.6306383620825207 -0.8496446937960077
Ni 8.449916326191866 3.6738621774120794 1.7104137660889345 2.3153894683945153 1.1346828466831167 -0.010638196440136517
Ni 2.5661171820306303 9.06595955523645 10.770053054493744 -2.004455164466935 -1.5509495907016257 0.4421317847107289
Ni 1.606943344136866 5.86023581226292 8.217396402672424 -0.4577975162724438 0.6345881123043587 0.55034900254862
Ni 2.9552731049137146 1.0565553690147649 4.125881108642736 0.6634762560936187 0.8904010497777634 0.11941462921560725
Ni 0.40799270584170094 3.4020509069794005 12.94975750750408 -0.9070157755163087 -0.03401929436823819 -0.38444471441190564
Ni 5.921568962494708 0.011211555483746374 10.187954535741165 -1.409565399193463 0.11689957610323738 -0.6813932455833556
Ni 6.334232687035969 3.1250568141338952 1.5915910837468719 -1.203133326146031 -1.2069832960197409 -0.6819473183146126
Ni 8.035281278125726 9.2662386213321 8.318568798186806 -0.538400571937492 -1.5452504834343193 -0.04264894501877817
Ni 0.584095756389521 1.0571476915762308 10.05782126898711 -1.615318958116631 -0.5002063202559578 1.0695593747109065
Ni 2.3899104750345543 7.0302394618784465 12.66452642903819 -2.4262166130514276 0.04632382276720409 -0.3035896906370514
Ni 8.697099935123596 6.347013897307599 11.656916339184555 -0.26112483660462127 -0.6901761339823081 -2.923087955396882
Ni 6.963908590034292 7.815020580620625 5.8438664229744095 -0.3836505006453844 -0.7739920401576993 0.8714134529316669
Ni 6.274695014568625 0.42653240201558307 12.415042017156765 -0.5220624968991009 -0.6646018850576296 -0.43174838459387577
Ni 2.5998147827540254 3.9960116105293353 9.393636098255385 2.1412332246616543 -0.38289716741912766 -1.0359797389832481
Ni 7.9865627474451575 4.945421381198936 3.7901915519719718 1.228636355513142 -1.434475532171581 -2.077416130205693
Ni 5.666351978823097 4.651684920951997 3.8009736735986555 1.237305858262682 0.9029554894040062 0.395120706068513
Ni 7.438858733929699 1.8540251476283442 9.518445865988264 0.10258547347341042 0.753748716527631 1.5402100927969347
P 0.2866248874933397 9.144016562789625 2.904710044756581 0.18841018254871425 -0.458793561637126 0.8117990837031438
Ni -0.06725730135044847 8.504345216566566 5.8568567971505585 0.5913593835227106 1.1236636127544777 0.1284875380511529
P 5.311115777623957 6.185448663627757 10.023320330789728 -0.3430340126756028 -0.38205281714096134 -0.0440144579077371
Ni 3.831919750923241 9.080638048712776 8.960959275168596 1.7742956658955764 -0.9401863487310065 -0.920984321881259
P 8.767863971138723 5.253392093001103 8.938866569129921 1.283695501270815 0.3585868728085373 -1.1515778226662425
P 3.9656365691741633 7.234266819183375 2.7977671317879187 0.49014739335805907 0.6074902276463021 -0.10433485206434935
P 4.978933881121873 4.323519711819853 0.15595390291395494 -0.09711853682156822 0.011906007408966593 -0.2614639651115949
Ni 7.787782997833217 3.2804211709983915 7.735386514247546 0.21801360723744387 -0.5302460611511577 2.62535523776124
Ni 5.9791723315972645 3.472481761553703 5.855028001242032 -0.4501281726526441 -1.9746553074966828 1.3259893769430195
Ni 5.075713834641384 0.434998912628536 2.5989568405439023 0.3514893425318076 0.11592255690194875 -0.3605259988127791
Ni 8.476145109616777 6.927110550903224 7.480862733073651 -0.5246780801450771 0.4585014843180039 1.9348813700328547
Ni 1.007846093374219 3.704116903246954 7.434618074591205 -0.037627580544786814 -1.4464905543545863 0.5058059258309224
Ni 3.3019021188915523 2.8140782143242853 7.385948595622756 1.3403309903766725 -0.03592036804569297 -0.8678275353526215
Ni 1.682603296324109 8.286407534107214 7.709500167303482 -0.1500567795814964 0.7452273093201811 -0.27646840894022706
Ni 0.21178955937213712 1.7236864189857817 4.2560004928367565 -0.917698966261768 -0.8557724039603004 -1.3160260950827207
Ni 8.143630031673867 1.282359835493586 1.8377834778921494 -1.587088502516028 -0.733174491920705 1.475509824405072
Ni 2.2901689087077135 1.3315133530552312 8.77960954243179 0.3341151129194181 1.451336826703294 -0.8895209611656552
Ni 5.735986899955429 2.9954492336531424 11.745776754956466 -0.10149455440207683 -0.5654591187171809 -0.29350119605279773
Ni 5.050864052179885 8.225740746757076 4.449879698756569 -0.5349470661712529 0.11525535563159504 -0.6217207694233873
Ni 4.2885911907734116 7.688161747026674 11.82019653178064 1.6771694157645247 1.4425585662900315 -0.25652590438002915
Ni 3.7960379607544406 7.099161744929017 7.727881602292973 -0.628858151799117 -0.6529984964907464 -0.5173326955235993
Ni 4.532461495376943 1.9872144285979612 0.40017312252634907 0.5282989647271159 2.1989614326110583 -1.2884173322265164
Ni 8.317199052263417 3.7893373117778575 5.751403945625583 0.504435527845957 -3.2151663029602244 -2.23774292425463
Ni 1.5375305439650828 5.24799640466775 10.988532156794435 -0.8893648952037653 2.216822372051879 0.8266736868221312
Ni 7.95566016880868 1.415734217263661 6.237951580173692 -0.5830971435139184 -0.15642463078105318 -0.09317832122689759
Ni 2.35057655493721 5.975118624067233 4.99495805741753 0.7875073010353146 0.07558297674263757 -0.13222669337861098
Ni 3.9000553555718627 4.119325763794514 5.154960114837503 -1.79114230513927 -0.5165829618417683 0.6534726079136874
Ni 4.087580976515952 8.958462265370416 0.3841609777827221 -0.06974528701493794 -0.7754781377849225 -0.5133377154315932
Ni 5.549090621732898 3.4455403400470286 8.942930457203978 -0.3167892200464609 -1.855435053680069 2.1188797966671187
Ni 0.8118308242171202 8.586372636289568 0.8441688595611503 -0.23061946892691254 0.598426317671821 -1.2960506804020582
Ni 7.13123045860838 2.6807593627943476 3.6746877269821225 0.3867173124961662 -0.6674388402857925 1.197772833165066
Ni 3.9034519552602687 1.1329649794438634 11.95593742728457 1.0414916699404126 0.02329779418567601 -0.32451409949454435
P 5.552690832301808 1.2557978706278505 5.869752769918473 0.8172315675726248 -0.11506123734291797 -1.4197258846662322
Ni 0.19651319031033115 5.715773892545406 13.509194135256573 1.2904773000793388 -0.6140771368352005 2.7130812776243145
P 6.917429779039265 5.411866143313295 5.545536686364103 0.15315367333926527 2.012168731061109 0.9371786722529344
Ni 0.17841958706555305 5.475874000111701 6.147222571821156 2.300314062118632 2.322816356986206 -0.15430295645236006
P 0.5842105188858051 8.644494287633407 12.085231261908548 0.6803509203617701 -0.5723519891822724 -0.7769626927502489
P 0.38724845913436307 1.1794437904388893 7.680160764926873 0.5078764352067059 0.3511167896837373 -0.07896886249573498
P 0.6604859312345716 5.335891519765273 2.594188643924102 0.23564263317311673 -0.14414221386927437 -0.7926903878981509
Ni 2.6496161531172744 9.069032228524055 2.241635478827603 -0.5158679380526148 -0.10895358178328333 0.4722028930644964
Ni 5.9337856153249415 7.810420825729242 8.294606574063504 -0.7611871750835472 0.47791639850950596 -2.1316705206738833
Ni 0.8853426816150474 1.8283516666048074 1.2062824810013097 2.4542724907473796 0.9155461815848233 0.5672000126676877
Ni 1.7473978315244627 1.1187307278886365 12.647635055492387 -0.5411511380994357 0.18885755449877797 0.4981136993929874
Ni 8.139178357422852 7.750448166380821 13.17834126250178 -0.5553608539409145 2.008327245827832 1.2092808338046657
Ni 3.708762933338452 5.09609343277182 2.874326673865388 -1.3175376466312407 0.34599103842139767 -0.784984534613461
Ni 7.147408268568416 4.527445263684529 13.144950929107143 0.8637849898521318 -0.2314620194328659 -0.6020052932723309
Ni 2.133592141600217 6.822287967603809 1.5910218987854634 -1.5795078619552927 -1.3001644454601156 0.8729923673830126
Ni 4.9853661339377915 6.267226197270141 5.8457220584990015 -0.5126064936925236 0.10491823537164512 -0.3965168150850913
Ni 1.6259809614639802 3.3489732524480442 3.2115738537720078 0.6319074801484021 0.20406588680810017 -0.9953046298613891
Ni 2.4258755605635605 4.670454142118446 0.2738371986936927 0.5467479154609229 -0.44047882248833814 -0.3442025790624072
Ni 4.365010056242533 5.089605649715764 11.703893071332812 -0.540915625049862 0.09481508549937219 0.3061317403326147
Ni 6.190381599959966 7.870051048596815 1.206129772840932 0.1475293851739524 0.37191752847917237 0.1534904878533937
Ni 6.172482352555669 5.408645389385324 1.7173356105220647 0.2899523023592748 1.4089506484275993 -0.5509904927873608
Ni 4.488935042149223 4.7499456808751725 7.591314231714996 -3.4346896619739753 1.0574052558468756 -0.9205786018024081
Ni 2.144735209787794 8.244695068723983 5.030542760801596 -0.25190254667540485 0.6046746125743779 -0.2377133996592164
Ni 3.232443043519655 6.599750530253073 10.082555363448323 -0.8505155264367351 0.1821282061947444 -1.1080282202100658
Ni 4.136058876155925 6.513206650998894 0.6167105174302362 1.8399035337033733 -0.8174092308010696 -0.24801169626143094
Ni 7.180902258411308 7.041789751827031 9.876051357433267 1.807276234586655 -0.7135832000523388 0.7985573882018893
Ni 0.5241406816171442 3.3846421766963175 10.067452063634946 -1.7400020348200291 -0.08234780627029689 -0.4209744339068234
Ni 3.859666360911908 0.018577641837975976 6.268321068504851 -0.1825465246790856 0.162500661771804 1.0712167078086712
Ni 8.047895897676945 9.014408982308872 10.860931068990649 -0.3132462398902089 0.591616236728523 1.2666210622870315
Ni 0.33908800736717554 7.783368343742292 9.806792190925863 1.5785354707396944 -1.1927350136308428 -0.5853486585522564
Ni 6.556066741344964 5.1813971366629294 7.8869489006706335 2.077661156336964 2.7466940805827535 -0.017186024860983307
Ni 7.216922874180452 0.28078032971887557 4.269288879301643 -0.18619209185147287 -0.008558945313604615 -0.7198199249906699
P 3.1409199527331535 1.9856318167540445 1.841914927758374 -2.4788532654105375 -0.29165668664489125 2.206986874018696
Ni 1.6954215267558317 1.7476292075250355 5.956024550995978 -0.054013478101977944 -0.0674930006456515 1.0699630379072282
P 8.01795584320285 2.56965260731938 11.50271256433893 -0.09799374033766993 0.8264006356664026 -0.11260866203736734
Ni 4.637339608916495 2.6940773653873067 3.274168465958917 -0.7944207403256963 -0.04893040715211573 0.4370667114829957
P 6.3170553327534575 0.9565731716473288 0.8018677736324636 0.7016005737691658 -0.9162347230114155 1.6385234212575521
P 1.6801599657580624 3.9764927311210303 5.2766277964826065 -0.22307996601675778 -1.1694271921428376 1.0901521112605936
P 4.211913184183649 1.8730997851155502 10.050411683944773 0.5111934153950808 0.7179324781599701 -1.380002083714049
Ni 5.727805444575182 1.2154551511680103 7.983732556206153 -0.29961862180444526 -0.21520390570279066 -0.12406626905500569
