# total energy = -340857.98163743084 ev
CRYSTAL
PRIMVEC
9.35812932086403 0.00000000000000 0.00000000000000

0.00000000000000 9.35812932086403 0.00000000000000

0.00000000000000 0.00000000000000 13.69656819529511

PRIMCOORD
 96 1
Ni 0.9852799735646638 8.199751748541201 5.3392786492157 0.5531239941905958 -1.5637511133416682 2.7091716581572634
Ni 1.258247239382604 1.494727160093611 2.4731073851208696 -0.9633936400854053 0.7797322850755862 0.20903865743234323
Ni 4.732705313059709 9.379652731643926 12.947639690147072 -0.6054073769753444 1.1673649102971702 -0.16955731150826928
Ni 3.3654920191951514 7.664485484005066 12.331431224336786 0.2755042452547449 -1.7027115258996868 -2.1882985535805735
Ni 2.981387612959169 8.692082917065383 6.652669599749142 -0.8873895166449492 2.059338446768376 1.0564991990928387
Ni 4.143152541992328 4.539076265199343 0.474361689151436 -0.7282935096793199 0.8203436308390453 0.4987197084081023
Ni 8.026036799267027 4.237931672857428 9.229692457111849 0.7055125072290623 -2.655685770423981 0.7838864164532758
Ni 6.260513459291563 8.057180652695052 0.6025296886000263 1.4819694639874865 2.7635425195986603 1.2404019806895026
Ni 7.244614308597834 5.832659799817594 4.067277767590556 -0.6399946280319107 -1.7330122337657574 0.5643684567561635
Ni 6.108827545765457 4.183083678584092 12.941284584719497 0.48411070024567593 -0.015746207090663204 0.9317788413936017
Ni 5.0506851795353445 0.44313735581370967 10.380080708677324 -0.5991428841228714 0.012508416879655877 0.5040550045780867
Ni 3.855708250557454 4.36761662502257 6.685719704061571 0.7137793752235448 0.00035969733226389665 -0.5875155842965882
Ni 3.8137744743522295 8.595048477102882 1.7713768496867701 0.057906385398480927 1.0856197706078787 0.2886058156337094
Ni 4.515783882031568 5.441387066740905 4.253811482016689 1.31161768160238 -0.9574798457041317 1.3330516831064396
Ni 5.928964305715375 4.709628166859735 10.30557128530174 -1.0336929998316005 -0.8674418698784286 -0.4889088929652677
Ni 5.7996256043245245 7.578156743658448 7.976374144291908 3.4898660500358027 3.1326164079814505 -2.1964168118123335
Ni 7.577230288883997 5.409054730925451 11.534742817773022 1.4523773521526664 0.9857054162087281 0.29406838141017744
Ni 6.803855789184786 1.3525771800540307 6.680884358789257 0.7603680216163614 0.6955463971552859 1.2927342144343157
Ni 9.47491848521884 5.3642199347194195 2.8688149355471797 1.0853300072816017 0.8057752461065671 -1.432057666758708
Ni 6.905906186309976 1.3259439448208086 8.928682621828036 2.340925407882091 -0.9583743324939431 0.5991999626130519
Ni 2.1059439998767013 4.035796085704372 12.846325777776928 0.04472999591752296 1.84320842970689 0.8680368231499502
Ni 8.602076432008065 7.841513210957583 3.737437408376135 0.5295382364508557 -1.4032906219283445 -1.7997675849144361
Ni 2.015179506367558 1.607277377995917 0.01877615009555061 0.02901129963068552 0.5741653882419273 1.4571146097273358
Ni 6.674882054826295 2.558690282583409 11.390668806403875 -0.20901166084914968 -1.167358739649583 -1.4830711816920974
P 2.8146257535578973 0.22226866595866263 11.509048202881997 -0.14171457826438819 1.5462886948908467 -1.0172150567812352
P 5.707822358492511 5.423428817123002 8.014080853612084 0.8804074289001612 -0.10402837656752406 -0.2021167335015293
P 6.2977681709793565 0.7378341972506037 2.3730811513059216 -0.9031202971166445 -0.46881366487728937 -0.07208807621550166
P 0.3014169138968297 6.078563356466708 5.91202796378808 -2.340418129228369 -0.020264920896623163 0.7330945306123892
P 5.373961747044712 2.459540905459028 9.5818996805325 -2.2075167783802367 1.9015639868276477 0.5087647513489303
P 1.5742338243738134 4.71787267853945 1.1247469780099486 0.8255861101849071 1.0188744467615292 0.38770667299262906
P 1.5583343631435798 9.094912939500128 1.2069693713360683 0.5383198392982277 0.1627652282871003 1.4009684015530712
P 3.4052453513352527 2.028702002822936 6.139445472341724 -0.2121692326415249 0.4236044153305027 -0.5882334362992191
Ni 5.3559473486526 9.341668085891415 5.728822000046746 -1.1587835963860624 -0.9496708911826742 -0.5475549847432505
Ni 4.1903455867151465 2.883510941383529 11.415130019888103 1.843026138492755 1.2360876695848648 0.4295344076616925
Ni 3.957000639230819 4.518048549258005 9.113723714673107 -0.7477248789310542 -1.6182950100258193 0.8013557768826328
Ni 9.203308148110954 7.820382555596861 0.8325365914576178 0.01641443680228141 -0.17394875570774557 0.6924176217183172
Ni 9.014096137155045 3.398573005333395 3.544288432535258 -0.5298238860120746 -1.887154496270537 1.4250514106442038
Ni 7.773283092164391 4.576134456177404 6.953583046303897 0.1991458237986635 -1.2601128288548686 -2.2793603426851003
Ni 5.442500684096054 7.079115796616269 10.127652664465105 0.8822169713050741 -1.4604151348554784 1.0093883616479649
Ni 2.241945689140376 6.194398277660252 9.785964913892544 -0.5170215920410838 -0.013247351928209444 0.7319874135911393
Ni 3.926221752835152 1.0161337249926095 3.8307791306214805 0.11045742002231944 0.047180257230228416 0.3330180232004974
Ni 0.7185564514387843 4.996670058746111 7.897139801566619 -0.05676121605044418 0.06834043624761134 1.3278012333407778
Ni 7.830882376373978 6.3027186212388 8.490803598719017 -0.9598120933817342 1.1896872279434545 -1.3168982132750287
Ni 8.219254089449858 8.957704051590955 5.548822131312755 -2.631218895630868 0.32656172605219247 2.602289099970396
Ni 6.66590760908186 1.2803230657758478 13.417910941097372 -0.2511008767097159 0.40701180107914414 1.5677769466716096
Ni 5.774237000252939 6.229706498508792 1.7913470970471694 0.43295037532177694 -1.7055194276621273 1.5762641582070143
Ni 8.973538005917945 0.8692803493001068 0.4804248209531242 0.4083338623246774 0.24439209723097266 1.1451608633963053
Ni 6.1200105099621185 7.996465111516857 3.430935287161761 -0.6369285875120773 1.2120918208908997 0.17361579784835907
Ni 3.4367073811504643 6.177095097074789 2.555971746098781 -1.0484138509815426 1.0250957450808929 -1.4603068914123882
Ni 3.3735306520360995 2.7239361250810328 1.9763460783115838 -0.882536816538338 0.28805868488098774 -0.4244580215800496
Ni 7.74974739764171 8.454713974096064 9.668708492898604 -0.3756571980272627 0.7733595487800229 0.6776270936727039
Ni 4.491181360798911 1.20119072665704 7.793292643666737 0.15835141549012086 -0.3663127806978852 0.3090841380927193
Ni 5.930321234425431 3.305721649049477 7.704141491603204 -0.5003713850789124 0.09447287166860503 -0.11355122845629476
Ni 4.341797547015381 7.200603027746871 5.910973302645851 2.4524071554038667 -0.7791064785661291 -2.1956449666433153
Ni 2.576283565168953 1.4567237980830292 9.470628718869257 0.7262718512636007 -0.49100871291708986 -0.5459097358303436
Ni 7.629991420382558 6.832313859579807 6.24547026686802 -0.214572699876695 0.28002655860513065 -0.8118067970126277
P 1.989772186037903 5.230015006230438 3.8048514983174866 1.0295599514998333 -0.5331701767764881 1.358142050416164
P 6.710106052513522 -0.037740398584701976 11.68239163443349 0.9671531071278376 0.023600413027759354 0.1885834749017849
P 8.40929897388987 3.3793046176506105 12.20458740014663 0.41850668909262123 0.5030126793565015 -0.1523723150885505
P 5.9900541720549665 4.19935746497572 1.5590802060276583 0.574366705619456 -2.2698917410730326 -0.13792811463876248
P 3.7973322416379736 8.158763143368498 3.9508298889452296 1.7559097071892211 -1.2503855742647754 1.318144426977304
P 4.000076107178296 8.231372866550007 9.382491052180201 -2.720007829540819 1.6324592173413435 -1.445926197210684
P 7.934037032725281 6.575461291959903 2.1951625304692852 -1.5886388777222833 1.015480590588632 -1.2980070327974806
P 6.808375765508626 3.386154768104131 5.040378136216345 0.7810332632751967 0.3345360025069206 -0.0790519091278445
Ni 5.252156339526925 2.9749866526993225 3.2815336929330647 2.1899422598315836 0.2745825047714239 0.3596402537737161
Ni 0.049198491774989146 3.374953087649399 0.37239457937465725 -0.27230167915704717 -0.5731102075045356 0.9767299521829953
Ni 1.6338825388420348 1.1268310333460128 5.051814705709853 2.5286143959940643 1.576343091074066 0.7965670972447378
Ni 1.2464092061535015 8.975072739079662 12.844093864002113 0.2867512789234739 -0.8460559480034848 -1.5998380888722126
Ni 1.6750395903373656 3.621960903524627 6.378519466421196 -0.21581248582106705 -1.2684928253884475 -1.076204905051882
Ni 7.842271219409407 6.116613509122463 13.797374651144965 -0.6622040742494144 -0.8250132684005727 -0.38953138490619366
Ni 1.1849918052976907 7.344437471012726 7.629344773666249 -0.43328898960811835 0.8304177272455956 1.2369577308946438
Ni 2.3131142604505146 6.166932168942926 5.912684904446327 1.4083549238251292 -1.4624609616409137 -0.5813541926808826
Ni 7.004699954531033 1.2065155020778775 4.515059562844269 -0.35825417205946686 1.2701984952256447 -3.8768674694312915
Ni 2.2553652461763707 7.03923145066968 0.5040204075016297 -1.3181616533684846 -0.8999298152038049 1.3962411712807308
Ni 3.921327451349918 6.6275954288131285 8.081975015572924 -4.249249853362024 -1.5807751587034906 -0.722479216990388
Ni 0.22479910404968978 1.5539828331423682 9.767405872390603 -0.8405059647195332 1.1757389932934785 -0.30553678706109316
Ni 1.8761083507804477 8.773152388894408 3.4815711875565047 0.5762754926063947 -0.5335363018666553 -3.3243911361270233
Ni 3.0977185149915605 3.428958850309597 4.173659106833081 -0.788497689973042 -0.6347310656401263 1.5435291298678384
Ni 0.7769193589776157 0.626525803071224 7.459178426922093 0.3715624591325988 -0.9568573816287843 0.21491054283208794
Ni 6.106937203700414 7.331308015976812 12.198629079390132 0.05199979010605884 -0.8645208395768919 0.5441750125274242
Ni 8.991702134374616 2.020335835465768 5.773363886813986 -0.7151952817344651 1.5664911379806505 -0.5685279874504918
Ni 0.7650326634775317 6.215491500504834 12.500953731803344 0.39598948182671156 1.0903619132785545 1.1677927418632081
Ni 0.8611425202913893 8.732163783721704 10.121763593863463 0.7829356225042322 -0.9680043993845393 0.3331956864289423
Ni 8.619838160916235 0.9885927512430055 11.941736271815376 0.2886976040165673 1.630870789808301 -1.2427617391709307
Ni 0.42793413938367003 4.717601292797439 10.946803388151253 0.80651289560354 -2.12654039853617 -1.6196983181312492
Ni 8.695208532163027 8.069945140698607 12.090206732205104 -2.175393415483131 -1.9647285353012747 -0.6324713230716721
Ni 7.752629701384447 2.2309779619115155 1.973853072736696 -0.6552093880991361 0.6586184137806851 -0.19096894441482595
Ni 2.1336066293037583 2.3307917661973723 11.597678107158288 -3.0279180019300944 -2.089696747345259 -2.506829438908489
P 1.9264457268589799 3.7786627742134202 9.469998916785212 -0.5692774640220067 -0.5090699412941748 0.22853790380753541
P 9.277677199551016 0.44704718212447575 4.1042723232911795 0.4552634369966804 2.6314592937764485 -2.9849870068945235
P 3.357107135579913 5.437859052094762 11.759640182177579 0.14117876036557622 0.21058851841796633 -0.7618800873855137
P 8.772647049926526 2.283842032829461 7.828409958682967 -0.7676717543666263 1.4085757815866837 1.5460966334846986
P 4.407940803033798 7.006412492144412 14.15115684768218 -0.480289783837689 -0.21340824725494859 -1.5797791133388084
P 8.866986348726988 6.64160454797832 10.142883955282247 2.8005378658760867 0.337945799519418 2.9969812031419227
P 4.102566336368124 2.1167245645248642 0.09030220193482115 1.1108872869254158 0.03857426072877228 -1.4048497388853483
P 7.977907941640722 8.77990895805758 7.5520821887286065 -0.6917211098719248 -0.4880154346167208 1.7331181632160024
