# total energy = -340854.81051377725 ev
CRYSTAL
PRIMVEC
9.37404137773642 0.00000000000000 0.00000000000000

0.00000000000000 9.37404137773642 0.00000000000000

0.00000000000000 0.00000000000000 13.71985709894286

PRIMCOORD
 96 1
Ni 8.881510510620657 7.492708782005255 4.116121890407236 -0.7731854850960038 -0.689536186405464 -0.9130419271057307
Ni 3.6824140546574347 2.4064945325027858 0.6637177520184356 0.31003596048302734 0.10729033514824748 0.329612082842742
Ni 1.5065771846835754 8.947025685919963 4.044078632681485 1.269281125617698 0.31741245545275654 0.43309538554007343
Ni 3.4612522960601426 9.020171330913591 1.985125747439274 -1.804418967643518 1.3081412930180052 1.6811471694653497
Ni 5.539646005748373 6.375501154684275 4.401974846065341 2.1138394060297334 0.1331875146299835 -0.7988546077273339
Ni 8.292773840900702 8.847838953935138 1.9047686524016116 1.7594997385333244 0.5177142472327342 0.5388602851827301
Ni 5.102009509250548 1.1294969955878829 2.126221006282103 1.2613109629280277 0.4044386410353293 0.3801165193501969
Ni 0.2562966031443404 5.16879955417937 3.976412114882369 -1.2196750325547963 0.8151492311222993 -0.8787899479013962
Ni 4.840080044632842 6.1710720599744135 11.642656900781004 -1.6713785201143603 -0.5232477754564537 -0.033796379724154696
Ni 5.325186686747446 4.589502544142688 8.731303683543329 1.3127206848585713 -0.28981834788457184 0.5446231558084362
Ni 2.184179766814091 2.752631010958473 5.584722958597387 2.0701545635472733 -0.36426155459581133 -1.974789519081702
Ni 8.630417437853861 6.645614157438523 6.88742317960918 0.9090631449636409 -1.9721808778142613 -0.751657381216241
Ni 4.082460645167248 0.2302498917283087 4.284766519501478 -0.1788431076855694 1.9086363202933967 -2.7489185990378977
Ni 0.953302513555301 1.67585362416774 9.100065348306412 -1.9135697530392721 -1.821780341740101 0.5883679049945545
Ni 8.938185964885873 2.439791127532565 0.7450188130244253 -1.6313952948532031 -2.1783293581830034 0.5477691576365856
Ni 0.8953381285984767 3.250964425479332 10.747148164629165 -0.01738939912104102 0.5982890207630084 -2.9999821947517757
Ni 4.845507614599689 7.61928646294194 0.9673991970028748 -1.183420678208452 0.2321186791802583 -1.6335187689541093
Ni 5.507305562940732 2.053224408546632 10.964868712630894 0.9940694719027073 -0.044046082476620924 2.7483894660073056
Ni 3.959763817367479 8.26325498455251 5.8701231480561855 -0.18375545738552224 -1.9787541601564052 2.409043186595935
Ni 6.299815144473003 3.637681129127562 12.792833969087129 -1.9143030316608711 -0.017455990692918325 0.20272017141348314
Ni 4.630317120370068 1.6306613706095854 9.11680363661868 -1.5041583413796997 -1.199358175374315 -1.4078011082041884
Ni 6.283354327785984 8.401925178886836 3.1184689122109175 -0.6326317599089362 -0.20942920800254253 -0.04761965876049218
Ni 6.693843600408178 9.277385652710356 11.561065244491814 -0.31370723868702743 -1.4387394496542576 0.46291144046024146
Ni 9.171899564909086 7.329937927248191 0.43883262417963775 1.1306094479446915 0.20498171375415022 -1.7304876675716907
P 0.19742481098062348 8.384077004073577 8.05399544631257 1.7238071702277216 -1.3451780340563284 -1.139573856226831
P 2.8808960193459923 0.9815652483567606 10.452349561269225 -0.47025579664045464 3.3223571364161297 2.4139020573501333
P 1.3000483047015663 0.3326022374917238 1.9664264096674826 0.22512862101567033 0.030832411999824314 -0.04817707392585896
P 8.079495651115359 2.9842541997509318 11.965567316875967 1.384990795177892 -0.4681312940982841 0.18117381270127508
P 7.12862101428098 8.934061386672726 5.070241820372051 -0.7189015269414586 -1.53908934892893 1.131448398906219
P 3.839326133543548 6.097120247420943 5.531201869261091 -1.7240012885163984 -0.7987113972812503 1.7577480459495405
P 8.313996670615628 7.569191585734976 12.087098013926383 -0.6560066871894509 -0.07056264070991074 -0.20673623455141169
P 2.880802278932057 7.0177073565128625 11.954249099297433 0.11167920824456251 -4.20209453583246 1.4030545946581385
Ni 0.9019008949780793 3.691928706671856 1.879963064066082 0.8976780430551508 0.8313551514582005 0.2545523255934261
Ni 4.639953634922606 4.324329661202824 2.8097714176768065 0.19612452047383644 -0.8541292119299226 0.337669920150212
Ni 7.902260650488096 3.929204442424607 2.4750347109597786 0.725428272316383 0.37013292577492385 1.370328050959395
Ni 8.163421443711535 4.475851666287664 0.0816666486203369 1.459774673058002 0.6633160763666706 0.3757381877768432
Ni 5.761145229835832 9.378822154629624 7.316538672480296 0.9572265920427452 1.5735598719019739 -0.2699987420554834
Ni 7.494705452822075 6.4304142891675085 1.8920368293809342 2.6381223076189215 -0.05844194618697677 0.23936224811654905
Ni 8.724129729664869 0.536107989124323 4.055589955512726 0.37836097011167097 2.802864200016418 -1.7452110898247943
Ni 2.5264353921328606 2.3915241883973364 7.908111927125931 2.847635590694838 0.055566938632026885 -1.1827712175499114
Ni 6.1446747594102655 7.258498357788183 6.602653863136165 -0.7151687993719038 -1.1839567532175803 -1.8566601843364214
Ni 1.6223934661005017 7.296275744604065 6.248599131915373 0.8392988317853093 0.2901811305406293 -0.22148562494644436
Ni 6.612926875099323 6.909502796707474 10.641546776118755 1.779011583314007 0.6803979715496218 -1.9808994886341822
Ni 2.5406464388854353 0.679598315543196 12.842403899976057 0.22986613570065573 0.31787911067652996 0.42809638966358526
Ni 6.865107336667769 6.076703585265859 12.940829459799724 -0.46135129506197325 0.22774266159974974 -0.111706204827756
Ni 6.952763997738565 0.7502054701274593 9.485374070937336 -0.2352636525671432 -0.41448779774121525 -1.3295482979388715
Ni 9.242579837016219 0.2964624957072903 12.913294150610403 -1.2873323266924537 -0.6341237710734304 1.7420938843520515
Ni 1.3940418177543807 7.197520218523343 2.487684042416193 -1.5973014384932878 -0.3026234700690401 -0.004453922006295555
Ni 3.1494248091047354 9.044318861543294 9.028434548401977 -0.023154069518960124 -2.1830023381786403 -2.9126940137570676
Ni 4.451732257782139 1.4843794546637223 6.28052524209342 -1.9672700707762056 0.7509498136262551 -1.40724446436977
Ni 6.168166107142423 3.101823426908446 1.3638592792755282 -0.6864282369041017 -0.0016673604000939028 -0.7962364533781964
Ni 6.884314747483089 8.143960933778589 0.20395945523604553 0.5568212405365249 0.684019627462609 -0.8261743785882093
Ni 6.789899402567566 4.847044957388226 6.9380083191810265 0.3414090754776701 0.5115433425353318 -0.485286465721332
Ni 2.466179054055321 7.7138799146439405 0.5414980629255964 -0.5975549708104612 -0.8219243450626038 -2.681158717884105
Ni 2.2711802449873404 6.094598630286087 8.280345736821173 1.3045641171897082 1.168574100113923 -0.23342197137271412
Ni 6.265543649138298 4.114463622484722 4.585573883394663 0.6218230993292065 -0.6789820650387016 0.15872756788261697
P 5.3754784188236755 4.1964864846780126 10.928209648953262 -1.3637020610024448 -0.019651969902972605 -0.4451191494738269
P 0.22945966003883506 5.600811625841084 1.4945999719950762 -0.3650722234225648 0.0484840636433165 0.8722539465550914
P 7.466695817138239 1.3850333639752088 1.9240998005633265 -1.3721237094072367 0.6978385356235723 0.9520774437416378
P 5.579898139492142 6.137934823648325 2.10319929802376 -2.6387915657718035 -2.0008489351729155 1.4221753746479895
P 5.560137660234604 2.5766146357123674 7.591635853043478 1.1926126291203656 2.9199800058955194 -0.04575432341697926
P 1.5074489705331726 4.197395766693184 8.287822472236645 2.089254774711834 -0.679636667903565 2.8829908302656797
P 2.3983203684076373 4.067659033806882 13.743455506803883 -0.06536978365506162 -0.5097713382365736 -0.21784957085575385
P 4.571213789383932 2.5062718290954016 4.1786158121654084 -1.2699814941188323 0.21030415440832814 -0.3210937609590857
Ni 3.379585647439806 4.477070291668821 9.874044324811976 -1.5650646899467693 -0.36796831402343727 0.7417977148133418
Ni 1.6635455078180499 5.069594074111759 11.798665322076781 1.3511563631269503 1.641798235354082 0.8780425282124105
Ni 3.367361897462657 6.932553564494137 3.6267622457123916 0.1289485368479715 0.528728853175683 -0.20057664270791908
Ni 6.408047826402572 1.3894016672645886 4.284601536372952 0.15688588668818784 0.5432815541788772 -0.4810426028433135
Ni 7.020144607275178 1.1024810082917613 13.477194297658231 -1.0259760908033169 1.8070152676157847 0.5174113712803347
Ni 2.2601282501843816 4.451132319132954 4.019177429123741 2.232436681550368 0.9166998355732922 0.6725185688015449
Ni 4.449051281943593 5.111261688105951 -0.020870365758530542 0.2768106227709942 -0.2835489699360923 0.6778507796477358
Ni 0.7794693525497467 2.3486754451875616 12.654633414226618 1.2891614094813928 0.7205565460463783 0.6637580490000956
Ni 7.276796486588333 2.5607350095917467 6.320738004863338 0.459671336256389 -0.46606952647324895 -0.49769718068085905
Ni 1.2019770836425712 4.891890371414821 6.402700873191709 0.08646028577677368 0.3705766981805618 -2.0284682395520806
Ni 8.960186840036462 3.837863783086159 7.871987183807727 -2.559700832986224 0.2491956892672031 0.8684271166098334
Ni 0.2555307439624899 6.257547591829627 9.436572811442675 -0.5851370567620826 0.1319094192485083 -0.7533183138584316
Ni 8.794585024778558 8.577097890407524 9.970329790985506 -1.133065365684352 -1.5026997545563023 1.6975965732706249
Ni 1.1817104061497834 8.057072944102062 12.01951398769153 -1.4503166129688958 -0.3211729509364533 -0.9504674189420406
Ni 7.483625335894935 3.015760352874549 9.824336595514563 0.36220467206678264 1.1721623316858136 0.11958072247982632
Ni 0.44024810443005913 2.0503653259216086 6.611681064998123 -0.9989807931613955 -1.1401767799181526 -0.4650678246816119
Ni 3.485146727572222 2.98587590891201 12.062718007070119 -0.498646946188638 0.14386813427228126 -0.9469956583433563
Ni 9.21713868867421 8.814879824395526 5.919267497465848 0.021996044655116957 1.1661894019318304 2.3559231668425036
Ni 3.822340370538492 8.661248659997144 11.47641390109178 2.5392677619428525 1.476502270225328 -1.5463586288968336
Ni 2.457311210897052 2.5019316479302027 2.826358783922638 1.786312744961111 -2.5015057127027305 0.708584975506799
Ni 7.4241564172944505 7.914531270672213 8.228813819068582 -0.788673553429274 0.5822952164379133 2.2734105528595685
Ni 8.765422382003319 5.004922562537872 11.198600123332758 -1.6083651525066172 0.32455857957923456 0.581746543023295
Ni 2.902090726936738 5.284615835596297 1.8305721773677701 -1.5426598398890077 0.9548614342446782 -1.0453107865761866
Ni 4.078645410320086 4.186278153600471 6.677633070626365 -0.20060338218079649 0.05316141451432779 -0.5985075645317176
P 5.108271368901419 8.101327793520865 8.796980092354602 0.5806980471541225 -0.8638783208968864 1.1011330357521294
P 4.992014507538997 0.027099416264523873 13.206322934955248 0.29097765829999567 0.2980728745838802 0.656252998872302
P 0.39845206606877626 0.6458030215112815 10.92416193787954 1.5090105272656786 2.0866103951104513 1.3042946655784053
P 2.3665986123319693 0.41313743931586305 6.016870953859307 -0.2956323834631876 0.45098435000535236 -0.21572352565168654
P 7.847563118956914 5.803431530561995 5.017900922847199 -1.6024061067097048 -0.7187225781614333 0.7136130248490097
P 8.248294014488454 1.2210720059611693 7.772724522087616 -0.28190886322950803 0.25239696981332016 0.6049540914880097
P 9.106196908781914 3.0690236560725235 4.210706905471981 0.2323469931409805 -1.0843894977452033 0.6613419833594352
P 7.522658844257547 5.364557660600226 9.069497536726287 0.35845266122351815 0.16742021056060846 -0.4702401129111708
