# total energy = -381166.79616971244 ev
CRYSTAL
PRIMVEC
9.31306055093193 0.00000000000000 0.00000000000000
0.00000000000000 9.31306055093193 0.00000000000000
0.00000000000000 0.00000000000000 13.63060549487351
PRIMCOORD
 96 1
Ni 2.6015103478810606 2.9361565544050463 11.475211481453698 -2.321415105763305 -0.8307949080793563 1.810656721023114
Ni 1.8225193940308735 6.398147136382443 12.093305343855587 -0.5856044833168044 0.14421471897842258 0.06343014343018753
Ni 6.26490517838454 3.5019156727677103 5.028779851086775 0.1257192312773964 0.009571702848835129 -0.8520682156358357
Ni 0.8575289251923358 4.4310890418464 10.7273270813121 0.17021474258661007 -1.3272353335349787 -1.0212421756627574
Ni 7.880143782651008 0.15810876110478825 13.575469625214946 0.8583607335127668 0.154038904157696 -0.04077615347609752
Ni 1.1386334150233917 3.5973466047314 1.3998908414107254 -0.9506859627107499 0.4088113161817282 0.7544385435058039
Ni 3.73405302127234 5.138285611534581 11.798188423046433 1.2902299599552232 0.8381521197753758 0.1589509967473327
Ni 4.832584397354027 2.9264523452603046 11.92544394569094 0.44723696714777816 -0.4842911916875982 0.24010632537142523
Ni 1.9719288252296128 8.767026543547097 13.089061508384772 -0.3563744385382508 -0.38064179572604767 -1.0020185515464548
Ni 5.132381131114459 6.316294646772912 10.004209834528972 -0.2610379333177698 -1.1210398019783856 0.5694235026815677
Ni 3.857693213792097 6.934346600402104 6.147307299581778 2.0610952815584827 0.007327644009664799 1.1736497148646174
Ni 4.053733139412833 1.906513887578304 5.663448167437703 0.1716890131392914 2.847546373415141 0.496327554026842
Ni 7.831697241412098 0.3447285259290692 10.526275797782741 0.9063537164522778 0.017175740448338164 0.44136276775518823
Ni 5.512130490122114 8.17002210687291 4.903310573465264 1.1218432717162874 -0.38022887655834514 -0.3118164494222178
Ni 5.044065377448833 5.595407878003378 4.1641227093115365 -0.25676013187802227 -0.18700738866391664 0.5763963344549751
Ni 6.531854747410325 8.879910151074363 2.7064107998623834 -0.05273384005860596 0.0918241211918483 0.3528900795340761
Ni 5.34780153584288 7.605762391266775 8.154646243823036 -0.04684344271609998 0.047969071680110935 -1.8584406732756122
Ni 4.288189440006754 0.7542908545280346 3.5947724747816823 -0.35289959261577286 -2.027789725427817 1.5784097437951075
Ni 6.117032402184728 0.8303357195476809 12.12584145236621 -2.2997247652740653 -0.13368862263611814 1.7723316001906702
Ni 3.101426127804836 2.1263207438491167 2.202514617838356 -0.38887832470322703 1.861827330359658 -0.7960726741068226
Ni 4.28889723261232 7.628402441584305 11.94954335260442 -1.4686087264098642 -0.6274993237783774 1.6977336130691212
Ni 3.6136630869018296 4.6450193568788904 2.3520833023733476 0.31545481750575355 1.0318001536842618 -1.0068722800943304
Ni 0.9729913191996195 1.2999728768501673 2.1470655863346364 -0.8287783918699598 -0.2515580188517926 -0.02722155472011441
Ni 0.38341684227176087 1.9936934478507842 8.474665357369354 0.43170056207507584 -0.17389090588661665 0.20189279041618136
P 4.143799748471176 1.5997323583682017 13.636603348908636 0.369813337651976 -0.5582723711607548 0.17604626166672263
Ni 6.34338634005703 1.2358058893191997 6.022246865320587 0.39941753367165406 -0.7355849011344106 -0.6586636651963237
P 5.461998284914682 6.247303493851372 1.7862226716501488 0.14015057621137797 -0.31847072151394185 0.2506177664257103
Ni 2.661030118172848 6.5484692475199395 4.478131173546897 -1.7501743473673408 0.47299787816196603 -2.424557223071134
P 6.7207049902482 1.414989175254732 3.8482059989593256 0.20587774320585833 0.4232066656714518 -0.07246859948337196
P 8.52552956913991 8.5786140145574 7.005313053476811 -1.2061929389079613 0.14853520073064744 0.8860373734924288
P 3.4743955786960106 3.4372457799643663 4.03940313306829 0.2834913772252795 -0.8387380741858329 1.1123368748877487
Ni 1.137674169781637 5.350446445053154 5.904382632984677 -0.6381727443318236 0.840509821374275 -1.3089298503575715
Ni -0.1355422839659947 1.0872811988774185 5.7841472954201185 -1.4086197474507418 -0.8409924174376484 -0.033802550371741784
Ni 1.0824104681838487 0.4214364808634042 11.076175705250414 -0.2716876997221321 0.2099316015602578 -0.04196143203345032
Ni 4.12320857148555 7.617878683106802 2.8353836508814485 0.26777165249717755 -0.2468503289634781 -0.10830334979379412
Ni 5.342940118209909 8.557138096814816 10.26411872974149 0.26772125887521636 2.5682939739718735 -1.4944966499202197
Ni 5.913132253417963 4.113848945582992 10.260942976077038 0.4617035361950694 -0.7152248494208199 0.7172033133034293
Ni 7.825299168780201 2.1902735309862944 12.438227581445128 0.7006042712941676 1.7450095153369498 -1.4670529518869702
Ni 1.8516040822832989 0.9445306060073644 6.976375511581859 0.6526544828877663 -0.34204336662755935 -0.2575520316516984
Ni 2.5690077663885966 7.996864371145293 10.392941640484901 0.08122783373324075 0.005879084488596326 0.011134676460580823
Ni 9.332618026818968 4.775309074666734 12.842729192914293 0.8092562626766321 -0.21887492679647466 -0.11735106181835918
Ni 1.4539550208032905 4.291942603428375 3.9133741405047457 0.4701547522862161 -0.4853571710582673 -1.4269828233389619
Ni 3.907220070060557 5.609256399114924 7.932358388208501 1.1549428824837336 0.24245117145451792 1.980010658271325
Ni 1.9400036534943212 1.4545696828028614 4.474300711722298 -0.10627294962732665 -0.34618027161406834 -0.6169855687312472
Ni 5.3089195078397164 8.885321039282706 0.7028483016942455 -0.7582563745899974 -0.097567965654161 -1.2282411769572523
Ni 7.238194515523346 7.526247479867733 0.8942838501545589 -0.41526915599193 -1.945661234257178 0.4523164385532146
Ni 1.9038876044892281 4.384281599273012 8.217606258700302 -0.7972576955538593 -0.9198468658427061 -1.0446147889504267
Ni 9.438880048259946 6.230353723560173 7.487182915876819 -1.4361056115758364 1.3419039912907471 2.8176673264675216
Ni 7.162386202242928 6.319582157164556 3.367100738834541 -1.136087183229811 1.845149612593661 -2.1868615640237303
Ni 7.919035123714771 6.681850901426836 5.602942144028422 -1.047544303892396 0.2575425185700016 1.8429641749065682
Ni 3.2568704222720903 4.738885694661855 5.982581608921001 1.0402742525935438 -2.710058688747907 -1.1463975640168838
Ni 1.671061089500231 6.504809619429203 2.0024449308961905 0.7195885257061543 0.40154229332414065 0.060222692236483376
Ni 3.004924193872197 9.19990691327524 1.3781224935653142 0.18566630125498992 0.21352291845594196 0.19360921025115044
Ni 8.260321542446242 2.363757223834896 1.0679677738060511 0.10232630627475281 -0.7526477701539682 1.2227693552094039
Ni 2.841973572561697 8.306803027898646 8.09044572927391 0.050569485417435486 -2.4364719722308488 -1.5778513001884762
Ni 0.697716805303888 8.024123699520205 5.669568710863734 2.8725585791887625 0.5845693571840707 1.0909116151344376
P 7.18900292943647 4.28677385479562 12.434629014829458 -0.9531061421164683 0.25726638209047953 -1.1155268425799563
Ni 3.5498779348554437 3.9976871407246817 9.886100668699294 0.8103502670717593 0.13387785582878878 -2.629108534156085
P 9.311523944560966 2.2222918333275814 10.603970937140629 -0.015480612134102373 0.44879197033972384 1.1216473536553973
Ni 3.2951005360332837 6.574210547017123 0.3412901439557117 1.768661864648567 2.892860009750276 0.4884445517343394
P 2.14804811422789 8.740810277959337 3.3618118517200513 -0.4713436303879947 -0.22135501290585105 0.3523673742613867
P 5.800053071618107 1.467784915793637 10.193893596290508 -0.35863469532733716 1.0716638226484188 -1.2441727605858444
P 3.199129446554819 2.5775757821401917 7.649550539593785 0.3686483708095974 0.2690716022555237 0.5253169992806566
Ni 2.8541550558259217 0.8416957908670241 9.187736605683735 -1.0923977127616606 2.1566469881135633 0.7749654598145621
Ni 7.3999996303800994 7.448529989164405 9.295010025505826 0.24039197493264405 0.7098422449526678 -0.4161263617859027
Ni 4.6463883767870255 0.6002109234386159 7.718698151933398 0.253182441829093 0.8615897819730258 0.14643820899230264
Ni 7.0061502976247105 5.206894928971539 8.595814306178728 0.9819333507608057 0.057537946315468644 -1.3992591321714483
Ni 5.75384166492309 6.04207157741887 13.268467376468632 -0.33944269577991865 -0.8688888867376005 -0.3292616414818587
Ni 5.357924832714601 1.6502277729390151 1.9451286307422593 2.050676914438636 0.9790850826787332 -1.6447868856687609
Ni 9.092983664531694 8.619181706529085 1.858546968960271 0.265983193138187 0.4003081638067235 1.7764253106440695
Ni 0.2499020115982904 8.558553682025948 8.952295914584441 0.5214855413497084 1.3860786289254323 -1.0875951491666946
Ni 7.668038827496032 5.855205016488701 10.919709768035387 -0.6334707108704639 -0.8753369563557893 1.4723296269048771
Ni 0.7444488120864196 2.024212347435542 13.085095075875419 0.7482537548513307 -0.17229579348535487 -0.07437712935999448
Ni 0.9191245766917651 3.079996775365249 6.002468718525302 0.3348956998391845 0.4209461517720492 0.8864688046028927
Ni 0.25132784117608303 6.724588536518217 3.932047758312924 0.8416789019817116 0.8080483584114599 -0.6664533364440715
Ni 6.634931702126253 3.6516417480268344 2.532198825674896 -0.16586186493455307 -0.35653076161045694 2.2800581400830735
Ni 6.90206753236403 0.37223092518562956 8.27072423113595 0.5909953153150725 -1.0762002770661916 -0.5831837896904537
Ni 9.503698950032884 7.2309675804980875 0.19379454671018187 0.2609590004507183 -1.0763319175480497 -1.3222998439065743
Ni 8.36744036546238 4.757586320345772 4.25884212344542 0.29310370350406295 -2.171590753907589 1.677296171150376
Ni 0.3407984143560549 6.567989422536617 10.041422030766633 0.35505649105777565 0.7055544162105913 0.21681778715712982
Ni 7.889391651826371 2.9399469700690672 6.857093831422695 0.5299699246716357 0.007351555269064758 -1.9622970430416464
Ni 7.72966334948332 4.599459864425843 0.8363370557980373 1.1371233378038093 2.6446529096485873 1.6534260494009974
Ni 5.736863955450094 3.615833030021527 0.44294592562414775 -1.5658110811944903 -0.6852504145459166 -0.8324157315122308
Ni 5.66223840086582 3.5288862962640355 7.22944116986582 -1.5222162273226751 0.03695240885463313 1.0991016071443975
Ni 3.574520293201879 0.813997817337873 11.344944115011293 0.7647615226983667 -0.8463755361264327 1.3398301394808538
Ni 8.685658333088742 2.530023294718839 3.770511790907497 -0.179484083703678 -1.0705615907231756 -0.02190425627225905
Ni 8.254994471783295 8.6801822534562 4.334832041407529 -1.1703977835862232 1.0775282518489957 -0.5318064636597422
Ni 3.6173883111416534 9.069673073850995 5.813466672799654 -1.3243173885572355 -0.33452340410143033 -0.6821026129455543
P 2.3947604025708307 5.982523867945284 9.546235423015315 0.950564092420905 0.37943543412277236 1.0250160408828928
Ni 7.449200529527573 2.5268289149331897 8.992260120229274 -0.7605343719908967 0.6160201194941842 2.031579788597869
P 9.110333896428674 4.099106370653889 8.129675134437436 -1.1449716302036343 0.9506090867262275 -0.2429659063074074
Ni 2.7077630562614394 4.598165349002505 0.08834089892924528 -1.138176204548356 -2.9161048392108295 -0.4887314868471389
P 8.9954759200543 7.927118860315189 11.785403453455357 -0.1374411477000149 0.12109175980771401 -0.34190581260843056
P 9.221755353441807 5.408550630133808 2.380666947965517 -0.4969929555249828 -1.6659218678751635 -1.9651409402483446
P 6.116501557730553 5.521071028297691 6.236724788316331 -0.5281087030931807 -0.05019333302493936 -0.009751422959809013
Ni 6.580534115164224 7.947225758149639 12.118521386734956 1.9358316497612662 -1.3321443408008218 0.15139889543168764
