# total energy = -340869.07960496267 ev
CRYSTAL
PRIMVEC
9.29464711985652 0.00000000000000 0.00000000000000

0.00000000000000 9.29464711985652 0.00000000000000

0.00000000000000 0.00000000000000 13.60365557724007

PRIMCOORD
 96 1
Ni 2.9282784807168682 6.841752345791982 5.8862607937418625 0.7065548324506477 -0.5292782979212498 -0.450969694717333
Ni 7.966785691560751 1.5877394537739966 2.1882563607182535 1.2110718642668175 0.38052995273853174 -0.23785763854656455
Ni 8.241507567626607 1.3997738111282667 5.883281859435976 0.30080030081737225 0.7262386840328203 -0.5722427172979176
Ni 6.6687324952332 3.515978999160695 0.07736956959636655 0.017769408168279075 0.4904808654380779 -1.467902444371459
Ni 3.7356393874634466 2.2621776163443106 3.956051712693955 -0.22777325772736903 -0.08112987470279576 1.3145384547936005
Ni 4.069056958199124 1.0946212613729405 2.000363216317721 2.6402146713715755 -0.758495487183997 -0.31330871769702817
Ni 7.2642591062996695 5.436950130733965 12.010939502534406 0.21832419649932722 -0.2916307185029623 -0.3648698776037716
Ni 9.00614098294054 0.3577277194940183 0.21480021748044725 -0.09202081058368668 1.5074382976825522 -0.15056740066932778
Ni 0.9437877327740726 3.1219138579229453 2.500542551908114 -0.8383758057504077 1.1118807611869366 -0.4282480847501012
Ni 9.258769483514685 5.09904324558411 3.46536778829512 -0.4269525058671292 -0.602811334113394 1.184105877200935
Ni 1.2365412236711972 6.710242387932395 9.535468330959207 0.33184225772484144 -0.1313211508452061 -0.005862372318047968
Ni 6.629945934052335 4.871798425476043 6.961044490406364 0.11271407726698007 -0.2727968736259109 0.28818878270094883
Ni 2.634000667741224 5.749361799655899 11.404569756487442 2.408297566679162 -1.770409700577609 -1.569599601702645
Ni 3.2147116117762295 7.369595338713458 2.1407523502846844 -1.082646804022484 0.2142726521377729 -0.07211687257090806
Ni 0.5994591761361133 1.1673983459754258 3.740148220635945 0.8083178100227626 -0.598520162937208 0.8806920500201155
Ni 6.834130735399385 7.531517380968873 6.81449300559758 -1.5565376263123643 -1.203860948340675 0.6324651524240849
Ni 8.385054093118407 7.330985375822178 10.976639569560144 -0.4066862994189254 -0.6935494213299152 -0.5794865433445247
Ni 7.084091672336121 4.431260050137089 4.52748659920236 2.2789831618513396 1.3674712982368902 0.6874168260696162
Ni 5.51933788014858 1.9909691167765038 5.965175133639754 -0.584268281003884 0.804071376041583 0.9490003474782107
Ni 2.4791518517160123 2.5001763428233965 8.77171883655788 -1.5622164218646968 0.9739693587187227 0.25499224134432213
Ni 4.447758048243016 6.245621582682197 7.8780394742564095 0.2523830858562492 0.5848606631722444 -0.11786091157524217
Ni 0.3800962165316099 7.070623729093592 2.4149481493405163 -0.2918898857016199 1.366553414408311 -1.0599056536712261
Ni 9.298271732500707 4.330877864478488 6.255722075381753 -1.48765545862867 0.06910508232777776 -2.2075851697243274
Ni 0.9739767456462146 6.341179846641093 7.14994517452221 -0.2350255684144081 1.91401352544491 -0.03329887126244588
P 4.739860913862724 3.8872629610420346 2.8190858993373618 0.9573199230874996 -1.2952559524149048 -0.1973601926531504
P 1.5242848999322125 8.557367550518851 0.5768722548982461 -0.08890257666967914 -1.4330326290774673 0.9575099276111186
P 3.553715265250873 2.4195731655982686 6.613879207558866 -1.9286922105030073 0.45835313166559766 -0.6569276563418235
P 8.46962608453578 4.810658238692499 10.188743512184514 1.6871859194602623 1.3986055577478493 0.1862746242629502
P 8.828743353729424 3.0231117622237855 4.431553760976609 0.1824567931787567 -0.04549901287306357 -0.6839103555782544
P 6.061085664713136 6.324430893071019 9.419769496805532 0.4321314789649074 0.9213964697180131 -0.5587351697297861
P 8.260840433012708 6.232646255721141 5.817670947531895 -0.22568243663661133 -1.1915109114157545 0.02832687196915121
P 5.101840934277003 6.7502744317871715 5.621520438896261 0.2111410484873267 -0.9816189048441806 -0.4725803310085732
Ni 1.2249322097927167 4.018271007973329 10.750220114089714 0.5816326431532498 0.5925485187348053 -1.2684272622578348
Ni 8.853903962671815 4.801939859975112 0.3604222376072061 1.4135729776909591 0.25467136766979365 0.07719428709381543
Ni 2.0014627730365557 1.3179437405228664 1.6340844217490813 -2.235394478627111 -1.3147999359851033 -0.5949710121333689
Ni 4.987433126566659 4.138906229053235 5.014919256143474 -1.328805763345892 -1.2601351974523716 2.4166181707297154
Ni 9.012191798020517 7.236384460485766 13.322427181375932 0.08350763090635295 -0.39693384801785186 0.9510646862064073
Ni 8.620757041832894 3.1281319766456868 11.602394231015401 -0.9922275335979622 -1.3703817870154658 1.3107486487338653
Ni 1.8589386586949832 9.041488524797915 5.615779135555399 0.8667304456337009 0.7800248766153405 -0.603950847034476
Ni 2.093767910608367 3.8161960914544735 4.6262766118606535 -0.43547674128805647 0.6054531426116154 -0.6110080109915735
Ni 4.454273595664005 3.1613231604407663 0.7048818487653307 -0.6279145569389251 0.3463947016177195 -0.2810100055643225
Ni 2.478724297962281 4.575503674140406 6.803813456401123 0.7790830815273615 -0.5545329587229805 0.09424455770788286
Ni 6.77639238935205 6.680081259000713 3.30488548683216 0.35290833436652125 -0.04105974615478735 0.11383790645877814
Ni 7.4076104442082435 3.9527995157715528 2.2118591868535726 -0.31517199615801206 1.0052036341426558 0.4408881421116149
Ni 2.9358350285817245 8.481560411052968 7.827148494521545 -1.1913237351056127 -0.5810652006855541 1.0204741871484813
Ni 6.450958920234957 0.11602228786302 5.0983916908420115 1.4535821710940449 -1.2505953762827364 -2.1689106359722645
Ni 6.370560225239875 1.9702327597205465 11.770671023301816 -0.4819864548138215 -0.1251034520702684 -0.8132124191109027
Ni 7.543972207707996 8.49127331698012 1.5952188560702443 0.6441392463279035 -1.2884990933070455 1.4354443238427537
Ni 5.056696834671094 8.407621495597953 9.337616901955471 -0.4250853707514034 -1.3341634281133798 -0.6323407110310788
Ni 9.160766727442066 0.17849625646526865 11.398135072493789 -1.5819010447778177 0.8285112542515022 1.4881452537808952
Ni 1.9126524226691546 0.7368052427341297 12.662704303651422 0.4412236710741627 0.8897029952694742 -0.7398192509307323
Ni 1.9854480965652808 3.284663123745362 0.2463360246768423 -1.2066117716129348 0.2368543940930308 -0.787685735594708
Ni 8.410605077227249 1.8876870013099878 8.553923883871953 3.412538836908549 -1.3348252300670946 1.7358926406373458
Ni 5.203803209895045 5.464062615508608 1.382498780548167 2.149392877654311 -0.12423493342238603 0.8455903212209759
Ni 6.337443398619357 2.3558118884114165 3.869804825919576 -0.007820524485683305 -1.0660693592797768 -1.3902283894277476
Ni 6.27622885466125 1.0395225950225528 0.38442194516174993 -0.5422834519316662 0.19077868278089077 -2.31122710948671
P 7.4369164656324624 6.256217480057272 1.2328298711958752 -0.019510816339418015 -0.06508284854226211 0.00055047318683131
P 2.92524842585347 4.80414269127151 8.968236483742915 -3.6107477507152397 1.0780779537048786 0.47819870563661515
P 5.251224497971913 4.821244841420753 12.40733574119467 -1.2805649260616332 -0.41016088823108715 1.1123183629449875
P 4.938199382359843 2.6962376228495564 9.967084774815413 -0.8557358942954101 -2.177428700745605 0.5520891251681783
P 1.5762698595978193 5.684262093326932 13.198742386674304 -0.27429376988641146 -1.1089396762807417 1.1952374683377223
P 6.101628914143027 0.5409289261796928 2.318307988491745 -0.9422550583345772 -0.6016044582894865 3.731892732358392
P 2.9738129554892283 8.042946027605803 10.116357732213162 0.2606201290540608 0.06320825722736856 -0.14635747635303828
P 8.551010012093807 8.715097707058339 3.8874349120082092 -0.08789804666456474 -0.383351738458043 -0.4339708461664913
Ni 2.7884869925404465 5.037373263931813 1.651197725474509 -0.12189111578055782 -0.6791898101741335 -1.2892071751176637
Ni 3.748614714424502 8.668708124778517 0.2540793949427849 -0.2202540665321884 0.5611813172774335 0.1808601381155982
Ni 4.517114702815654 8.152725101199668 11.720215033038137 0.09891008150435222 0.008974692694784544 -0.5750287646834871
Ni 8.285452657792707 6.261803562796236 8.557025507515867 -1.4743530850928093 -1.4526300915934207 -0.029794714763929336
Ni 3.4708813727888868 1.0209147120884308 10.53452110426175 0.19126642105058672 -0.04420394821072387 1.0810100397500093
Ni 6.50624347952175 7.707418572041931 13.189097331668941 -1.055096405208041 -1.8995808949593478 1.0000012640061102
Ni 1.1364564667108443 2.266527511056183 6.359804459939491 1.3712657322823159 -0.7023919593222097 0.6094951738914729
Ni 0.6414672619048737 4.416825463625255 8.310527755984353 0.20105461078560213 -1.1330579094851843 3.1649418595870333
Ni 0.7890030498119203 7.0302663726001065 4.948247825037206 0.32916291112046536 -1.068113129182683 -2.8771030040263352
Ni 4.026320172119657 6.380914461797622 13.380487122203247 -1.098498940563392 0.20418287200193866 -1.0540201414247268
Ni 8.366799406763455 8.461669866857653 8.720908720250353 1.279234380175668 1.2489773810633393 -0.7178576590579766
Ni 4.251631705689115 1.1566537342512275 8.300991448346785 0.9170268798954078 0.1561304965794021 -0.8002476314201186
Ni 4.793825633301044 8.293817839930924 3.6047921379221424 0.5403489539131147 0.5878670540987359 0.054220709016777585
Ni 4.5481495285484375 8.727431703388797 6.110040569515344 -0.7936254981179107 0.5638768618317257 0.5012337330792077
Ni 1.6003708788027038 7.508085576335047 11.866767447311604 -0.9778751215310318 3.42763301223751 0.7309664285257927
Ni 4.191467456821696 5.719721170946151 3.7994462084197176 -0.5753329261874672 2.75504836608472 -0.80262178807925
Ni 3.2908533585276425 3.442225976642084 11.732526722216228 1.2125253088838923 -1.5884725273477482 0.8924515045488889
Ni 1.1852254785766478 0.1092093117437835 9.68098718050626 1.4935003474452213 -1.0348345696352113 -2.623121977555347
Ni 4.524661956033689 3.845929666632424 8.05555421601746 1.9426062494809384 -1.864594351581834 -1.4041100325058462
Ni 4.570521743444757 4.794820160510809 10.25768655497365 2.3820712859927813 1.300768654703018 0.5882879436862384
Ni 6.813468735517989 0.5054977325009349 9.674348014282565 -0.29864185971347273 0.963153241939825 2.9061780670154205
Ni 6.956234510676889 3.4146487595264294 9.817540413730512 -0.7211067621228936 -0.2088198565533178 -0.9617139383901374
Ni 8.837415259212708 8.44923362941217 6.1292079901880445 -0.8140362005637786 0.47862422320980796 0.7157573248855222
Ni 6.3340787364704285 0.4171344546455875 7.508238008542898 1.068494423781502 -0.07515077430122541 -0.5447781933290617
P 0.8509909083854703 0.1911118805943815 7.499069768919412 -0.07355154813490558 0.8885056325272632 0.3748971799327866
P 1.247676210561846 1.869088413022686 10.809559927784177 0.10298142336024844 1.3046944721199853 0.5338746590426805
P 2.85538986035254 0.17747012745631408 3.6277954593375563 -0.37434130742931654 -0.0708932845764521 0.11498487557902777
P 3.9204076716030136 1.4174987026144659 13.153428195031585 0.7475101918170868 0.6990592954045509 -0.549073478270306
P 2.0604744856982644 5.770023799537294 3.4434249860818955 -1.2967363936151732 1.1839089306987804 1.4359505740552108
P 8.64219979204719 2.6498666298633755 0.2479988369929834 0.5909634336358726 -1.0274171941252177 0.6144633165300256
P 7.128984816477884 2.547690577368468 7.293857909098725 -2.3639344671827547 2.7514868739857063 -1.2243109886649108
P 7.0049756386022315 9.10692283841241 11.837792315314184 0.07224799883213365 1.274296062333786 -1.4262099497286793
