# total energy = -381169.2958471629 ev
CRYSTAL
PRIMVEC
9.25190866927853 0.00000000000000 0.00000000000000

0.00000000000000 9.25190866927853 0.00000000000000

0.00000000000000 0.00000000000000 13.54110353474738

PRIMCOORD
 96 1
Ni 3.03992745687594 4.380806611051815 8.947582141764347 0.7735999469256032 0.3804013975804674 0.4083168930438129
Ni 7.597584306195 1.8264470879964267 0.0862805266549228 0.7519281183791243 -0.7511048511468805 0.002724340909698534
Ni 3.098501292003846 8.376363736283693 7.989142668681139 -0.4679058083510393 1.3709317459816648 -1.037907037912948
Ni 4.790934479853736 6.48366372878783 1.9705825764591738 0.63701806190209 1.001284758704224 -1.8596732601311325
Ni 5.013368873179455 2.189075656601432 12.367564137623338 1.0010682718180437 0.28277532499486135 1.8441065160411274
Ni 5.281664978830087 5.461540591301539 8.43788152881765 0.4093982990334497 -0.5298480543817907 -0.4002408009038978
Ni 1.8415184475641664 5.0972096714623625 11.038125893970157 2.7433591026722493 -0.6700012016963299 -0.709058829819424
Ni 0.7031126933024696 5.873546597606376 12.815449971760989 0.6274491872667324 -0.8102967881260046 0.2593080951108567
Ni 2.2276468647278325 8.187467512652914 4.865331854741437 1.7152507960172783 0.5975703974294289 1.0072183505798393
Ni 6.642130424107808 6.854998343650198 10.75833891748887 -0.1816247841957646 2.4091529727009218 -0.6246438566074533
Ni 1.757936702729937 7.3342194679781345 0.7061140125435836 0.39512816226768077 0.18853899481709466 -0.48092458920821046
Ni 2.4774669083423846 1.4129700281794526 3.5156495092649447 0.6064435315493427 -0.13109052289163875 -0.58770738859242
Ni 1.4644569011042354 6.786969057645538 6.810010936714573 1.8666144673356564 -1.1370801432706998 -1.0097205481764029
Ni 8.54854176056585 7.735928099698015 12.375973197605608 -0.3583678148191957 1.0736543707158863 -1.5527776450492998
Ni 6.364508394304761 6.727803100349226 6.410223001278462 0.8959942275948246 -0.17613367917420633 0.4355574739273208
Ni 7.644759789581068 6.437728001191864 3.149376613751571 1.0372280095680524 0.27403100314332807 -1.2346090281568092
Ni 1.455491801398195 2.836672270661286 9.851884070028262 -1.0101830896351183 0.3531675015651789 -1.4586192192973202
Ni 2.3862615905899127 6.803363440183313 9.30555514982025 -1.544677898760301 -0.9480603521624447 1.1780187904665904
Ni 3.103515826617545 5.436449414415283 13.456309345773434 -0.8438669107719661 1.832185082013193 -0.9067614934136576
Ni 4.610420485669471 1.9218805281076814 2.321297461997649 0.4358441519298042 -0.2659117164703033 0.02660731817488321
Ni 7.160505626821671 2.3743451319507174 10.739922992860517 -0.2556501866432952 -0.7942903853954192 -0.5448689532706552
Ni 1.4357574797542485 9.301776670233103 12.534390857808516 0.10415127529863354 -0.3159191587366817 0.2256487551851985
Ni 2.5480774769249437 7.45953657377619 11.860124691207247 -0.24928079278184165 -0.7533046870116769 -0.9636468937467919
Ni 6.870458283390954 3.6917892009301014 6.992910073008452 -1.122618202209099 -1.186501631126621 0.9670803449083731
P 4.006465125803005 7.664716157038168 3.8104125506524915 1.6264515776946828 1.0905012670698961 0.26060701642793827
Ni 2.266107049947657 0.5466934454179373 9.59071656017072 -1.8710563051570936 0.0075700990377740585 0.7261157853017107
P 8.718517830534244 7.157545015979634 6.678079641257231 -3.5496282576960994 -0.6166870636542218 -0.638073756860114
Ni 0.27311449979604646 8.084660301163213 8.375375632415166 1.2341364593957649 -0.3789402396539087 2.572555834572021
P 1.7522837864034246 2.0152878001739176 7.81589789930496 0.71272573714805 -0.0526289390496255 -0.7035479273035239
P 4.776862326445183 8.270827211673991 10.577931320256742 -0.09093837615278531 -0.40591882512528155 1.6006117338134433
P 0.8249418294522518 5.222582288713706 1.883932898639885 -1.161712339997083 2.938790710844119 -0.7761021445221666
Ni 1.405068897994769 3.5148186878473986 0.4645263174516683 5.608970561119218 -0.6745235150467157 -1.7398508539541455
Ni 8.254673378767132 3.850746247420792 8.862354482340123 -0.6538269059293127 -1.202937150974825 1.1507638114053793
Ni 7.658665408629756 6.693802335210218 8.651302712511145 -0.7403908071634862 -1.3356904062808672 -1.3678878169490183
Ni 0.04275584651344079 2.04042523660458 2.42714762631843 0.5629332669715338 -0.2778136101142119 -0.5698014548462768
Ni 7.425498801001657 3.4959355418205376 2.472036963019913 -1.1852423047982232 0.3578229980593193 0.7792018664934129
Ni 3.0746683747254564 1.1709215880252455 0.36549573516733974 0.18822917688615967 1.1144863171305839 -0.12487462388891397
Ni 7.40257257079364 8.890233259372334 7.3958390315097855 -0.7537253194888632 -0.34977261695101697 -0.12877755848774597
Ni 4.515606923453268 0.7598768550531815 9.149655859214851 1.0070661412726913 0.05369774663377204 -0.935576103652505
Ni 2.131103195550814 3.966043535900332 2.683101685521325 2.395155115759933 -3.067703766468465 1.4937446022455436
Ni 4.997807162441003 4.364671281962719 3.256825507927051 -0.17944217472214902 -1.6974482206182187 0.3122874755213654
Ni 9.32694186239041 7.506517767075748 4.653522353575076 -1.0690690653380492 -0.6953954733997185 1.0392458113290297
Ni 0.3148332073238865 0.7914730490739228 4.480859529267534 -0.08176442296300113 -0.8200896058467102 -0.7222966686659367
Ni -0.045272365729171406 1.315834236834027 11.243002939811714 0.4057180219683851 0.612002770804675 0.2753846889577451
Ni 5.66546191495565 6.206060202802546 4.121735583746789 -0.664360972691417 2.9722353636558103 1.5804242031219748
Ni 9.102583072017365 8.828532279042525 0.8992799921231119 -0.5963833190998632 0.7617610453091462 0.48224073691647273
Ni 3.9306919920646455 3.9410263742851273 1.229803511718901 0.8727699669595613 -1.161678401435354 -0.8651399612181294
Ni 2.3073150521052455 4.38172255003107 6.592648439837617 0.582558754511945 -0.15589601197109282 0.09455180453565652
Ni 7.2115021485757405 4.856771063453512 5.021718720944884 1.1358223596041988 -0.30171895597689974 -0.8496446937960077
Ni 4.298991980813926 2.7709097023325606 7.485847152253009 -0.9204436188864407 1.1757654756560396 1.149485716023904
Ni 9.293542471328688 3.80116526772557 11.565320941420621 -1.2779143758126636 -0.9050815346080736 0.575726304971144
Ni 1.4328616322743821 2.681092170912293 5.15396088054064 -0.1958902929758433 1.3121486144051853 0.4253057142923256
Ni 1.337141382987805 8.286555456772307 2.8321758429449435 -1.0246211194373194 1.8093164049451358 -0.9263903233881788
Ni 3.5017457405980337 8.729832915096152 1.897582239812559 0.6267794148932173 0.024274556276648516 0.7837133812105214
Ni 9.195971840265841 6.0537182711620305 10.253025559733716 -0.6576719907070157 1.188468782155321 0.8104268859459656
Ni 4.9985103075159865 4.56376310918076 5.893725010876628 -0.3756769955216046 -0.270389806846315 0.38839932818427947
P 7.898484138743555 5.483319584808266 11.994533647863017 -0.34453450848052924 -0.14962457714008426 0.4253157415946546
Ni 6.22278765406005 9.207842039360628 12.39641991623342 0.9892334839666447 -0.7634155501934337 -3.2819363093969223
P 6.340277644944472 2.0658587341194456 8.487279320717022 0.22527954477123785 0.4074995393488401 0.3434407611957182
Ni 4.673213191247279 8.45835415279033 6.4621937490377395 0.8290069629409981 -1.8662979645365019 -1.3179688206313882
P 8.521794491989832 3.1111671552624314 4.805398914198858 0.6322599783918144 0.24327623845897456 -0.8946330855812399
P 4.0378661045463495 3.0751124663517615 4.61788215018229 -1.2993823158784525 -2.026033919078975 0.5147600497004168
P 5.429260681214465 0.773942532125517 0.5208852455933765 -1.2608455932558351 0.9231142237400682 2.2556450013460316
Ni 7.773925689473771 9.084514093972066 10.156125692064766 -1.013459446393545 -0.6358713498921564 -0.5236149289878853
Ni 6.492508553678413 8.094976179565933 0.8466653115056911 0.717204855965326 -0.7784086811681563 1.1947044786523875
Ni 8.098982256111563 6.244677670473354 0.5876294414544141 -1.2729462331741108 0.6493750408055461 1.5115109250900292
Ni 8.064185826808759 1.498614948694226 6.161473403521484 0.16917601690945056 1.1526538293392405 1.1515433698838813
Ni 2.6801669800241568 6.40781657977842 2.7021273109449586 -1.4194955138229812 -1.213340091475704 -0.40014798407977537
Ni 2.776118527032768 2.8323516292136897 11.631672856345089 -0.9963744658868001 -0.7255149184929183 1.2089563605857114
Ni 6.534650998633019 3.685645933432877 12.807230575910786 1.115368205514905 2.7476595298198165 0.5353990661070069
Ni 7.217904469521644 9.29252476135174 4.6393308505419535 -1.4718344324360135 -1.1027646578182815 0.8505726049269158
Ni 6.56745826752633 4.649574564055398 10.35362249019166 -0.17085648993566704 -0.7903306294167227 0.2922794078305547
Ni 4.782589258042747 2.8470806681528185 10.15187351474289 0.010300353484743553 0.6100217358189042 -1.2368404885904893
Ni 5.450132987650819 1.246500431677096 6.389572740655261 2.627285364904417 0.6398537315786722 0.758919462095293
Ni 5.866774200305218 6.232927746194024 12.763736427068611 -0.1009106568741488 -1.2798838408342086 1.71279076451256
Ni 3.8305308265150146 0.690967712513905 11.517548709911706 -1.646013301876694 -2.490451254660782 -0.8284842576683086
Ni 3.048605747406658 0.9902133037544719 6.183017398542625 -0.0018946459195515754 1.2322420705865293 0.16730991023498928
Ni 0.8107012913020586 5.000434704563309 8.370704343620964 1.9750980514610568 1.0175798963198217 2.0669895355557304
Ni 3.3730609399671616 5.919528584746748 4.969828464792875 -0.9036645996558887 0.18247247690804058 0.7588042766736673
Ni 4.316219035151024 7.849523036943385 13.334006511888926 -0.7140791658521509 0.608305781569062 0.10028459325437568
Ni 0.9452027670466431 5.273884123460862 4.079216586100712 -1.2957138658879297 0.4127880414412891 1.655556465480439
Ni 6.995941923548875 0.7665965164737152 2.2937952376569104 -0.525799852454346 1.2075754210777847 -0.12976074833662168
Ni 6.441697070101969 2.3612166732480637 4.451705839191473 -0.5792407458823057 0.255819622341624 -0.44987260499841236
Ni 4.627018410202636 0.5262337741176921 4.406289143683752 -0.09063241487659231 -0.784122957944114 -1.3416669355792765
Ni 5.5642182760669 7.893062520139076 8.706577316931957 0.11530446370197561 -0.5466712965867165 -0.9890691904746386
Ni 9.088862491146305 1.0851101331506077 8.436487266149229 -0.1475430120207072 1.8511459393864118 0.5754157157092608
Ni 8.759041191434612 4.089491756104353 0.7106344952230175 -4.5976610711891395 -0.4453482347654975 -0.5116821821060412
Ni 1.0509520855606171 -0.03303486585179315 6.587977151043416 -0.9060490407276653 1.0148223881793426 0.012634658044875013
P 0.5672289823710096 8.43045039560414 10.497740400027533 0.45114324418071977 -0.041294744983728884 1.2269294001243645
Ni 9.036052595251489 4.43733577431694 6.62356369336469 -0.0804673014181324 -0.09522491934328116 -2.6223141369420713
P 0.6763126888458268 1.625467871366588 0.20212830371290408 -1.1939022944660664 -0.9546719439416912 -0.15270013074161443
Ni 4.317884378749668 4.369732076120824 11.859867488140345 0.9165532826930989 -0.27591485042960223 1.3359925109023185
P 5.970867427129429 4.854152773240087 1.3956680333804166 1.6831765411905528 -0.618785083833831 -1.6511714490388658
P 8.396255340378623 8.602323106893211 3.0525442850174542 0.2766730687518654 -0.5282727394748707 -1.503643092306178
P 3.6004358526355276 6.345292179558172 7.425575591845372 0.3603344516272633 -1.0500526721365466 -0.707261371599369
Ni 4.126758445078481 6.094223128244636 10.66367338581477 1.0640453868712128 1.6634134996310126 -1.2492434902405325
