# total energy = -340862.22452198295 ev
CRYSTAL
PRIMVEC
9.36406096865547 0.00000000000000 0.00000000000000

0.00000000000000 9.36406096865547 0.00000000000000

0.00000000000000 0.00000000000000 13.70524976141686

PRIMCOORD
 96 1
Ni 8.947341663791223 7.692566838928836 1.0658886025605094 -1.1773487609827593 -1.6734965948986278 -0.78792201997523
Ni 0.7866710283416973 4.139336393975279 1.574774758033434 1.329739330903755 -0.45967699268334383 -0.12800854153220534
Ni 7.729414419402075 3.1232140305972527 0.661373335828797 -0.43734284796251777 -0.8639562253226735 0.7449074640869171
Ni 7.73847883055788 0.6500287757923731 0.9493060417239607 -0.0555265723123947 0.0020136879959191125 1.42809533967685
Ni 5.391620378582041 6.560489306808723 6.5781227702875436 0.12144605782333924 -0.1955362520705342 -1.4388088694396124
Ni 1.178925929860294 7.817623875071174 7.256395427204028 0.8501949098725228 -1.7681196189918518 -2.4456698366800333
Ni 7.468812598672665 4.2214685739831 2.9511784362652858 2.054276715974752 -0.3803977980360416 -0.040512872512381844
Ni 5.912880204407529 5.1600190551145415 0.7620725762082411 1.6975857746373475 -0.3547775263647761 -0.04516708345494157
Ni 0.5957499955603203 2.3742015104210386 9.666477210585501 -1.9641811474382362 -0.9561971223369661 1.5952337573309816
Ni 6.8963688148124325 4.42730000127211 11.100114966736154 0.6616965384853766 0.566342806873715 -0.21502778513624254
Ni 2.3835000231046286 1.273437398657345 8.853345218355296 2.2289119562265616 -0.12276117709033697 0.8703158489921141
Ni 5.840449191711086 8.008678813926444 1.2596684831991876 1.6352326663214225 -0.15472384603986258 1.3989313165183843
Ni 4.387952216482136 4.387577654037681 7.4484747943448815 -0.22332267815518314 1.5983285942062215 0.24243188818080824
Ni 5.317878397330007 4.238145966822449 3.1261815015634458 -3.186127492525713 0.3386502817856103 -1.2727508293338532
Ni 0.03724555307047172 5.544273302819584 3.0559969271276213 -1.9420598900591652 1.8080429375493505 0.08791604438669375
Ni 0.891887491801266 2.0928021099632774 0.4636240296850095 -0.7807982644462553 -0.333435056133258 1.4526830563185433
Ni 7.194960631470668 2.2852054736185843 6.645798712751632 0.6886416996156527 -0.13112446145336773 1.5038966030778809
Ni 4.762739398403585 1.8433997063230654 1.7466520997326191 1.6631569035355163 -0.042968533141726 0.0962009101033053
Ni 2.594378679332667 0.5005146848393603 11.395037944250953 -1.5981313905937509 -0.49959568325515247 0.30626620902795
Ni 0.7243681841433123 1.6795660931185465 7.522345999640253 -1.266899769869715 2.165004358939323 -2.6029948677881687
Ni 1.783085788704735 7.48655749447871 4.687743569368737 -0.5136786437107799 0.6794852299273653 3.0036992385920462
Ni 5.257030728228329 6.3742100391202525 11.829577200124051 -0.49312653059104106 -0.5305880178716088 0.05593614904598753
Ni 2.931971810519756 5.41090098041035 11.742261075884976 -0.6396601275106273 1.5725098333709047 -0.6138935600694847
Ni 3.823992271988803 5.657128967333808 0.3975989711948551 -0.6324034459482141 0.25323874898832516 -1.6878490069655576
P 4.098359262551926 1.417606483527988 10.213604318825036 0.6860628831448828 -0.35908181016708485 -1.3793155991699857
P 2.108084257697032 6.6129935974601715 0.9681624515839253 -0.7877117037366369 -1.4146117033681187 -1.7764515358963149
P 7.241172273055276 6.288425875278997 2.0976845314267454 0.4062504974330874 0.3079140290440181 0.19834312539171003
P 5.349725569169774 3.171691774970812 13.66498374388245 0.41212675370820634 0.6827356185438628 -0.36403195508350855
P 0.26208508800945085 6.026007426693982 5.162096003869043 0.31860698998148995 1.129580492459545 0.9087906080285445
P 8.702977125028927 9.019229560943206 13.02618247736261 -0.5733614042833932 -0.9753947783113396 -1.4909153603268643
P 4.707566350335396 2.523839206980721 6.660587374464818 1.9164537594552864 -2.092221827759958 0.5995105518749353
P 2.8963509220521066 3.4383334151170555 3.284449116843367 0.36877358353355194 -0.511035806771294 0.09174904497953876
Ni 0.12555520419346297 0.20142189091166657 5.883663397333946 1.4875114768516382 -0.3063672533821885 2.0004105620839163
Ni 4.88928532026263 0.18687950400570988 8.256317028453275 0.10249317086992024 0.7138199986534931 0.12179469941200961
Ni 8.355945020241577 7.809533326270952 3.2714976839202317 -0.17292699931145059 0.8491952649634149 2.1869117005353758
Ni 0.6731842261085672 4.587921741515429 10.199679959952428 0.7410173850038916 0.3777606175235107 0.04235506792744318
Ni 1.5548087069317722 0.3169884511176318 4.201604591147552 0.7864876015215486 0.6321288521305888 -1.497750895191459
Ni 6.059465217044904 3.3866250696600737 5.0903626137253974 -0.17359959989844295 0.563081876734256 0.07030218795967248
Ni 7.194492428415099 1.770865688954398 12.547581568336078 -2.18474503190136 0.04732372478662817 0.7838596769803985
Ni 8.58217137263115 5.16000969105343 0.30687245589901946 -0.7474955365290674 2.007972433591574 -0.5636647458209195
Ni 2.9820882655878047 2.9772376819321154 5.60980581169528 -2.0952022505445207 2.7570088322452 -0.8354087527022838
Ni 3.0513167693841585 3.27554857675701 12.445682791728267 -0.5345788841985568 -0.4802555881656439 1.0714933585088258
Ni 5.074553269351073 2.953827529153692 11.251859577045895 0.7459055663341283 0.11052786824893868 0.541747376922538
Ni 4.3829237156653305 6.631113055710672 2.5608534677417425 -0.7592452208658279 -0.13526110932956062 0.39410537743012125
Ni 6.463664914917164 5.420564691477283 8.592424083141989 -1.0845090540422033 -0.05835761400328659 0.11153136981278855
Ni 0.15350599020478944 2.256944737184471 2.9885391672874273 -0.20794876680227412 -0.31706792762914426 0.20795056657448702
Ni 3.0552403109898223 0.7649089503188748 6.216098803660891 -0.199058920511812 -1.576889193385523 0.8098923535987342
Ni 0.8106289786951358 7.032035332193951 9.460500640349265 -0.873399115903128 -0.1279792309561667 1.514901438828817
Ni 8.528917957090792 8.60295958829839 10.625378605730283 -0.04632330854657184 0.31149763263021835 -0.06685073907596228
Ni 4.396342415237923 4.953054576431056 9.973516346772303 1.4787141902749823 0.437717200582801 -0.2717470922051578
Ni 6.188707988504025 0.18751626016128303 3.548590552672874 -1.474132227331255 -1.3844323515712609 -1.4869777158353554
Ni 4.837193048300081 7.027418850066047 8.667734544630177 -1.165707062978773 -0.008021327642579734 1.6161134289934684
Ni 2.1476567799536794 5.636331387605456 6.407272666092275 -0.08430415866571933 -0.8689467365587292 -1.449104080718033
Ni 7.075287930467367 8.359269261936113 7.28723221684988 -0.6097052330197499 -0.6258923843025738 0.8825273034566413
Ni 2.1419353386146325 5.574790777981536 3.6706089509845725 2.4198485047415548 -2.065203390189585 -0.0850603201054535
Ni 2.557596647287208 1.4025771654442403 2.3543834114849362 -0.8791437316963892 0.025631584525175208 -0.5773959793640829
P 2.070197266440432 7.548931505541542 11.4317684739603 0.3631076434970263 -0.08781011493644877 -0.8319675882312187
P 1.6008237032330415 3.830818672538992 8.211746906781489 0.185592510594261 0.44116042193639504 -0.1950729392808705
P 3.9822636328931686 9.081800217289375 2.615728738666589 1.1560289164590607 -0.5606886939117312 0.3342544667107598
P 3.7680794630928167 7.99763858587614 6.9281410741633085 -1.0510708289884156 0.8232057828781887 -0.23166385103102685
P 0.6023778780149476 3.798147463321424 12.894570598442312 0.12393565701441238 0.9757053675732228 -0.3869389415886691
P 0.9915604310829039 2.096538370346714 5.247712551016405 -0.31197302960474016 0.024159885075655165 0.02532922279340799
P 7.772695109858824 2.2054143088886056 10.624762450509154 0.8120322827598724 1.2241253550166658 -1.8136559128607537
P 8.243229816644025 5.418616966766118 9.60627004326384 0.5983635827546857 2.0697578423294867 1.055706527988214
Ni 6.3539274827530265 0.5627697723260774 10.434478173883349 -0.6992881235859053 1.933180328181348 1.078138631739485
Ni 2.762454212220636 8.393419992809278 8.900394943409372 0.012923135819571293 -0.7285256802947842 0.7756023220676126
Ni 7.926312532390839 3.5646826916927625 8.672352899570305 1.2783555771151403 -1.3523699238190772 0.0009723912155983254
Ni 4.4515622836116675 1.7843124807103243 4.234744003420688 -0.9364937303707679 0.2691986147516912 -1.8196548107566664
Ni 3.7934186124601825 8.40341144601511 0.2822843042327857 -0.9709742806461407 0.10689978457804815 0.13317645888639
Ni 9.372395125758501 1.49119863980224 12.111644258139052 1.5326348515528379 0.12451081279159203 -1.4299660743370017
Ni 9.352271758430168 3.9972367666102486 5.207350638408069 -0.9002206069713463 -1.1306611271182334 -0.09305773648863327
Ni 2.668579499579158 5.8743658210564655 8.56219033903171 0.06597887799397023 -0.42131381952411306 1.0937040902779098
Ni 5.494690599234883 0.6520205115907612 5.8657377751484505 1.544289662182947 -1.1513873039219913 0.9653631051069503
Ni 1.3208757322475422 8.923978331318356 0.3195972785432593 1.4952348136378248 0.9849261148405424 -1.1254122200144683
Ni 6.220957814971581 6.957562954175231 4.220668883164189 2.0231895076516446 -0.5967191051727271 -0.3864283205008377
Ni 7.19196413191503 5.0620054274618385 6.441070371861541 0.03759981263064492 -0.7265266475868842 -1.4118261702031814
Ni 9.16102017429156 5.4801013920233705 7.55119573551827 1.430302374630498 -0.02903084001471129 -0.010107777857963237
Ni 7.51726225086289 7.092040235795607 12.293088861075724 0.7348968739284505 -0.17861170840105367 0.5703951225662176
Ni 3.0598287009343936 3.576912155504211 1.101306290902042 0.6535299435141841 -0.5042848612007057 0.5647510369065629
Ni 2.731168884047551 3.397974311727053 10.142392506885294 0.6966601990447551 -0.6455574668316688 -0.8574706175983297
Ni 0.5093468672796039 6.020585635310499 11.978018169673701 -0.23275065633730238 0.7169606011650039 0.7372388917980658
Ni 5.7957451639654085 2.724042833541799 8.69779037157934 -1.2384942221438282 -0.5663708318981729 0.4167899635118306
Ni 4.552769056103348 8.614496111587599 10.796900113107235 -0.6830215252153979 -1.5938970407974293 0.34643712481988076
Ni 7.92063791135735 0.9080236419083777 8.74910261725131 0.44566242357180663 0.42545201006220273 -0.7343371447702386
Ni 4.797966996304555 1.1864920912382801 13.05171546279498 -0.03922474982857761 -1.3078353317418123 -0.8760008151920333
Ni 2.007036674244245 7.839086303138433 2.4962330184182933 0.3060826322622342 2.0428342784657656 0.8776776886738238
Ni 7.763743067436355 1.3393697529424968 4.554336599933392 1.3351610161399587 1.5878678038842136 0.4690003269667988
Ni 4.337442470847409 8.016488440893326 4.734697780999477 -1.9232149894385202 1.115893739001072 0.011167843691361411
P 5.760423925453324 8.225925031710213 12.886895813955435 -0.8435786901075858 0.5535682808168659 -1.162615311427327
P 4.654003920778362 5.4991478923238954 4.800880155716302 -0.20457136568960896 -0.03838091377104357 -0.21571272701840916
P 7.795693243948348 8.696759388450976 5.4611035848406235 -3.069482455635443 -1.3237918550710686 -4.090609702986891
P 0.33150742787081 9.375391625314139 2.3728446579660014 -0.07220917517439822 0.9187261219747016 -0.27797507539274063
P 0.3862965494334323 9.163595291097186 8.504806436135128 -0.2249843821283222 0.4918034409042433 2.038895091312359
P 6.474761327334137 8.194302597337119 9.29723074362365 0.8228594552823635 -0.3166670926462998 1.3582492654179896
P 6.936512544796872 2.1567773754761532 2.6149346662843453 -0.21421325965474722 -0.23774193890430667 -0.0006913696400697771
P 2.6413300817450733 1.3590436453374841 13.351023630128237 0.7239156923265985 -1.4949015986681222 1.280792211581091
