# total energy = -340870.3229071054 ev
CRYSTAL
PRIMVEC
9.34434417750329 0.00000000000000 0.00000000000000

0.00000000000000 9.34434417750329 0.00000000000000

0.00000000000000 0.00000000000000 13.67639224455996

PRIMCOORD
 96 1
Ni 5.324304405516722 6.6599382106665805 13.316005059626974 0.9668854552887476 1.300725460169908 -1.967637738528269
Ni 7.024535823632874 4.480416701713708 5.946166758888541 -0.024759466332867037 0.037792645367741365 0.387246702637075
Ni 7.664174856970531 6.001274093008881 13.603715541550947 1.0611420971814887 0.28368318152111144 0.8028033079624367
Ni 9.343203958621961 -0.03083353179314365 6.30801713472807 -0.6154470205995336 1.250406657310698 -0.7574377353434438
Ni 5.938704365795228 5.8704906548245495 8.943074477715118 1.3134187393668606 -1.6525529027674248 1.3881247128211838
Ni 9.359108032056493 4.481883763716777 11.0759219229793 -1.0084784482391858 0.9253973633472901 0.9296859634203151
Ni 1.8033742868414055 0.4003341220397544 4.307625765218598 -0.09529202513579071 0.16637814244933927 -0.26268498200288953
Ni 7.062595336616925 8.094519274099797 12.124490940373414 0.16370470938223416 1.094078185787877 0.8954344984366127
Ni 6.620112616672467 9.484602571554607 10.044502580070732 0.5189455485366741 0.3135077210817117 -0.614639951317206
Ni 7.065753724878307 2.953093024392274 8.405742928751923 -0.42275929372138804 0.5333830641182428 -1.2692569572479817
Ni 2.202564661179405 7.659072845163684 9.80801125074177 0.6154889295810626 1.105686973671399 -0.04728027314320244
Ni 8.77325504260202 1.2988357786015663 8.318596642466492 0.6137207819370463 -1.615491222028437 1.8385796726856272
Ni 3.7280755357709334 1.9390261282333705 10.495413898274855 0.28755963375738214 -0.47780841217673187 0.2832170405179703
Ni 2.615285645583917 5.4412488702835775 2.0577908712053063 2.818019053379986 0.9955625115084662 -1.6021914195957376
Ni 1.1824239414409203 8.343106856696094 1.9885614300452423 -0.17123444210037608 0.4940138182920008 -0.3724764863064359
Ni 8.035584496689923 6.976982457176739 10.153216546670057 0.03987960980375713 -0.39087478630796557 -0.6384851333659197
Ni 3.38640894290355 3.207287213369723 8.425614610635519 -0.8910916480868848 -0.6083430625649007 -1.6111170042201417
Ni 4.296249026436844 8.67200907570239 12.536109292189632 -0.5865334228889769 1.0233761912866246 -1.0394532993541454
Ni 7.967809969885769 0.6907292339859024 1.7918536451625355 0.0743367630403623 0.9716905899868749 -0.1504283039883022
Ni 3.848178388799171 6.370272891984379 5.969636013200042 -1.2819831465653986 1.352017168465349 0.24438104148737913
Ni 3.0548809632420832 4.517709978492336 4.115445314988672 1.3050590545482554 -0.946195531039564 1.099518897187474
Ni 6.593285005138655 6.697138044005522 4.2387373926133876 -0.1836297304409354 -0.23973608651620001 -0.21461640863043685
Ni 3.899067686052091 5.866070780127408 11.027945257741388 -0.17983709616772253 2.0834697925989407 1.562849170352689
Ni 7.024741399200183 2.0396179910552 -0.04578167883969088 0.8061421425276826 -0.2435942839200256 1.5209232195428646
P 5.233748368117154 5.051729891953064 4.8433024308649575 -0.5359996758054832 1.015239164001787 0.3867214262612243
P 4.731097417358969 1.6264484781401958 -0.07713849389507535 -0.19719178539608617 0.06408603184663157 0.867810566071757
P 8.200129049632759 8.173656523169752 0.6858056991488544 0.0026824319281695736 -0.5268092675554669 -0.08158598840360788
P 8.695603544223069 4.375844148361261 4.5112539712444395 -0.04806008873202046 -1.2900085879730363 0.3786628176228059
P 1.4114444677669975 1.8612157760069536 7.056334626157972 0.4407418463417377 -0.030610011576373084 0.10168121649158617
P 7.042607784868119 3.7002761124643895 1.300534580335055 -0.09779499406330255 0.5525933184981063 0.0418830133870311
P 1.414051539734233 3.8512153005889616 0.94418895752742 0.32289121917914065 0.09768315107578661 0.35350997250626215
P 3.2723612247669562 2.1866138660250285 3.7255450874242406 -0.7668263756471955 -0.31476833296169016 -0.09293766597100124
Ni 0.9701017577867062 4.418893541024538 3.087185294775882 -1.5738977148573667 0.44995590874083796 -0.6628226816700198
Ni 0.3076242133554271 3.4800766468446573 8.91268573669488 -0.33546622763067385 -0.6725342525308289 -1.2628816498492572
Ni 1.7112951213749579 0.05853951166000152 11.5955833174979 1.6539153303325904 -0.33265421210317553 0.7594977031962663
Ni 1.2506096193796932 2.891308222071983 4.818575427855285 -0.05409729606503587 -1.0908959314051534 0.7131291432340557
Ni 3.754482651826158 7.691927558557232 1.1979206014784234 0.650488328474383 -0.6848539504384463 1.615535187892495
Ni 0.9610470884811462 1.8900524214940106 1.7146226422621713 0.7776239804833317 -0.5412172154506808 0.4675602520861625
Ni 8.886013241270948 9.192535756472479 10.779294133606104 0.6290437854473618 0.006839905739968865 -0.5805106137336649
Ni 9.221054694264604 6.439224806128577 4.518406132117995 -0.3885240266876019 1.0601445091549098 -1.4392685826848504
Ni 4.260002316182699 6.641184112321628 3.6629893767265402 -0.9212098076285038 -0.8266484900111505 -2.0889177030873896
Ni 9.13740412705782 3.2360304154170936 13.409264415736656 -0.37242455002257796 0.9114313880855013 -0.6014422216800093
Ni 0.8888386704638969 2.2719557594901256 10.910738216909015 -0.7752616508987422 -0.19711748051472502 1.3271569148885596
Ni 2.625629834357142 6.999147241070226 13.058847779177087 -0.7573251210249796 0.2919212531601876 -1.1087337309175227
Ni 9.414146218031469 5.137473592208811 6.440937624378018 0.43739272736384666 -0.6195343032950298 1.6854437399581748
Ni 6.55809420575296 4.14744034873711 12.62832862281561 0.8524664795155189 1.0027418028657247 0.8266284354064926
Ni 4.819149170574955 4.808973179993165 7.225675630859881 1.4412629874070597 -2.480262487053238 -1.003702367006781
Ni 2.3373568229262602 4.749972992175512 12.834349915331806 -1.1056954583118312 -1.0296723087079815 0.3415000925295796
Ni 0.1725134094792434 7.340486781898708 12.558182501512228 -0.2468991799235425 0.5701770930181406 -0.09569080323610617
Ni 6.907684802305704 9.264627370190121 7.652146817414168 0.8191979472703762 0.2574856971901372 -1.1866343000497437
Ni 5.310072969652565 4.790611544094894 2.4119957048097387 -0.48295987447068434 -1.3319273396940092 -0.2727850465513689
Ni 6.347734334332149 3.0884365024332756 10.60472870619136 -0.5765732263524715 -0.7386033762457602 -0.4382275645603163
Ni 5.0440021194910445 1.4430750721006615 8.15766648177071 0.987156546832958 -0.6702806806099618 1.3396357640818604
Ni 4.297146083457829 3.621447226745397 12.325656911763534 0.23174201256712992 -0.9143992124645737 -0.4735146698973845
Ni 0.8180954455809218 5.85053113610765 8.881790532231545 -0.5385316981987177 0.7015635498836433 -0.3646472200700043
Ni 5.974614679666505 1.0896252614888913 11.973571375371177 -1.7780988416917507 -0.6290512416465296 -1.4079864847421169
P 8.069560531359704 1.6078812666746152 11.574398755286717 0.3681513765685208 1.072057715652728 0.27805889335579853
P 8.049180517164217 4.944634365729099 8.445691868086422 0.2506948995205489 0.916597248557157 -0.20403374801858412
P 8.943200626358696 1.114443839069456 4.060752869740537 0.49566420941123024 -1.163509541106822 -0.1998603333671848
P 1.8842215508576128 6.993802276320194 3.5657222314887336 0.1756217725347943 -0.10667892681649369 0.5631520678505592
P 4.05524905114304 9.075890310712618 10.305818093586641 -0.6723046530185259 0.5229436139524735 0.4167794219888693
P 5.23714036497775 8.484178417589838 2.924327395919379 0.5531329930516602 0.5970230095663912 -0.9062408450234973
P 2.2404372872840845 5.139819022544926 6.9299093900005895 0.0656618609741837 0.19925175324890848 -0.07573775715294698
P 2.3575499502423747 9.063873484369017 0.16188702151816725 -0.8801878566901873 0.8221981675492808 -0.43429711915765845
Ni 8.467685650485283 2.83852202299344 2.862769661157524 -0.8357311690387091 0.5848277530517799 0.27639410405886594
Ni 2.1650097427696573 4.2764203285355045 10.104829664731923 0.6393487669177957 -0.2823485218700879 1.549078856041474
Ni 2.5527346070582015 1.9919898698473166 13.220188156573093 -1.2816327052045153 -1.2609790335099058 -1.5287684266188961
Ni 2.9733235290842632 9.047044320881593 7.5351584342306595 -0.03801915955625065 -0.46364420486120794 -0.5401568925069665
Ni 4.0666491507847145 8.541104161046466 4.780678506456286 -0.602860956404407 1.9401171645104975 1.2076363562227073
Ni 8.35794567491821 7.253444217831328 7.60081927042912 0.32444416548855737 -0.7015416955067725 0.42103716882395875
Ni 5.175860157231763 3.015569308166241 4.353564429036961 0.15432198261575358 -0.7571973371978636 1.1045842275255233
Ni 3.5477203528332524 0.5754508657486459 1.99001073779477 -0.6146998580208639 0.36801536521128875 0.7142275185045571
Ni 6.211250846326981 6.92747612283117 6.701637345626395 -1.159404517799513 -1.03059687740478 0.2001819783726617
Ni 1.2678592783457032 7.355073302833671 6.126079954356508 1.7800184273119666 -0.8977289508977442 -0.6848444373567496
Ni 6.227435250080571 0.7018901184219816 4.2588417486618 0.5524480511694937 -0.29850687679750526 0.18078840433739832
Ni 0.6911123520886143 6.051668140031466 1.0107122766741814 -1.3399988038482342 0.08493459316086663 -0.5365393503590372
Ni 8.704293784113853 2.6763322447306903 6.528357699941727 -0.08163046848829812 0.56470938503535 -1.3593743801613685
Ni 5.793465227491494 9.072003063621686 0.6773845763643644 0.7570502700970381 0.2657700486861165 0.7516308988536796
Ni 0.11655200232017478 0.8785795152207861 13.38321145031784 -0.12489185028009459 -1.3544653728955254 -0.375249935286515
Ni 3.805941954061162 1.7417576827125487 6.364336430261136 -1.4107347369112155 0.06710270718576831 -1.9802119756488539
Ni 7.796668310101114 5.253857396337551 2.663860348835818 0.971426794802527 -0.5974300151968227 -0.19136720829450912
Ni 6.301264911776371 6.737785940268871 1.7994571378497741 -0.4181066254407251 2.3766740262366097 -0.05283719840568965
Ni 3.554438936146666 2.974528949456211 1.2805189955543435 -0.8185400019714032 2.54834786986725 0.83298960173783
Ni 8.190485686657176 8.16897500684149 3.0183249552025773 0.15352699751828397 -0.7125236484395728 0.6868915496937654
Ni 5.2781340019679375 8.013728076147402 8.895740703342245 -1.1953943056305605 0.34797490162064587 -0.35809244967062204
Ni 1.827183675273363 1.0332414899824427 9.200779336721565 -0.14420392034514518 -0.24195597698565427 -0.7015118707101016
Ni 3.404135163411958 5.8477558659489794 8.606006236514677 -0.5704187767153014 1.2036873988772883 0.13899152290627032
Ni 5.39225647485628 2.1260064510447787 2.187388512140024 2.3718169552546247 -0.5656858900160063 -0.3859292693772321
P 4.434180887757144 4.288979126829284 9.903554364517372 1.4707358000551962 -1.9043207236371786 -0.29672998740274054
P 6.748868332215615 6.084083669258491 11.572306556672151 -0.5624054194925217 -1.0243961479107067 -0.22679521008481585
P 4.399102220499072 5.063438354945703 0.30968370676610346 -1.91672449661817 -1.9278206065313317 1.3879917867877452
P 5.007661965797213 8.692762863656618 6.738536291089549 -1.1442200967495908 1.0632866543283173 0.08569949635134919
P 1.4680992252485352 6.153381324129526 11.242035391274458 0.04210927046522425 -0.10485267224103233 -0.37174655011894686
P 0.8653525963332525 8.211697347465867 8.009004510271282 1.1781344901088482 0.317747213084356 2.1049601012622325
P 6.403221048817614 2.3698377625610654 6.159094456031919 -0.5601891285674934 -1.1772163491699532 0.6499494252517775
P 7.736799098294383 7.908034201518724 5.571638911586831 1.2509661293585939 0.893545766054332 -0.5898228922735261
