# total energy = -340887.02884275117 ev
CRYSTAL
PRIMVEC
9.09994688321892 0.00000000000000 0.00000000000000
0.00000000000000 9.09994688321892 0.00000000000000
0.00000000000000 0.00000000000000 13.31869210032057
PRIMCOORD
 96 1
Ni 6.57553954974941 1.589014484124688 11.103353594647713 -1.4069320753356735 1.9265075441468629 1.9849834288955683
Ni 4.9112594068828095 0.7279511422591189 5.879229831986906 -1.4357718823855015 -1.0281425023270163 -0.013626075423866856
Ni 2.7524244634302186 1.5832542178952562 4.625674871172095 0.15845425961657228 -0.7018286306195719 0.6886730670742204
Ni 3.3440210950915024 4.203638455434391 4.580644695169378 -0.4409652752064535 0.07463423967612308 1.168412377725078
Ni 3.5294780078179175 2.779751603220082 2.706144864752459 0.2436415922181933 -0.10287832212348087 -1.344683096697781
Ni 5.368049428871418 4.458682660193137 2.813360436182421 -0.2445684749078369 0.35065733354881545 -1.0142086658547436
Ni 5.192174759967423 4.145953893620223 11.88147183279346 1.2034138335009275 0.29251646354202526 -0.6472456531673693
Ni 5.781951402298713 8.324603895553793 12.46459095415563 -0.2937246249175135 -1.0121265865147342 -0.5984240036789759
Ni 2.172721462040447 6.673363976236601 0.1514440421328173 -0.27849829488606226 -0.8127383076879615 -0.2371899230555786
Ni 2.8570465500649385 1.622602387209732 0.29475637193922033 -0.5268429490068798 0.5081836820344796 -0.038731612242242974
Ni 7.9907541528062955 9.29268352001769 6.864693084536243 1.28788048588644 -0.49345563179568563 0.013045520330048502
Ni 9.020467715930447 2.359506966977758 1.0514378657616286 -0.6220745532183802 0.009963538970615098 -0.00018126277287065556
Ni 7.103227256087946 0.7255733261994813 4.605989866578877 0.41807140132741544 -0.19776231318757553 0.3402595352542591
Ni 1.2770865128569717 7.512570156243604 2.256945108264591 -0.47913638695953614 -1.233209062485489 1.1053175061471223
Ni 7.639114014358105 4.073290819620202 3.7392363280730807 0.21129042958099742 -0.27679031105602003 -0.4934036955118276
Ni 7.8910824371491595 4.062461883106737 12.526002854117626 -0.09251703349381486 -0.41849074825302124 -0.136695527783242
Ni 7.901301677237078 7.637011926681962 8.780041665470216 2.78600393392597 -0.2655988132155748 -0.8926890744809917
Ni 7.325247754453946 0.6328512397989289 13.588927582535513 -0.39823045534208834 0.6147677351443219 -0.1839223219806897
Ni 2.074633137100406 6.208183803436718 9.314093874495741 0.5738501709943536 0.9512397783316908 -2.5867830339149966
Ni 0.26030397392242893 5.218855803545139 1.3250395917236606 -0.3942555298547404 -0.21475447687019789 0.014786157170239053
Ni 6.57226356895542 2.0307622943008945 6.834273782874718 -0.1707554455814285 1.418229245516048 0.32059111029105436
Ni 3.585388080035341 4.266428087319193 0.21534295751425078 -0.4839137537435214 0.14179891044807838 0.7211173036458549
Ni 5.857799457626224 5.798968302534159 4.983548473075516 0.13278462276461 -0.27098424589720427 -1.2098392774112972
Ni 5.805583963748688 2.952969087702286 9.113954197849598 0.7496634907146636 0.4968803412065184 1.5623156664467224
P 0.35450662164293184 5.831464212021206 12.372851661993273 0.4103742897934739 0.00016943569832874044 -0.029236271157298037
P 4.33708917305622 6.278735689813946 12.646390598323421 0.7333799230632918 0.021449685233343705 0.041726433204508785
P 2.6703429446474773 8.606301844050304 1.092531404843569 1.162883477487049 -0.08771781233295861 -0.25088387560290343
P 6.486915169325339 8.246744752016639 5.968078981093231 -1.3482667002839812 -2.50677493152147 -1.0703654155519695
P 4.79369719611183 1.2419425188947826 12.670085039410615 0.7657118024267782 0.361325611895939 -1.9175050835379366
P 4.39421863812474 6.109012584845331 8.088987166898072 -0.5113106576992356 1.050997809658635 -1.061978734150171
P 4.803707137426798 1.0612266783730027 3.5344747885234167 0.12295452404806566 -0.07497696772752248 0.08998783931405792
P 0.4976615223722903 5.822983061743433 3.5853116404834817 -0.8432663010734897 -0.24329963549774228 -0.3958794386114085
Ni 0.926720366939777 9.104587622762782 4.344570239197162 -1.4371335386197184 0.31987480095032006 0.2039805261831455
Ni 1.8836707566507584 6.963251876718087 4.881194093145969 0.7470504785718489 -3.0006563380006646 -1.7324779585288421
Ni 6.363838390884478 6.061683762318831 9.198075014676597 -1.5464804991866785 -2.20063290677621 0.905472599398905
Ni -0.09278669602176733 2.849857592211461 10.154716916196147 -0.8674554967251835 -0.6192365695489529 -0.6846621461426143
Ni 2.7477288909588333 5.013597406908386 6.910589575460038 0.2038170040220877 1.57847530692572 -0.04389284472820828
Ni 0.4451939599725508 0.11944589972752326 9.064728036446578 0.7635890996568204 0.6413516562804373 -0.03264735372137604
Ni 1.4681398927731193 1.1775512963995858 11.18004248504568 -0.2004542581974419 -1.0077143163796516 1.2460980026330153
Ni 4.3009259850692345 6.781808040464309 1.5350063007571084 0.534017612378448 0.33022400539512803 -0.26184243149693615
Ni 5.623175533150014 8.08136232160006 8.07385759559783 -1.1754356031204467 -0.16844608072196152 -1.3418425419251923
Ni 5.349831335678176 2.854926262495495 4.5756369945278985 0.3127675004815775 0.17515511731102093 0.8613339572084778
Ni 0.6290829518911757 7.8487403853868445 6.642510607119873 -0.5224664172057389 -1.05353111760345 1.0612256580342303
Ni 5.304695600294319 4.299997790510937 7.042617971420476 -1.2192916810734484 0.3895694372329807 0.690019810910102
Ni 1.0222880066577755 7.649815551618471 11.137862412333735 -0.24777952564596678 -0.5069302692433527 0.1926216495269005
Ni 4.437734583004903 0.5751648579954309 10.120354607651189 0.4422017187167159 0.8398634460395277 -0.3298781920199351
Ni 8.022249068161846 7.202462174305882 4.457912804706549 0.7115808249103294 1.051695349946292 1.656821448235792
Ni 7.23492168400633 5.980976335480235 6.957431550840766 -0.6409796176529993 1.9906056601783524 -0.9961623498759942
Ni 2.688824936293569 5.1241617587055375 2.3821276143602566 -1.3032417988338587 0.4813408508100227 -0.1980057966569493
Ni 2.8480831026147166 5.565163373256446 11.319489157515177 -0.89247798691145 -1.2831658540195903 1.4153593801674205
Ni 0.9156912316000118 3.5278855171541728 3.3405276255725784 0.8435444944355408 0.28161447191754085 0.49453575223374185
Ni 1.875025807333286 1.0017039273355404 2.3764410576986896 -1.3200724972379523 1.023242751032554 0.25034162994618825
Ni 1.1076364062878563 3.6046253672533806 7.874037327079099 -1.1585336851587853 0.530780336388073 0.48996741613676903
Ni 3.412489093685886 2.75512714758526 6.809367228893747 0.7414467592318262 -0.7627840872570217 0.04700542221526098
Ni 4.1335415663896615 7.18722886361383 5.9548403787068525 0.43691373084489915 0.08057374508900962 0.29177495739031045
Ni 0.7884048178388733 -0.009093576687316317 13.416051346052683 0.884544076776354 1.5077846252783775 -0.6262747073426569
P 0.1393129032537406 6.018741114077616 7.821082007538921 0.8815060612809785 -0.6108887118048898 0.7410808912519753
P 8.542092620488107 1.953876845055287 7.964444387051898 -0.09005443088593523 0.9648393713929965 1.2825850418154556
P 1.9736692290189748 3.8168179232374113 9.994092847882836 0.627022641252275 0.5501425429647686 0.7295996300852532
P 3.985530934127879 6.0953808647636745 3.757975848209367 1.0750083136406194 1.5672964074907654 0.6418152261804173
P 6.9367528320733705 4.350848292390976 10.498977907905873 0.3037758385059285 0.005852602126035082 -0.0033522043016845494
P 6.4046334517162995 8.010391837676934 10.163986121853807 -0.8242496507616707 1.0102054582326214 1.912403243534997
P 2.4712634117860555 8.664223004477371 5.852925526200499 0.600721798574217 2.16841287040024 -0.28849063021208377
P 7.3386064761361025 4.007015908168461 1.479014329019835 -1.6076634984539022 -0.08313224984480522 -0.037200263199381085
Ni 5.36740333265927 2.5939215926810184 0.9246128192956437 0.12110538665446884 1.84707099798609 -0.9771688394926268
Ni 1.2058703303742964 1.2202209462413012 6.961413687494792 0.9932829714456701 0.12649596154242085 -1.1585234007461402
Ni 6.9206004267696715 0.7809747113991717 8.973108863580002 0.06802033390403124 0.373786206256795 0.28104265857447086
Ni 2.285096703220942 1.8497643554329657 9.162074715734647 1.3532132456559791 -0.1438881888769393 -1.0722135245043016
Ni 6.682655021766221 1.6909247866577166 2.5787783714608015 1.0071882686728524 0.7557089255777953 -0.9255914816359673
Ni 4.336315677590973 7.265506604696884 10.436020837002712 0.2746622089694238 -0.7568373827552837 -0.5412778934852871
Ni 8.429034883308864 7.440471278935882 0.12013021571560109 0.13380920737438246 -0.7873448073155214 0.17640081679266392
Ni 7.6319796561845274 4.167338768247656 8.266885663937021 1.3675042083573545 -1.1042237588623112 0.3200699476802617
Ni 3.184963127596654 8.5443494072573 12.19941577879147 0.1970066659684736 0.5587976475366053 0.10700777091082217
Ni 0.20029437573919323 5.239749281053473 10.250291835871463 -0.8952699478342903 -0.023753393665855865 -0.12707857351876825
Ni 8.600286779314674 2.6146694710429528 5.522382704065602 1.0261745799673683 -1.2864987750475652 -0.058266082730744816
Ni 3.2945446851556084 2.705232140103467 11.546426357056156 1.0764681860155978 0.20405123152008084 -1.2473665849327935
Ni 1.20793601826384 3.6201316763449314 12.37287805183856 -0.2156883015383769 0.2387169012230663 -0.27589042494957
Ni 3.29079550713582 8.798028620018549 7.804273496081759 0.07517417133999311 0.661997357555247 0.5896822529306038
Ni 5.688449450470258 7.949558694321876 3.326409968339813 1.6984496652995393 0.0028120155274983833 0.9936408690057208
Ni 3.5111052155316256 8.420107835645242 3.2781165514684156 -2.4507408234450376 -0.11255878263603841 0.8796381548343045
Ni 4.119673247695106 4.558063177557473 9.470202549281336 -0.7791327038183743 -0.45057631593365627 0.350984377870931
Ni 7.420515095932495 6.443535723644926 11.560131786705677 -0.36045992146153405 -0.4930866784920412 -1.2930347763938699
Ni 8.598867187637278 -0.152819044071628 2.2415762083674546 -1.0708757795294848 0.38165969546760076 0.5589609125873471
Ni 4.82536501045373 0.34457493986915316 1.3749819189280332 0.010694503599368677 -1.2772857410897294 0.1570319253477489
Ni 6.345065200945586 5.7032732635630605 0.35785722199945125 -0.6917709892732538 0.2804363924490396 -0.04194189164942454
Ni 8.11950929795674 -0.021139176067883323 11.154151316837183 0.8798458999697362 -2.3722213897818953 -0.07140519121586412
Ni -0.04313465711552894 5.0250360398474 5.722255752274902 1.2603126035705003 0.24240437737698256 -0.11192577703772981
Ni 7.182487791409195 6.187008227582235 2.642907515492479 0.6699808899813557 -1.6716397441955466 -0.5072812248248683
P 8.78845547614278 1.7576819952819058 3.317486560654851 -0.3125762104063778 -1.2203805432622532 0.6663594911786848
P 1.720272114603874 3.5076381358579862 1.209137211221636 2.0224058354080845 -0.693707029953702 0.2272911758846279
P 4.6880013157724125 1.6142213363451083 8.08609702384204 -0.7295062990404985 -1.9751453597592243 -0.43655249085073855
P 8.676626231761283 1.7687384304616212 12.062020234296881 -0.1693156278111084 0.9033054165442572 1.7187228137262789
P 6.817234132772647 7.786141852381691 1.4046022452736897 -1.7168389664400046 1.4220787011691252 -0.6022392636600079
P 1.6124104469617644 3.194117673926525 5.737053175522419 0.24252161968113717 0.8175025618458243 -0.7848737200672096
P 6.9587747029663 3.9619802721977533 5.818922665548215 -0.03633714386813742 1.227060269275274 -0.2532356636645316
P 2.540122708086388 8.59467211223164 9.822362294683238 -1.0943730913204763 -0.14431087823665467 0.993976912188901
