# total energy = -340887.02427232714 ev
CRYSTAL
PRIMVEC
9.12641529256505 0.00000000000000 0.00000000000000
0.00000000000000 9.12641529256505 0.00000000000000
0.00000000000000 0.00000000000000 13.35743129286369
PRIMCOORD
 96 1
Ni 6.653831915649523 2.215656283847589 11.521839792231129 1.1416237967773242 0.2587252260241931 -1.149295454389969
Ni 4.976597613240935 0.1547502312677835 5.845839362738618 -0.8147597089933645 -0.2996289062170904 -0.22892254084046382
Ni 3.0348615502712066 1.758377258489917 4.554656979542528 0.19982176681976554 -1.2815789691484445 0.20005727986933933
Ni 3.4927337926061908 4.356302562517756 4.8658312265956205 -0.23960238915181317 0.3481232542730521 -0.05602305233283899
Ni 4.024192319373047 2.7694015161313286 2.398607137575311 -1.6894924561062516 0.5378400714483318 -0.6577262409837188
Ni 5.541833002054469 4.641411768229236 2.753220382273247 -0.530228320539345 -1.0006268134052507 -1.0694243917949386
Ni 5.043548993941942 5.197100926915553 11.337894159264527 1.16459351819962 -1.5655434293554005 -0.5752951309709963
Ni 5.4386223744171085 7.957020097824914 12.084948726341372 1.0439984955226667 0.3752507066174634 0.5460907414928982
Ni 1.8218788543074738 6.739857503774888 0.07504742347906741 1.3079656866720892 0.12853381790805607 0.981457953786284
Ni 2.754324678492552 1.5085142676458427 0.12071782960011046 0.5731446602868968 0.9312939313373833 0.9146912897836957
Ni 8.030661140747 8.914308023736838 6.877660894963105 0.6939191459645081 0.35939317075991656 0.2933834395280109
Ni 8.723666340058635 2.2852543249089123 1.6480936591999837 1.1934142990860543 0.47680696749541107 -1.134863338125039
Ni 7.053267722511697 0.7578684562524999 4.732216859908734 -0.030317420036618758 -0.265843068015897 -1.1600259534335955
Ni 0.7913368454709743 7.153201967151284 2.4260429664552676 0.3288340670261369 0.9263936658222883 -0.2276562725335305
Ni 7.808003993123986 3.906817495600469 3.663742732259858 0.6456551687517977 0.007527675835612843 -0.15310996458552342
Ni 7.817632360986521 4.229974725595276 12.561541983838838 0.0821914831980907 -0.74374969633339 0.1946556492377938
Ni 8.488131820820419 7.521671847797739 8.842218471370803 -0.43634525993593887 0.21510826066519081 2.4307533245795168
Ni 7.060806141331084 0.7390607401471793 -0.017618544226184727 -0.7624233614834934 0.13144096425252202 0.7750227954150588
Ni 1.9743721231369589 6.638152734618398 9.501634812785493 -1.8109595969755135 0.04380619855167294 -2.8749921283309194
Ni 0.2150968254075407 5.043868418468187 1.1950410766452884 -0.5450515015951065 -0.3300100896121091 0.8066694757860623
Ni 6.50100096946372 1.892042733101003 6.72067104144559 1.8209645307070255 1.4288335033944553 -0.24643483869261426
Ni 3.385434531032892 4.677415475544594 0.47332235034871584 0.051540591081453174 -0.5795456787172342 0.01787045252251761
Ni 6.4168097907605075 5.664108710701152 4.782093630719674 -0.5896591130021522 1.5347470127998342 0.5077324534296739
Ni 5.349101369333116 3.09933967249757 9.189191081400953 0.3662107079023822 -0.5570521256004084 0.6258998405017415
P 0.06459402769731554 5.959895822004259 12.4955826444522 0.6386743665585904 -0.7806329425129845 -0.48098295324997165
P 4.047683711674626 6.42985143784635 12.707124731203383 -2.4152398023249497 0.286911458650422 -0.05780739792677141
P 2.4624345464096375 8.729014419269484 1.2869741932231835 0.5716277094217381 -0.9693120624523694 -0.5310521019922209
P 6.713171866210855 7.757909100993694 5.670282730472722 -1.3841618715186936 -0.028402205291776894 -0.5411290266122487
P 4.9730565642071305 1.2323580750842664 12.601360532639069 -1.012615867446327 0.32163086440947836 1.1037049102443637
P 4.070937817185281 6.32664081020899 8.273272282203804 0.33837980173304305 0.7366544800495055 0.288752882734535
P 4.904909623136464 1.2520163730709029 3.6537511330789068 1.4702550037640356 -1.3973454600885031 -0.22983219713892677
P 0.42240151765770434 5.4833783137515875 3.7017980576752145 -0.5729567126458068 0.6082083367592492 0.14613250482642576
Ni 0.950169322184172 0.2300796609714503 4.99415683576939 -0.23738738377836538 -0.47386511125826775 -0.4968032081116799
Ni 1.9344988158465153 6.485805488429483 5.3675102611013825 -0.6983545560280424 0.00481773310361751 -1.497954526561833
Ni 6.496410382700826 5.844656579350006 9.163063980437098 -0.9657215168876334 0.18516570746948757 -0.5030116509152369
Ni 8.743707947476766 2.570956747597704 9.978321159716323 0.6965306154454262 -0.334908555354991 0.5931905231941784
Ni 2.5277979308944527 4.920388023036806 7.199107834780245 0.48175711241183483 0.3096945179832086 -0.4720553117430386
Ni 0.6176045835706905 0.5423728065079044 9.100751556498675 -0.07701868074789961 -0.7843612992071654 -0.5204882104334455
Ni 1.7620734565793263 1.5273603146943129 11.128917507779848 -1.570352677818586 -0.20678277151863098 2.033095711021763
Ni 4.0271492778445745 6.965572000434821 1.8100391560818176 0.8938872085541509 -1.09402419262149 -2.7321879165467786
Ni 5.778736483548021 7.931566526290686 7.951879188235374 -0.07652708582346175 0.13020709184542092 -0.1785474308220215
Ni 5.549134134082931 3.1029263536065526 4.621310839113375 1.097879047591206 -0.13605455176513342 -0.15899213439791327
Ni 1.0911906873139345 7.7983664988464145 7.258254305342822 0.5100153359265797 0.6905911100325397 -0.8095501397679671
Ni 5.179532577972065 4.73679193176607 7.400898347065911 0.5871186059684856 -0.2378473541339194 -0.9305560247300942
Ni 0.801852300874968 7.72850379174906 11.310003834915799 -0.21881322032060382 -0.9537473752448931 -0.5034369113781136
Ni 5.16849874219405 0.6331486936592883 10.569748447040464 -1.7609719522034768 -0.11310617049907618 -1.3124026393975203
Ni 8.541457463873305 7.634255303676638 4.467779896894343 -0.13406246103576913 -0.7454718212308195 -0.17873023625678897
Ni 7.86775463236192 6.373030377834836 6.9829979773037545 -0.9063429178190003 -1.0003558191320514 -1.3017677853914937
Ni 2.3312149510280866 5.151368461172268 2.7071237725700423 0.5456328280198731 -0.08272113044931559 -0.452877196152691
Ni 2.2613522439307316 5.138856146158489 11.461530616393016 0.6609668594082037 2.1304520748857505 1.3242276570569065
Ni 1.1941275225002268 3.1851097210019392 3.765392742926134 0.33538652343267406 0.9571209197028163 -0.7695597154179585
Ni 1.6170638480790163 0.9283936959092812 2.6967716799951855 -1.1722335512433812 1.2134547626766974 -0.6649315004829065
Ni 0.8298074227704492 3.3208012597509233 7.950637083149032 0.8259800031892163 0.7203626848680175 0.0740112613801435
Ni 4.251357916023637 2.7302218163835885 6.5154207052199355 -1.4472212618730238 -0.2508414524007422 1.1196020410905945
Ni 4.2240243029920785 6.695749539907935 5.957534818434554 1.0032637368074657 0.20883656872386613 -0.08372900288853967
Ni 0.8153986387122776 -0.08798502943350381 -0.042136658219266966 -1.5506210037176131 0.795427841433972 0.3795452202277593
P 0.616926490933547 5.792225324970606 7.879669167190867 0.02214465441783928 -0.6521808856854575 0.1806739902467211
P 8.536647843149556 1.7526458698475735 7.693439192540862 -0.08668448597243782 -0.2482443810975273 0.2852302142932572
P 1.753394235880491 3.5150387509531456 10.333936484785166 -0.5095867330295935 -1.155543749292526 -1.0684124055906568
P 4.28633946485501 5.9699257521283595 3.7008361335304643 -0.6946264564441779 1.739333547998095 1.0963322719293762
P 7.161643901059193 3.9307834614838986 10.309118111737412 -1.2019405913895107 2.0469621845912105 0.31694734289087995
P 6.677724870212668 8.152380138076513 10.089682588621958 -0.17152703364013042 -1.4956009387279918 0.31733686501981473
P 2.886420409717519 8.478220534091781 5.787814528583911 -1.4624401357053072 0.6894888781072964 -0.31885201611276054
P 7.1148527711717815 4.179551282523703 1.3486459428261068 0.5251506489061214 0.508560348647608 -0.7245643816541908
Ni 5.546542232212827 3.4944769378779865 -0.2548743053401106 -0.681843959967529 -0.26683191429172753 1.4723427395309998
Ni 1.8224994505298933 1.2463032372586305 6.931625387068482 -0.14558948783876216 -1.0500693843070947 0.45803097243948854
Ni 6.917174621501146 0.9268330789381973 9.005446229565134 0.6655256824234796 0.23801627561161584 -0.06799102332799259
Ni 2.8078967347513992 1.9383775422366363 9.079620255125297 1.440589615489119 0.06619587910078277 -0.6495125948246749
Ni 6.4065060681853385 2.2816585173848947 2.0382907961216414 -0.3998926735358597 -0.6024110133511819 0.7172233679080874
Ni 3.809173981134812 6.961602009894343 10.458935515678466 2.1576376341616066 1.460594597856136 0.5580101186383034
Ni 7.84133366083392 7.6048682472620746 12.918625749086907 0.15514473562736505 0.4706712869113185 1.1535750556019295
Ni 7.567221785240312 3.942729938765471 8.12738197465256 0.32311156272006286 -0.25856916006230307 -0.3228791349942826
Ni 2.911873981251748 8.691623496868717 12.144228442563469 1.7100455976672548 -0.846510261932084 0.3559800313133095
Ni 9.30720931743354 5.123268229277721 9.960542903227015 -0.7835940820238375 -0.6020649428656728 0.12347902909296798
Ni 8.948906263136719 2.498958459382024 5.571972075067963 -0.8881515916219543 -1.5365984641862762 2.576428173043234
Ni 3.7850711190258486 2.8893864946040817 11.498770952945694 0.3568205249367339 0.24284660712072373 -0.11340647534831437
Ni 1.0657918742699188 3.633718652075811 12.823708294792375 0.2855613723804308 -1.421594819554171 -0.33869553320124896
Ni 3.2776424430476716 8.703204917548867 7.9939017662666965 1.0357887060183644 -0.2772186568426903 0.6616471733046798
Ni 5.76319419874243 8.054946531156675 3.486289630949569 -0.2928064839786183 0.03898769411710705 0.48236440697853056
Ni 3.0742237783196575 8.242594750703208 3.281773971134278 -0.32160078250249124 0.7335298183775948 3.1368541002118815
Ni 3.4904430624322607 4.50467069175116 9.471713861091347 0.4254499531796737 0.305120525459281 -0.4699259241048616
Ni 7.409553839085655 6.152700466045895 11.196439289420574 -0.21062477097254048 0.7985435042448183 0.1146280064602413
Ni 8.170559956827386 8.790416939628857 1.8085424240159826 0.919556588295797 0.4975403433880205 1.4055205397001278
Ni 4.788657348413263 0.428295356487681 1.4487335112382915 -0.12108764604265598 -0.5187185201275325 -0.34953530412923023
Ni 5.920706995841483 5.975584129450419 0.19524048421463208 1.1521555495465836 -0.3275279466202036 1.064214308348909
Ni 8.274391180687164 0.18276102429498176 11.129477869663031 -0.31961126287628827 0.7910744495612828 -0.4053524110988503
Ni 0.1746576803848914 4.7123696451308605 5.739180775500816 0.7010125624761798 1.437444127881602 0.6096198723947952
Ni 7.385834286408185 6.183356094150404 2.520921177165144 0.8761306559016782 0.29282988101738605 -0.5171714873553868
P 8.645014895282017 1.7341283737403843 3.708704015932637 0.10815911090644598 -1.7849958259219 -2.0851209550491183
P 1.8454067522691957 3.135562413773782 1.4795086953797665 0.8363538902243725 0.18921956582388702 0.7418735623565998
P 4.97020912271603 1.2971282425917685 7.986421756503535 -1.745568473164213 -1.4080399636878718 1.2729765721914141
P 8.84550398078361 1.8172061298092574 12.548371654300993 -0.1417829696084784 0.18983740191354403 -0.15013982621360594
P 6.3617957609260385 7.838969919339704 1.3339104331096612 -0.438766982003554 0.013824564587918127 -0.4224042243748145
P 2.0267759982712517 3.0490531256515316 5.968807766286502 -0.04911398391783155 1.922866862070482 -0.07584754325793389
P 7.1745669047495735 4.135899639408531 6.032482763989734 -1.024646830468932 -0.5933273058823588 -0.624399601807131
P 2.390308488383459 8.853015020357892 10.084620166201724 0.37335786047012476 -0.4174425094941649 -0.8114707538294478
