# total energy = -340869.90318470675 ev
CRYSTAL
PRIMVEC
9.23900256917919 0.00000000000000 0.00000000000000

0.00000000000000 9.23900256917919 0.00000000000000

0.00000000000000 0.00000000000000 13.52221415268539

PRIMCOORD
 96 1
Ni 6.534210803020993 3.251084970692702 8.98314522668446 -0.12843688731887556 0.3186625258097738 0.48534174443929967
Ni 0.19442187886812795 5.10250721546745 7.088101030291364 0.023293166199985692 -1.0640356166791998 -1.1756659739636979
Ni 2.15926581735197 6.816037343774161 3.3580255039527285 1.5560378038578107 -0.9537188359998027 2.3946118416619533
Ni 4.790626198676056 8.681576784794347 11.644547149442882 0.3087262405326683 -2.116078579772898 -1.3517245769255946
Ni 9.15873432228904 3.043309037208634 0.6130946809748166 -0.5880658003731033 0.5532708041811052 0.2792104904617385
Ni 2.024117684709125 2.0264181964009538 13.38768181435251 -0.4186054194540145 0.3121656052315204 0.5755129034087572
Ni 8.39839211063275 8.90830191297697 9.566142008307992 0.785784147696621 -0.7245242724448748 -0.01605448235970138
Ni 5.920131244349995 0.09652540542790461 2.7186273820677274 -1.1962720802498237 -1.4427362295184765 0.7210519976255582
Ni 2.88893453978388 7.879197110496208 12.873675438176333 -1.0600280381817033 0.17819416124766085 1.2705000856264637
Ni 8.533364702222805 5.014699733061271 12.79923586889026 0.8473715814911149 0.06117425751647528 0.9249528196107037
Ni 1.6566548272027073 5.056543176644771 10.89959434471462 0.6402131718006199 1.3407073998794845 0.3894390823027035
Ni 6.0455507070671555 2.3771954148895302 3.011897351662257 -0.20430139985767393 0.6938780083139275 0.04231084495306907
Ni 3.932526098621218 5.7691289829393675 12.678225258298966 0.5740311766569082 -0.4158661661459806 -0.005692936619719228
Ni 1.125412167443096 6.328975595300991 13.348535235680032 1.0770531119847901 -0.9901251425429787 -0.7037325325105042
Ni 3.4991983903073867 0.42144357903993923 0.35547432750112956 1.1850348167731075 1.012935969789907 1.800681612088273
Ni 2.9806131643542217 2.1416193220451727 4.238267798066347 -0.7679355495509742 -0.30829095276746266 -0.7225375810321492
Ni 3.9659897666846837 7.203105365176403 9.162395739090131 -0.06777427933149618 -0.22192451225607587 -0.44413904494874473
Ni 5.986559674326893 6.404024014870163 7.468562240806753 -2.6977613594377923 -0.9697362944739815 0.7853442319457249
Ni 0.5137929552119944 3.1514146087190205 11.647508249833368 -0.09760807486347706 1.263546794237082 2.0233010935288442
Ni 4.412113493846638 3.637543217911568 0.34780041179336724 -1.211487097427365 -2.2125635967755253 1.118903472361673
Ni 6.8118520755155325 1.5075650393672144 7.384535358337506 -0.46347142672876956 -0.4004547166869168 -0.5142226891397079
Ni 3.3535177944971335 3.3439554266214606 11.842714520037385 0.0013562569175783095 -0.08542130298929805 -1.460538290696904
Ni 3.4407894147421643 8.857219466615042 2.760100341639813 2.283708592351467 -1.1612829657691484 1.1048323389805874
Ni 8.346921626154128 7.370091101393711 0.5143888708912029 -0.40026522638393 0.2596847617239851 -0.48141952656675796
P 6.347425883849513 8.952048591132828 8.696636359323184 1.2241338396570982 -0.5089938366406008 0.4506238813421401
P 0.3152292313982971 0.030863812681616656 0.02548394136373802 1.0672001304501104 -0.08767616046174578 0.7728216739986821
P 6.355861093386218 1.4743231073704302 0.9512929971805636 0.15208255176227356 0.4734010271376557 -0.45462631763331385
P 3.457373424729443 8.663643880401418 7.152616062792849 0.18729972309335485 -0.13106995406634847 1.5132150522653296
P 4.315353417748161 5.124477564074552 8.359365638996392 0.8085471524247495 -0.0016884434460164468 -0.9058479804604529
P 8.85194399602856 6.458894452371247 10.212855572592954 0.4873634028550188 -0.08231026816414211 0.3671913266480966
P 8.239435067829895 3.1974525595639274 7.172412474046188 -0.32379727593317786 1.0110120132943168 -0.30920857948572555
P 3.1136825213719206 0.7622214248214233 11.046891766011097 1.5579730732073105 0.7948285172870763 0.34619801222588115
Ni 1.7609631685711598 0.7160208675276161 2.079581266188584 -2.8864327660676934 3.624683129849409 -1.2727634277393434
Ni 8.60238929198044 0.45443513406142777 5.757326156889925 -0.21159381975402913 0.6868576111320365 0.6080368441783915
Ni 0.07601204755896088 1.8078695856772387 8.474345028573929 -0.48755623559211525 -1.3061643717972924 -1.5626725355655087
Ni 5.7570905623190765 8.536607592198033 6.6595692883198145 -1.1261164451703445 1.2414767018109198 -1.3452934765882705
Ni 1.8612063487171038 0.48067759755327477 5.874915564752368 0.8586720941055986 0.7148268426514527 2.5451118794284553
Ni 2.9430843350682467 5.623263607073546 1.4052153665877887 -2.1739389424247917 -1.2840431144182207 -1.485645884397809
Ni 6.278927917250247 4.692572662188599 12.922923018586467 -0.9844188361868206 0.8913114774071746 -0.41799812488731886
Ni 2.4075917340305586 4.15884471068159 8.57733034474451 -2.244083521760677 2.3469453888239262 0.6055637000475506
Ni 7.684577516968623 9.081791907150292 12.463871154836658 0.28969236382966884 -0.3351798067385066 0.41384090818583563
Ni 5.93673373234283 4.128938058687819 6.516274203026953 0.11363890307409462 -0.5259479479964362 0.6315063880552415
Ni 9.066159514449193 5.4999968320037596 4.250383826309978 -0.0768181347013193 1.761084052301309 1.9558091213244573
Ni 5.365088913433153 5.260558835998018 1.5421142902571459 0.3471899438255053 1.259301645807483 0.8489360977647572
Ni 1.2685335594837246 3.3317322259456 2.5774147680011223 1.846013760366169 -0.45759568467428285 0.29885731815838856
Ni 2.912022807727172 3.7868177858026293 6.27202268657365 0.15585924519588643 -0.35738411074968773 -0.8094164424035802
Ni 0.583722967241916 7.898266412230884 11.718337216833632 -0.33714901464973546 -1.616312689488468 -0.7357977884761652
Ni 8.102365222609137 0.18433473563464023 2.273827604003922 1.934454052687449 0.10667892681649369 -0.5149857925579776
Ni 4.969373185430303 7.049922699110066 3.692835877839626 1.0577312717277267 0.2922331279736516 -1.5681489852990478
Ni 5.079502098549164 1.4627189198807247 12.528020322828118 0.2755754648123125 2.4106033319942033 0.18422725481561822
Ni 1.8657149820729768 2.2723419723571507 9.876841356644025 2.0194189848656188 -0.07491474703101936 -0.5099700845109412
Ni 7.9324969175249604 7.482982476343323 7.072618309435274 0.9161051394120868 0.12620825509867295 -0.004731344037398303
Ni 4.476444670192833 0.6028375400902057 9.13103763975987 -0.6863986692177468 0.11981777819129687 0.019890825386656066
Ni 7.368354168871366 4.830963684806672 10.796190501718174 0.3471377504313312 -0.504723234289705 1.0142022380968403
Ni 1.0497909297016625 0.8414237000397754 11.490786121802616 -0.39329830814779365 -0.9516416417557997 1.634456193166714
Ni 0.8913632817580124 3.2398688213196905 5.12267503463248 -0.8443009129855911 0.06705617021854904 -0.12375362291059332
P 9.118858786297345 7.5251308070185114 3.14572707860862 -2.1810225887444505 -2.880149247051827 -1.1932942285684225
P 0.5517948214402245 8.528920741886381 7.624649649346627 0.16295240459724195 0.17293985482725702 0.056209971532664486
P 2.8536692661786205 6.911624066519777 11.099533756042025 -0.09117440342299137 -0.6866930605297141 -2.135214015050768
P 0.20010109387602765 1.5778368944999377 3.648279863040379 -0.7230389461485999 1.7905951743865485 0.2632696508617659
P 5.548335294540495 3.1789191199904008 10.979645684288307 0.4787772038479045 -1.0453262131951546 1.097572829204697
P 4.193555644120145 7.189154470980976 1.5285643687823034 1.6962968806225949 2.256501435809056 0.024550435645854494
P 7.436538009376165 4.726978708535465 1.4606290574522443 0.6884691785935304 0.02559738885313011 -0.5328212780775017
P 3.2088350109869506 2.3674113109471753 2.1124813550825663 0.4403237849677127 -0.8076773482252864 -2.2649606223200025
Ni 5.072683714498685 5.213347531800252 10.511872201915665 -1.653511152915636 -0.24257124197215 -0.24384393803698648
Ni 6.964572791442948 6.849473294829292 2.412119769292266 0.9089559299618151 0.02570588940653637 0.06389242777858674
Ni 5.7717620987312195 8.704387882654286 0.37051172842329905 -0.2587974740230253 -1.5010691609314146 0.11098423906006694
Ni 2.1103360586374156 8.646607159277997 9.623773983739548 -0.613398365600621 0.19318317845732536 -0.44322090400984954
Ni 3.566310506489888 7.9446831621897065 5.213002916996616 -0.8638335837018801 0.5826662266240868 -0.6001538418858889
Ni 0.7817582200966872 7.1786035298080115 5.800407626845736 0.7227527823667489 0.5843834664255096 -0.1975316852340082
Ni 0.9922411813948345 8.906407917407392 4.03938255695596 1.0313440399834497 0.5720416570307051 -0.06838568766324997
Ni 1.4356671197454876 7.795048273190286 1.6479655450895956 -1.121129019258082 0.966024392840033 -3.299807790360704
Ni 4.12287727286517 2.8602381971540827 8.172028227458762 2.3884154830432545 -1.027759665066301 0.2953449341297559
Ni 4.258247141574698 1.5052368106670506 6.0110033039777795 1.1059703092397728 -0.9755588146930295 1.1389706754251931
Ni 8.37899944380083 3.7512014300917893 3.164887846470802 -1.4998121485958622 -1.8587348074772634 -1.8190449450868091
Ni 7.7163966425375285 5.475956946774289 8.697785691268821 0.1391658437006055 0.5014607614883493 -1.981739210926658
Ni 7.420517578558371 7.929900757744222 4.598539939710314 0.39720792761484497 -1.53353062389423 0.09974003360481533
Ni 2.951288569535491 6.1925986752886155 6.729114033933876 -0.790540945655316 0.5517194005335854 2.1962232077442887
Ni 6.298505364137736 7.053719929252001 9.932715149846848 1.2263023080633269 1.532579058614238 0.30151069662083557
Ni 3.753446507766947 4.207044588176649 2.9558618759108133 0.5564785124851256 -0.40624586944739716 1.315543499019347
Ni 7.63610046939021 2.708820180618426 5.0434746072146845 -0.4724098668689799 -1.0155944904586767 1.0063179502527573
Ni 6.650917886118095 0.8547786785559931 10.784710116865702 -0.7060220998756292 1.5030658796464695 -2.3002613545038253
Ni 1.2287134575086998 6.501292236121453 8.621939945759872 -0.2636625154248104 0.4750377914101303 0.7078468117891938
Ni 0.11060564566222893 4.02137758834136 9.475042669211858 -0.2666527084013859 -0.3951271338264163 -0.5254072450016177
Ni 0.2959788452091645 5.547282048223753 1.9278214065501253 -0.41573195456096146 0.2505516890744653 -0.6983620122272101
Ni 7.375422005996864 2.571685662378219 12.562380174161092 -0.2734656175581613 -0.4124021188567801 -0.39747249413014124
Ni 4.225624222764068 5.457137098114632 5.082851237056345 0.737429153432001 -0.7571865385645863 -0.40050253920571666
Ni 6.265448212196521 4.658526936950092 3.9207934889928917 0.38744339202891337 0.6621603654956726 -0.6278813897081444
P 2.161464700013236 2.117570197812925 7.538620674975294 -0.07125786700472245 0.31031543939665907 -0.43393973581823975
P 1.9911529227956941 5.296230625725529 4.72444537397362 -0.32109144696624053 -1.786621534450781 2.217337878235717
P 1.7277397145799325 4.237912096459377 13.267212609324032 0.08505517789913093 0.3234576332055719 0.13095836818914866
P 8.67809368074688 1.8212107056892888 10.56468973299938 -2.436273225956482 -0.57055170274874 -1.3413794862458446
P 4.8734630975874405 3.263178825329664 4.784875843346762 -0.5321705318673803 -0.44181862434568425 0.15399776650711544
P 6.742319340605084 5.997877452730466 5.510261364090592 0.3191194108415343 0.720809799707765 -0.07605683105526256
P 6.370098396667775 6.930296091134981 12.188194094332811 -0.2583398176603164 -0.23303527745725672 0.4864416623716978
P 6.430918751958166 0.5186656052773373 4.821183276465429 -0.509907863814438 1.946716672104886 0.6846734589965241
