# total energy = -340858.9376571571 ev
CRYSTAL
PRIMVEC
9.44215997047712 0.00000000000000 0.00000000000000
0.00000000000000 9.44215997047712 0.00000000000000
0.00000000000000 0.00000000000000 13.81955554495083
PRIMCOORD
 96 1
Ni 2.911121708412511 8.131559632707653 13.734551379530005 -0.7310517891507474 2.343938226566486 -0.3816504394962202
Ni 0.8542661825177504 2.5231150386414187 12.988074059838183 0.5274530717870529 -1.696701058039549 -0.6117222634497788
Ni 7.855282039017678 5.610125298498115 0.35263350677585137 0.07557912008789563 0.8654937450131224 -0.09166471279584858
Ni 7.468332891136307 5.930356145729677 8.996903357020246 0.07515745916944476 0.9049509225674801 0.1330376193156806
Ni 5.6926403323756505 7.774155002620402 11.326341759502766 -1.1390148983995674 -0.31660795727359026 0.7990970627554431
Ni 4.806880770295578 9.099229930442563 9.774391561912203 -0.3622411817316729 0.15286185313045933 -2.211149747147134
Ni 7.811527070830413 2.3076260692910213 6.36568786428182 -0.4573367745859414 -0.9309044092084485 1.8638541309816998
Ni 2.848586284522945 6.786231272265363 9.084989265138283 -0.0183461066073555 3.0630349002378865 0.08957517725667154
Ni 6.102732213754428 6.618529073306796 4.1859435737214525 0.5912244006067431 -0.7510290036036227 -0.38272644616921825
Ni 1.652821734198536 4.440326687430283 -0.02299449158965132 1.5150346219725714 0.8314006599841551 1.118473841023422
Ni 2.592788735286611 0.08183047729713513 9.206062302487876 -0.45336159198827725 0.869344229107464 0.47480227836055644
Ni 4.53686332850637 8.306437873060764 1.9419652147361521 -0.27436704632650816 -1.3128091308073195 -0.3488886716841669
Ni 5.74497822375718 1.404785640259986 5.439279804565544 -0.5518055324894884 -0.025479632328343212 -1.4087444459540641
Ni 6.21430077312014 6.264278124569254 6.631894450404136 1.4605290347255233 -0.1811319037197461 -0.5712991224377257
Ni 0.3688286991441715 3.097226676684193 5.723064859456575 0.18014897098118654 -0.1772240840249077 -0.028327386189783473
Ni 3.6304443209377917 3.870473463425587 2.331344774531938 -1.3663731800767047 -0.6086762775346033 0.1530693411555751
Ni 9.061414080725257 6.896185222317303 7.4222617611673565 -0.9418737637357586 0.4687018218897734 -0.9647540107680417
Ni 8.304011238010242 8.500559234942932 0.3798637512202301 -0.3440177167451108 -0.066266327327402 0.8717626087409696
Ni 8.083942821190956 3.2772792205691608 2.8585477630377403 0.939755431841175 -0.29265041801672825 2.2644335461719387
Ni 2.719757457171406 0.712040818941764 11.988574241654577 -0.28228398718073966 0.857452876986517 0.8682165432609241
Ni 3.2791959789942826 6.399867538287232 2.815651087169903 0.10712475610466068 -1.0157060763358767 -0.8224172255386223
Ni 7.74442164163169 4.665201163551966 5.129984866732878 2.24039810248929 0.6981149292134106 0.3034246258140968
Ni 5.539309100525633 0.8990862263225207 11.72749569248144 0.3866496924830244 -0.2307786202125961 0.9177102791156776
Ni 6.430601768207289 0.8046570752980946 1.7510069763634224 1.2251684515691998 -0.7548272943037904 -1.169438504996747
P 0.34708246107078183 0.4706123483820331 10.76360886815021 -0.0399279465431893 -2.028156621848933 1.2868458739743387
P 2.931592310706423 2.1758135194649086 10.443755707307831 0.6329806586079227 1.5939703172375257 -0.8214201517326758
P 4.359294072630304 1.0947806520156498 7.514479558383096 -1.34001037381246 0.04389593005200182 0.1501925338284123
P 6.35941732600535 3.8168986491194716 6.646473145026738 -1.5076172464625777 0.7170017388155845 0.37236515753955224
P 7.980173485761947 3.919761537214434 10.346576999370127 -0.1684388816331099 0.4584809154927136 -0.27294445494736863
P 1.850993782604729 8.042180148706652 2.492951115169033 -0.010988637801019784 -1.0728349601383849 1.607544970598167
P 6.921461883913614 0.09439610346537229 10.083134133400685 0.6184482693197026 -1.7982963996855479 0.6756434875837719
P 6.097359624868249 4.267601259495535 13.052196710778306 -0.6200495523685515 0.7888401609141253 -0.1254919457579387
Ni 3.948985021577745 2.8662808918563356 4.559651981013914 0.06982936208831199 -0.8846867730018054 -0.44656410945046965
Ni 0.6751465240140738 8.648310150392717 12.58317442209475 0.7464436982257854 0.8981750372962273 0.08139624099030499
Ni 7.848974676318262 8.38670567292264 11.898401616236281 -0.1572612677497356 0.2703936635010569 -1.1002118094894406
Ni 9.145317112083054 0.3140254598572273 8.633228188656524 -0.6686562576326613 0.2721139886262733 0.44467974794356324
Ni 3.007101262064548 9.292369307712844 5.961756047910676 -0.3814228968664463 1.0008949794649729 0.8795790194615949
Ni 0.5620785496832906 0.4725772618217763 3.719395130887067 -0.1233766991871488 -0.38635067318536687 0.9290028213103613
Ni 0.5823055442561773 5.3191745885882415 9.619944266782142 -0.7807352724188038 -0.3111340786432125 -0.1937339087544728
Ni 7.1364126501594205 8.739105958353168 4.545762564051579 -0.38946170801052277 0.8966488304596881 -0.7027665690528091
Ni 0.5402076751014693 0.6065303492586038 6.364609569640693 0.4282154317399528 0.04134770970885137 -0.5926824732095084
Ni 3.355299786415376 7.012182154596228 6.462341588138555 -0.24560025860646087 -0.490903040577161 0.10450788730710389
Ni 1.6478551581807326 6.622551433351633 11.537531713528244 1.8907854081549051 -0.5906615861247375 -0.9882711200533754
Ni 8.907374686895515 7.685502564918585 2.799565423854447 0.3680477611111209 -0.49773857544175565 -0.5125147053096658
Ni 7.610286320512079 2.5476457696190864 12.128746879705336 0.29517421287984646 0.6190468221356499 -0.26331387383614
Ni 9.03886620329082 7.594857831513808 9.645759131483043 0.4054390572753856 0.4085326085990448 1.5404474056187212
Ni 5.666032326257457 4.281641751013545 4.389034987346801 0.11952107288648449 0.5608270192618083 0.17989366043727084
Ni 2.3695383106384296 4.078040460762796 11.575826280743845 0.0019779496619772388 -1.5185812016732492 0.28073515463638105
Ni 0.7770463118166104 6.103676429727394 1.3325314013606764 0.3138748746131433 1.4749881475736468 -0.6780816647116192
Ni 1.579361731501748 5.81752233696019 7.251770348224647 1.2245860967031683 -1.0543291880247134 1.6241756371763125
Ni 6.386837357860296 0.5733005565219965 7.47708388477376 3.7317243251013283 1.833374988556236 2.25375832584628
Ni 3.225130172382225 0.42255930908582584 2.9621244784082656 -1.4459624497652583 1.3104295748315495 0.46205449177658486
Ni 3.756251657175838 2.999962989308922 13.586626728341194 -0.09586666669233813 0.13290109373781628 -0.288533053414245
Ni 7.079523637788193 3.4149742359068544 0.8833943010677917 -0.3089314145649389 -0.4254512387312544 -1.6163931650174164
Ni 6.9469651573434374 5.864515965934729 11.533012695881629 1.7540577415821468 -0.8237254028270846 1.4768164590316373
Ni 4.322611282080559 0.689007614497221 0.5045049807316629 0.19101059628603875 0.49468564754804484 -0.8383120423920079
P 1.3443652601498646 8.325983143701169 7.922944555640452 -0.2486624424715524 -0.8323769078544956 -0.749592271157096
P 0.2490058037427864 3.7392557696624427 1.5067600211243868 0.1985354439081742 -0.13850121353341308 -1.036865226911995
P 0.4934812592472799 5.474299830786895 5.556470225834298 -2.236870806062322 -0.6832128152905975 -0.0857347204646588
P 3.0316980881603235 6.249406722995031 0.5538723686622394 0.6431349734331053 -3.4327631343752234 0.6221254610609737
P 3.259962299624956 8.190261539746976 11.58450456975138 1.2469431242421298 -1.5900308729738035 -1.6726237053753712
P 8.201780974617167 1.5044381940468625 4.507966542869705 0.18255860886394368 -0.6346865855554359 -1.3434019159925121
P 7.711411851216783 5.583007415754519 2.9361302126725 -0.7395960791763326 0.855220131001256 -0.2750093078961973
P 0.5327474246990616 2.2123641197784387 7.884028694314641 -0.44666978179039846 1.6813903958244074 -0.8605330585737373
Ni 0.8539121015278881 9.40023654046453 1.3701470772917128 -0.04341436242989297 1.027176281759005 -1.3826487773082767
Ni 8.707909062606358 1.7271787420696418 0.6312537002947568 -0.1533814730793552 -0.1538440145380705 0.5898542597320938
Ni 0.5467831951372075 5.099540511116521 3.3503577600128702 -2.3065983524654468 0.47171026969879404 -0.5640082452032674
Ni 4.190609889059853 5.222666273991343 7.62427582436755 -0.3274122469779458 -1.6348665412312553 -0.9178414053769031
Ni 4.081666250098987 5.689373345109187 11.96516429503682 0.14394912402186177 -0.25604845052297837 -0.48137144693764194
Ni 0.11411038876493826 4.650849080762876 12.05463253533928 -1.340576273618259 -1.4305337739150137 -1.1535912535518456
Ni 5.608255750871642 5.038855750533969 9.87726483638287 -1.7665535600563127 -0.012223795759701528 -0.7024225554498289
Ni 4.484969218632136 3.0837527147499624 8.559514191863009 -0.4080114459882522 -0.8383619217933367 0.16435262737887824
Ni 5.128339098291996 6.976519117297286 13.588948555418721 0.7258432483666144 0.20392884700960365 1.238943136755789
Ni 5.340211720465933 3.3077868386557054 11.286099274734935 -1.0992080508152748 -0.6868110741648171 0.5454811329333573
Ni 4.198465765954934 7.850192714923388 4.529774154981338 0.461074901472135 0.947039367097098 -1.001179343474611
Ni 5.092090647089816 8.447947520929242 6.979026954921485 -1.3045353208343018 -2.1798609643361813 -0.41062034436600897
Ni 0.506524658697838 2.422980934708329 10.197642981306215 0.2622355531702968 1.9747087864424377 -0.35794846789359
Ni 9.344206764628701 8.162983140287976 5.004931959057232 -1.0307819968323926 -0.7023917022118935 2.143307847802496
Ni 2.871577943464677 4.716575954641069 9.526537701656437 0.5760798316558207 -2.1495947092524723 -0.3466865218265255
Ni 2.5697781920254195 3.555813490434526 6.831655614292832 -0.15731577513675488 -0.7717032441235225 0.9313355832085961
Ni 1.7231374977053455 6.959239964992001 4.621079839567191 1.270796790931276 0.012710505588132949 -0.8009238315515368
Ni 6.44071432127776 1.9587665937591165 9.435052616035719 0.5231081645547959 1.8067933814129657 0.09959939426189299
Ni 5.813490534755624 2.79528529284899 2.6450492009583564 -1.6309147556723589 -0.5855373775242949 0.8366757923401655
Ni 2.0145036626433246 4.151679864494446 4.616007511360415 2.270420616993309 -0.12760539255651573 -0.5020667705034644
Ni 6.649461588581177 7.561744177341876 1.9552739388751137 0.9829139695065202 -0.7707712192275564 -0.42259551445001414
Ni 1.3646942300478317 2.3700576294235614 2.8254775428005647 0.8632651127929197 1.075517134956238 -0.6177286175448587
Ni 8.110380868434016 3.9634504102835906 8.06507833026706 0.9918873766497239 -0.6521510608887866 0.31633182079406813
Ni 5.374637834840288 5.154635513139112 1.7785903575816906 1.3586850674038278 1.033599925897162 -0.5189627749278547
P 5.265155992774831 6.726207462863887 8.499316646722507 0.2571465686831636 2.029012284981009 1.3210726563676924
P 3.831656744776937 5.3348769002186724 4.745635145425084 0.13462758951061976 0.7831433676396642 0.6317629841507377
P 2.363986320717387 1.5460781184546817 0.9368803590724477 0.24439106878970815 0.9621461408315495 -0.46676346721648004
P 5.371248099497339 0.18434494969807272 3.4863701824867377 -0.21631462226846618 0.2113914739352359 0.8666319723826236
P 6.224469979148989 8.970863768917777 13.623897765442099 -0.3226503068129282 -0.2840385079780011 -0.18798132254141173
P 9.246414316308568 6.6147899780538495 12.451239124192151 -2.7488638345405625 1.822233627227436 1.258830362598019
P 2.3123471491558534 1.6526328910039425 4.981258576183017 -1.946769636830009 -0.05398468174657155 -0.3248755965990211
P 7.557712375137309 8.374581939829751 6.653424463019716 0.22754648642854358 -0.9240241371488473 -0.1554069881498162
