# total energy = -340858.55816719774 ev
CRYSTAL
PRIMVEC
9.34843348506740 0.00000000000000 0.00000000000000
0.00000000000000 9.34843348506740 0.00000000000000
0.00000000000000 0.00000000000000 13.68237735953408
PRIMCOORD
 96 1
Ni 0.74826076630567 4.267195281044316 5.380786282674615 0.9114699546329206 -0.6151803972017084 -0.2996728720811484
Ni 3.267240097059473 4.818313478225249 5.142192759632345 -0.711156078668085 -2.0103851567981246 -0.35340764260044294
Ni 3.521246382330844 8.607065283729339 11.314997955905636 -0.7011771130785021 -1.34712050249468 0.41163593011471694
Ni 0.9622529518807817 6.618840457572219 6.541312029284245 -0.5020575145320838 0.15278240604277557 -0.38124883318242725
Ni 3.781899403785202 0.738784259317352 6.394363069039528 -1.7536275960232637 -1.157171000483304 1.3823875532270902
Ni 3.2448879926803986 3.448104239017635 1.9021790401528038 -0.15318298391530394 0.848181736097236 -0.3786134524421092
Ni 0.7721918210944588 8.835354028579616 4.684544874301761 -0.12263904969017587 -0.4100302761904938 -0.11514222709249848
Ni 9.334326663976157 1.8921603240243827 4.210382046438314 -1.489818270607944 -0.2936459491607782 -0.4340052989488525
Ni 5.907097476852488 4.0420569582667065 11.252961751531087 0.7668446304796407 1.0473216463586283 0.18233363733733113
Ni 2.793377353909773 3.170754915421484 10.934148386210573 0.9470463090756334 -0.1364265903925715 0.08068301697336427
Ni 0.1700199591561009 -0.050919047315744786 13.042753924747363 1.5711067823757912 -1.1384083751638199 0.8905504308714339
Ni 6.432815980349628 8.356611403168987 9.50416245899329 -3.3100847468066803 0.8668132351554942 2.0983773058383925
Ni 2.4696224066675625 5.479116845075644 0.8625491046059391 1.720675052356643 0.15352236953259368 -0.31949479190308205
Ni 9.359838538861348 2.3015375732356222 0.2701940326334812 -1.3994028568381642 -1.6008924982786557 0.14225733814173566
Ni 1.2442484469016089 2.7498043055990795 2.107660411914988 -1.0956941241247453 -1.5194070400086543 1.695645620191841
Ni 9.1276701941293 7.0549635748840585 3.3371589005191042 0.0027564796992146073 -0.8066535349464624 -0.4430787220050305
Ni 0.4135382369398579 6.566900561323728 10.749710338144457 -0.2667403830191858 -0.390053833068567 0.2171592296569486
Ni 2.8717265746546614 0.7206389499908006 4.2176747593726995 -0.011224665071225829 -1.8085741274624725 -1.3946689416976046
Ni 8.425743068532125 4.387958344352091 3.127777362321558 0.12733799782774197 -0.14408410693782928 -0.28395289024273035
Ni 7.357824773365402 9.023164056591167 13.223470361457013 -0.5755517270664927 0.3825001890910251 -0.8215345658233529
Ni 7.742877398739606 5.205609727627465 7.965223344445684 1.8962749705145667 0.4936687762477563 -2.025853427637053
Ni 0.46089272658109776 1.7333865303086948 11.718572632474427 -1.420143174709309 1.172763455604922 -1.2439210495863544
Ni 5.105899336449207 2.3367531220419693 1.3542991403189695 0.9661974280827875 -3.600815579203192 -1.565986173319774
Ni 7.519655504819257 8.862801029188969 3.525483092370408 0.23890176354036272 -0.979692634355745 1.7663350162876033
P 5.256119313558098 8.935148555658923 5.193912967694759 -0.025299655107053204 -0.20330329761046273 0.10636293823797166
P 2.396227855651202 1.163805177063909 11.36335085823934 1.2111855070265465 -1.7209020807657847 -0.29501197627036935
P 9.475946082311 4.146245249067539 8.317434923109854 -1.5172586262070835 1.9224721977352244 0.5415591721711318
P 1.0737143239057552 4.161950617263628 12.439483621878622 -1.0612660243538625 -0.4721512138909546 1.3888523350158275
P 7.667416843930783 0.9236897290559711 10.925857260583722 -0.0395646496664996 -0.9161023111986094 0.10894946801822528
P 2.1907025462518024 8.453358340943579 6.980448146697036 0.7630766787967762 0.49014662202711073 -0.6012673866650419
P 4.624342832570114 6.894740773983612 9.960264113431238 -2.165007958483749 1.3857068474083103 0.443493698055262
P 0.1492617626802598 8.008718800758743 9.167343076004633 -0.6187868836060441 -0.4289389401695387 -0.791792815784546
Ni 8.096752998557884 8.024414820521379 10.948843188750711 -0.08004641183062988 1.9498343917982615 0.6376688081122114
Ni 3.4998665150305746 6.914998829269876 5.625345041101363 0.9144935719505928 2.0133015591139714 2.369213713303823
Ni 7.388207182078071 8.069446224450282 7.728928601188783 2.246301098237286 -1.5045926007036412 -3.1220062365657717
Ni 4.81498543591703 2.6419233835854765 12.754109823856858 -1.5298302922245073 -0.5353095917169942 -0.3943956549770305
Ni 1.7808391785011601 8.559995921308325 2.2495200849894963 -1.2346401385050607 -0.40631143257800995 0.6315408408376026
Ni 6.040630500253035 3.664763532656047 6.964712863513908 -0.31677507897907375 1.456733572238833 -0.3335713246008062
Ni 2.1450354488482968 6.662703307319864 3.947489140329323 -2.1972915011078027 -1.256987138741693 -1.4429586299419277
Ni 5.386277552483175 4.145188876087684 2.278266517848407 0.8755465012634341 4.043115771170985 2.381838086936053
Ni 1.6671902730488746 0.1306817511982809 9.643380264774814 -1.7263240231123045 0.48781900233519854 -0.510645770421727
Ni 8.218151755340264 6.774847114986692 12.948961091942989 -0.44564288318778095 -0.7321637912680036 0.41352363405573295
Ni 6.332226836427066 6.982588003113753 5.866059723693449 -0.6172480783640144 -0.2836898663893308 -0.9025500264354714
Ni 8.163033391718756 0.7095442291722784 6.233937407133216 -1.2918158163851041 -0.24041999995710212 -0.5621490805073415
Ni 6.047987717378226 5.616220970054111 9.08720549994075 -1.4765467503100183 1.418411793840499 1.9018568354777183
Ni 2.5587129774465605 5.900319862601201 11.176710319252392 1.9496464441571713 0.44482013017616945 0.11194557453207173
Ni 7.188337674915954 5.177629866311458 1.088732582243264 0.4220021038403894 0.8641850535040279 -0.48268116688800095
Ni 2.382513703779975 2.3183647534457164 13.13089562953118 -0.09309167505036227 0.986184926948308 1.5460063877637376
Ni 1.2382093588928753 2.520468536202397 8.709736323781227 1.3400571678899955 -2.540588023416173 0.5333748365881266
Ni 4.756333364451402 8.063061244403897 7.335532498960407 1.2791672743831581 -0.6733575197630727 -0.408359059135658
Ni 8.168184378549734 2.833052105471795 7.6478328106962685 -1.2885415165092067 -2.4220779082927058 -1.3339788229063994
Ni 4.181404707273186 2.6042304999148653 3.945039850765409 -0.9903354587815718 1.026796015601451 0.0026006708476406823
Ni 4.981144492058259 1.2676382273936397 10.515632108458563 0.39819445989783037 1.8289017832762307 -2.6223596454680256
Ni 2.558432524443059 6.99805031204014 8.523587512393751 0.008890103400778237 -0.042584153219113755 1.0017079622845715
Ni 5.1157993274728115 5.153959632815925 13.44461877283814 1.322607090734348 0.5736406260867087 1.0685818412889856
Ni 3.9547799835770188 7.951777492614474 3.3085358669817344 1.1646441689318976 0.7880390051690687 -0.26889908123340145
P 4.560390199338306 5.881594950400745 3.763296956062943 -0.8963675517738434 -0.30581935129851845 -0.08579385583736837
P 7.5664537626702195 5.695439595109854 10.64094879369986 0.6793782720358558 -0.11211218201692304 1.6660802478298984
P 8.353610556031521 7.825265142734916 5.594819601356906 0.4238394141594442 -0.3092839128083512 -0.16120971087452235
P 7.279933625859567 3.0251250191365697 1.1969435039576546 0.3139496937151367 -0.025353905383756332 -0.35206398408835493
P 4.889427011479796 5.774452554629696 7.325134236433914 -0.7989677362664305 -0.18619312029273738 -1.7581974747821332
P 1.1976465061530983 4.947060103699369 2.6956880940434167 1.3048780488857012 1.2998607981767676 1.8750633694339578
P 1.8639000097048748 2.32259024536514 5.024223943082791 0.7896639423670013 1.4013782353969801 0.5119130671699248
P 7.569333080172835 3.2522826035393897 4.759565117895085 0.5339679900874351 0.13503690913389646 1.7728489061467207
Ni 1.0608508794784832 0.9800617176031314 6.607562507458076 0.9191858352199396 0.4159782662438126 0.7684592832649282
Ni 8.078495508029933 4.135859139504531 12.682345639634187 0.4532824020109097 1.2124540893263247 -1.0204680165008941
Ni 6.352251180877078 1.924384374126713 3.6767557030857736 0.5574370197436529 -0.49466430739180617 -1.0323030614626092
Ni 3.0880680215557716 3.0497955350112576 6.6678739258610875 0.011388187232283613 0.19420262086077522 0.3010720664215202
Ni 6.079791087975304 3.301894739858817 9.059772521981571 0.4969266210634216 -1.8739783638998955 1.5283467657004453
Ni 8.40900937265653 0.5200636361032037 8.693097981926824 1.1502403348017416 1.0729128645641717 1.3021796761179316
Ni 6.624010141270098 6.334676125990979 3.3633064688789007 0.47913741540080057 0.2522108219444431 -0.5279706348534198
Ni 7.014419419011181 2.114241709063825 12.742329862866447 0.3128590317541192 -1.2130832382698915 -0.16848696126222595
Ni 5.545733781840717 1.8940954497485436 5.806650429118367 1.2780874110554181 -0.5137534628127732 -1.0270878358102569
Ni 0.6388195907492529 6.9034254686587095 0.8559528499635823 -0.4418304514202262 1.2731889453125362 -0.059207877818723845
Ni 3.7305858525778652 9.102214409844809 8.976118065253779 1.1901564542703889 1.2248344652685486 0.03759287065210945
Ni 5.716445525072122 4.51289080897859 4.928406239593134 0.24996316356084688 -0.13511455644936732 -1.005045511298237
Ni 8.333913406752261 2.790273674004356 10.179948560134086 -0.6598402020029281 0.6753863772676433 -0.5158687093835632
Ni 2.9384556926211345 0.9683294336233157 1.3700297492853726 -1.1988079592977998 0.6019317597219181 -1.1608435642388848
Ni 0.9534747728711828 4.381218123834604 10.354371631445161 -1.108732188255626 -0.46734325097935 -0.7803670904461076
Ni 8.052413378704287 5.383473022448159 5.4002020441070275 -0.12443702213086312 0.3469166355594606 0.309197523742132
Ni 0.24369870254934298 4.4862103799121416 0.952970892308225 -1.0521203532988526 0.7771228724771971 -2.2279002271325954
Ni 7.266518623858742 0.8797128284202351 1.831974174629601 0.3332527649191228 0.7326728696939382 -2.736211178773559
Ni 6.233937407133216 1.1283278721209606 7.934807281372594 -0.8729283469142965 -0.5618809144476193 0.2849484213867803
Ni 4.007271437399062 4.320098065938161 9.467493228785461 -0.0657168825818352 0.8401568089102306 -1.067189074706517
Ni 5.926411340360296 7.029246034462964 11.807878217222777 -0.35524366736791724 0.022661703263573873 -0.07326821256653188
Ni 1.9419781258797113 4.7501914436747175 8.095603141243528 2.9475864547588784 1.2611227581766218 -1.2210991665958324
Ni 5.46936642898724 8.396529214000712 0.51047027369676 -0.6458420879516232 0.16179386551276653 0.8046115648157692
Ni 3.1521328359889798 7.821058347682393 0.2784982460671626 -0.5216351795536953 -0.10762175034573723 0.10898314946963811
P 1.5457541225326952 7.665902397711875 12.402897592728499 0.048529057948639 -0.38734903254289416 0.5573393178235241
P 4.553042330646565 0.5975126027068518 2.5091157986206536 1.456297256032363 -0.04581474434126948 1.3972485294993229
P 4.103896845538803 2.2048186807613814 8.387708032197242 0.7166078458112756 -0.4250074663256164 0.6009717098014941
P 4.823380329155176 6.520831481281871 1.486166272878717 -0.4457801800965936 -0.26660591432385056 -0.341045007270032
P 0.10370965100819003 0.6556000287920967 2.1974035033488 0.467061458072873 0.3730480425391898 0.10394275883225323
P 3.394444231014335 4.46629821666353 12.698586673066961 -0.901649626108389 -1.1487416387690281 -0.6037040211309925
P 7.62038487524357 7.356506644248944 1.4967421556407612 0.5670899694523847 0.7417943723792321 -0.16785755520834317
P 5.104104437226797 0.3125583284990831 12.22577843321043 1.5925238145989864 -0.8965860955425525 4.239155445240499
