# total energy = -381168.8450153497 ev
CRYSTAL
PRIMVEC
9.28710816975101 0.00000000000000 0.00000000000000
0.00000000000000 9.28710816975101 0.00000000000000
0.00000000000000 0.00000000000000 13.59262156170904
PRIMCOORD
 96 1
Ni 7.5165024164803445 6.317323149313204 4.118591933626136 1.3998386588240022 -2.353635656359908 -0.03281987474349831
Ni 0.5919955652397236 2.1969768809553165 13.127917117974485 -0.3470397914008862 1.2442666058512315 -1.2220522745377211
Ni 0.5637711148254081 0.7674959055935794 1.1704031625280193 0.699901074579556 -1.4289090938273972 1.1959283237571599
Ni 4.418341707943338 8.833340056948451 11.698190962957279 -0.09521360648937151 0.4559131547655374 -2.116022786834298
Ni 1.027135588471082 7.638962224700925 0.18123884448698901 0.02040401757764873 -1.2184992670791401 0.3752761605387601
Ni 4.227705238707493 1.3699041765042352 13.352575979250014 2.19349886683459 -0.018963942697012504 -0.3999690352997499
Ni 3.302969304827653 1.818360055417883 7.671104906048675 0.297248836020688 -1.7899236022408205 0.21061474367021146
Ni 5.610992138072782 7.712181785448009 4.819332105753196 -0.8933161665420292 0.39317900896110997 -1.3169216103137964
Ni 4.477407715851944 7.726511793341559 -0.003978597136485393 -0.3996957270337052 -1.1188808466538538 0.8549403949773082
Ni 9.33122192549883 9.284842107339147 12.546424343354863 -0.9236685535816415 -0.45271495954321395 -1.0212894839609252
Ni 2.655026342600032 8.349741760750815 4.682304539670126 0.5897233905811844 0.038152599810321396 -0.17766091445201015
Ni 6.72889992171662 3.283048457820741 12.929954049109853 -0.26505168246285316 0.3723738992903006 0.879023404068441
Ni 7.05582470322586 3.5547149457676843 7.8874313738814985 0.3974966624998574 1.1744655258976935 0.9017966932092146
Ni 4.894083110636149 0.5630039996912491 3.6595961156597405 0.19168036865955373 0.6792283767215528 1.083048667446593
Ni 2.1291995655910063 7.957602905729902 7.267770442138795 0.21442768965839848 0.1372547427208217 -0.37150435220115374
Ni 8.851886411947428 4.468649972855432 12.437398337090228 -0.20764306263639723 -0.9709262010170248 -0.825253666546153
Ni 7.318194795902912 3.4291996789618953 10.5494100456514 -1.5565144863839129 1.4730806461382888 -0.43232096926789415
Ni 3.776500375777973 6.275521875477254 6.357024607993786 -1.8755907026923375 2.7138482376973263 -2.0169098452905203
Ni 1.4232679000015394 0.8765729909531053 8.797212277488503 -0.569069975996891 -0.42754437381485727 -2.165769262129805
Ni 5.098464499951355 2.5583475466364165 6.44256258900659 1.616174621248707 -0.6670416048473738 -0.7462655207767084
Ni 5.30611495133949 4.7955004574993785 9.533483996731528 0.8432097368039414 -0.5960552463364831 -0.3456087153813145
Ni 5.494392495102255 5.125415687836697 11.877518520584585 0.1427767009803154 -0.16632363506232 0.12294526807668503
Ni 0.5775764011078207 3.69705845256253 9.851279550917788 -1.4143211687108932 -0.3327120619243044 0.6026966629124008
Ni 6.153071354364836 5.844822947368836 5.9906760523379985 0.8605184032857179 -0.1758464869510907 1.110283591903146
P 7.006853781889054 1.4618093988727212 7.082299462462505 0.18576117496164135 0.022041553181071715 1.4786913074568468
Ni 1.4143615632744397 0.7685332755752445 3.4386883173707354 1.6471199046773117 1.0984017528638954 -0.23343971198452698
P 1.2964338638367843 0.8361257774871361 6.3258431423407755 2.5446082003191592 1.779959034828941 -1.583709558741466
Ni 4.088398616281534 3.2431231798334608 11.21568018712538 -0.4884810613992297 0.6755792100047397 -2.066562475320641
P 2.7619395317578745 7.395528545565642 12.20845811895214 -0.5571122894143825 -0.25434123802388453 -0.008211589276514891
P 7.262388562959072 6.082145709333699 7.839136554018866 0.7424188933371085 0.06498360396023647 0.5326464430625343
P 1.8659193363141056 3.330542728959831 11.732838377376249 0.11146220713774997 0.6015206403264286 -0.6064543301826201
Ni 8.098367604137254 2.378493409976341 1.2783332900295714 0.42136832691113235 0.8812620635909727 0.2167519669162009
Ni 5.827678945702281 9.221541178108792 9.28817803659084 -0.39743701290651556 -0.36917261874418356 0.08447616546720936
Ni 0.05399338943066942 8.77671655848638 4.871935215092055 -0.10227874086626901 0.6475423584721816 2.001414834978714
Ni 8.781192944620335 6.988483881945151 11.955268332692961 -0.6151963380413082 0.056978988488205096 -0.9314726230070925
Ni 6.083696656396708 6.977562242746957 2.394313070019033 -0.8673295126702805 0.7908638762123734 -0.7326474157726414
Ni 0.29836506649028693 6.99314601024234 8.578425654703636 -1.3731413520384739 3.0695508469795327 -0.48530189234029975
Ni 1.123944403948962 6.176335560309971 10.311702797408643 0.9252788354915548 -2.193602739402306 2.4535505249796903
Ni 3.331471439776004 1.1783761448848649 10.052246999272743 1.6254053958183554 0.20776776113971962 0.8962611081029662
Ni 2.7438389579506612 2.0410463349198595 1.3763485008576601 0.4285134225963459 -2.177930322972372 1.3065749769721497
Ni 1.0666336594829222 1.451612154111141 10.84246752982726 -0.7764860102241466 0.5910032857348725 0.8316647122788192
Ni 5.199712553130542 0.17367542360007562 1.41746531482209 0.23770208680530677 -2.0820392308000013 -0.19985056317517194
Ni 8.926870523245242 6.796946563217619 6.0531067795336 0.012280360029249818 -0.34011941013196906 0.47016555091949347
Ni 1.8022004872164716 5.327809636005292 12.773489494355097 0.21221936915317 0.9505432664852985 -0.21413226990516668
Ni 4.751758178057628 8.867228714630606 6.640267476264327 -2.3174005852872734 1.1078510712022536 -0.008376911209785573
Ni 3.4456750088408055 3.458101159561201 13.338480006482138 -0.07163401939721857 2.0186491965791302 0.3478129221214849
Ni 7.533312082253078 3.863659885875815 5.630634371834842 0.0910360780729142 0.4487572604470465 -0.1182018398544287
Ni 0.414005351187708 8.06647567470987 2.8557959755511404 0.09228666265056364 -1.0896672012043749 -1.8813453457879277
Ni 4.610798450378881 4.5812654464245774 7.319504278153715 0.3900162949624122 -1.6703395373268846 1.9427209206819318
Ni 3.6807595777386926 6.231918902657929 10.355688399084231 -1.7180245021076732 -0.06975788542042825 1.7281983573168815
Ni 3.3583576179042143 1.5428672789083062 5.210160549812489 -1.4786424564967824 -0.5431715109635743 0.22235311515306225
Ni 6.893959695075057 8.451574901744191 6.903665651814881 1.570665066852682 -1.1058157859397795 0.8047326637746657
Ni 7.939994548655261 1.5424029235002197 9.31789121044348 0.48998412830731747 -1.0793727612569022 -1.5067173603561277
Ni 0.043286282431010195 2.391616093808867 4.848733232771602 0.6202169311843512 -0.8999095034888308 0.4908094524220903
Ni 4.474231524860632 4.5788693725188505 4.984971394660927 -1.4326778168412102 -1.2788623415482296 0.056818037430308596
Ni 0.2385737354342491 4.736963814755991 4.5295511133367965 -0.05541550065582715 1.858129055572464 1.3837787771476622
P 4.172530529118652 8.056445597895202 2.799753850059993 -0.9321783908248654 -1.8943646408657313 0.5465990485878844
Ni 2.614358095959813 3.481504672128762 9.103182556852431 1.4913725024689413 -0.7419458103554318 0.4183287687538602
P 8.664574727433484 5.988968153147057 0.2854773464942534 0.370856948425142 0.6053952927904864 0.9089672428157249
Ni 0.17819453043157374 5.089205253114109 7.6285736655112135 -0.1530703695968396 -2.9598449604112576 -1.0359725398943966
P 3.633961839711732 8.902111092886067 8.55775162322481 0.3750370479447605 0.22451052781569722 0.4933270766376213
P 8.470084108310521 8.857774438521965 10.291449471929539 0.013896555476434133 0.21466063160481097 0.7845731581076553
P 6.672137116632122 1.1500040294507778 0.15128141968969458 0.3773029611608018 -0.06180829155604839 -0.8826561157250218
Ni 9.155537700403372 2.267252428415132 7.277054764168077 -0.000976247870340254 0.5828732004285704 0.16767397844262735
Ni 7.125608033953104 2.81353870470445 3.5854757054209685 -0.31124103653472207 0.5825849797641902 -0.024093550614093993
Ni 5.737046057151952 7.02281832081907 10.494332850698258 1.9136666836284524 0.8318979113355479 0.44727476236424907
Ni 5.778587291959373 4.694883927675189 3.2061864932526256 1.3705072568497363 1.0697743189351898 2.058260897433481
Ni 4.116752157499298 4.096181212921064 2.034679093564177 -2.6839445081593585 0.2094505481587812 -1.262943356325128
Ni 2.133425199804594 8.248688736843024 10.230268789492506 0.13951757061306938 0.6030062237330196 -0.012749843466500623
Ni 7.911158077813088 8.554596792582268 1.0861514459956152 0.17381582967430712 0.9970630073133925 0.7432164495377395
Ni 0.5675351797633575 5.798619584264225 2.189119058739676 -0.20304335908085677 -0.40450651815878724 -0.38354251431261044
Ni 8.320645250880114 0.9831704184334492 3.2664969736549043 0.3996777293115762 -1.519690375577028 -1.8284176445509606
Ni 6.800373506129298 8.863532445582237 12.184820571258905 0.43979388060617164 0.29949623729396807 -0.7189709467268134
Ni 3.101429770609937 6.2681293373805165 1.3380438232446021 -0.021055792229034705 -0.6015741192721833 0.3364653583191496
Ni 6.665069627321045 7.042897048664731 13.557307492542918 0.4092064947376178 -2.135932381274031 -0.4925230926790872
Ni 2.34585851189602 0.6239942964109664 12.592449393982768 -0.6088326006068095 -1.6843399653710345 0.045595943462244055
Ni 4.677869945522899 6.935890988425271 8.3534677485453 1.077892320056634 0.6767691165477828 0.041878642511656905
Ni 2.5447512202876426 5.589761808815066 8.426365046639175 -0.4320972832928623 0.7122925062653732 -1.0808470318095837
Ni 1.3793305912883917 3.717007160893927 1.0527624347325613 -0.7232222658039996 1.6987545981344678 0.656110816867483
Ni 2.23236076305151 3.0573531552743636 3.591252286697565 1.2755674728470419 0.791619009210843 0.5389965536502782
Ni 7.1020559276549555 4.830810042730279 1.5071230570154373 2.0986269599553533 -0.26404638112679035 -1.2551045770069997
Ni 5.6321481704652046 2.334416794640768 1.7172104455852102 0.12805893515416658 1.3474218357851826 0.2478188635243345
Ni 8.129275100099493 5.37625119217688 9.884390877646805 -0.5915244483456651 1.5054991716783104 -0.8266644308507505
Ni 5.689551786012861 1.6995129322722162 11.4705546548051 -0.050426532081667995 -1.2092024151582466 -0.16046614784027846
Ni 6.878004443253204 0.7171829971274037 5.103486039334403 -0.41832516920943447 0.42655989841440084 -0.22132955898455434
Ni 2.586868255801091 5.924032692880236 3.86928880213264 0.23509293131723383 0.043804655889776174 -0.5621007437679094
Ni 9.236827758142999 9.033570108915363 7.2836876168171845 -2.401969053357973 -1.085322036861802 1.361076964674772
Ni 2.6490361578357153 8.658454523154903 1.3904704775283878 0.3380162477460372 1.4192905969010268 0.6753352123147337
P 7.49296888439852 8.292050244850145 3.7046553070388253 -0.04337733854437045 1.2027522886575286 -0.8886064197711858
Ni 2.393334208818787 3.5611601988319257 6.56213689272132 -0.9094986898391627 1.4486561945473373 -0.8341717949713892
P 0.2966348782397565 3.4660509241476425 2.9428570423024674 -1.5949535070864016 -0.7761941900153407 -2.2890068646359287
Ni 5.60330241251487 2.286903949285354 9.190025376561959 -1.319801760075069 0.2979790293184933 -0.44383745454792595
P 5.363732170374867 5.250355153936459 0.3796226193513489 -1.3783126118267683 -0.029800114080568037 0.6816184742202842
P 1.684802152944035 5.825412891310818 5.797198656715481 -0.038525409768707844 -0.025681463926504156 1.3680256280784633
P 4.6200855585406115 2.7434581865160306 3.780923825395406 0.27076390235628206 0.20027325253488734 0.013841019648150354
Ni 8.021228883745918 1.6998751294905239 11.561122533598297 0.9008461563704873 -1.279201212944887 1.8498354481051045
