# total energy = -381170.21107335127 ev
CRYSTAL
PRIMVEC
9.29375516351510 0.00000000000000 0.00000000000000

0.00000000000000 9.29375516351510 0.00000000000000

0.00000000000000 0.00000000000000 13.60235010896877

PRIMCOORD
 96 1
Ni 7.724867054896383 2.777206384684364 10.063318046762097 0.7220171897523049 0.7585204268846614 -0.4189604888005881
Ni 1.9390490758823582 8.882980472476198 9.39926437081158 0.33770540137383775 -0.3066403045379171 -0.6741327073662002
Ni 2.3267473659969506 3.0257492788385147 11.141099962269935 -0.559848714508939 -1.6982033536166883 0.36066226728032724
Ni 4.987345004730893 5.620472781022159 13.481778667246697 0.6268897152188365 0.573657081146941 -1.5999491605287801
Ni 7.936708909936945 5.177197835070831 9.852113743325281 -0.7018761960280556 -0.8584504650130957 0.1954586047550634
Ni 3.0191785939427667 4.458316579949204 4.2919769501555765 -0.6925986273808717 -1.8179954207763724 0.042974446678996955
Ni 5.933068235715905 9.034859019246086 2.9024285829139638 0.5901975020041255 -0.8725048862236329 -1.7940070282815748
Ni 6.833484410312273 3.3386700149627426 12.485678636435093 1.1709212601898606 -1.4793777920009104 1.3523164448733227
Ni 4.6867384941892185 5.813011506602368 8.239895366910103 0.45893420098004833 0.02733622592110776 0.8382572778946726
Ni 4.759285546941987 8.036533134074466 6.903736834916867 -0.813704785366289 0.8208637650085734 0.46572037066394634
Ni 1.1335593164559588 5.9845463455285595 11.183838224733282 -0.8919493681014897 -0.03486338753608835 0.2598554829738944
Ni 0.32514574165727883 0.8057063039215494 1.1778719410428409 0.24930676092377066 -0.5697832000138316 -1.0374349833725358
Ni 8.621565727430095 9.276636059646199 3.7120001596051617 -1.7257442393494342 -1.5059444867458451 -0.36363471964508987
Ni 4.4655842964817 8.233588624660804 9.456530631335793 -0.34962940650493335 -0.06325427997395558 0.09157189597172617
Ni 1.0488653257134553 5.549998235669322 5.404893907033112 -0.40874523883048314 0.350052610085281 0.0820737266733038
Ni 2.578468724414673 6.892471874291497 0.25448810932785587 0.36651975450236873 -1.7947598472871993 -1.5173720118564964
Ni 7.8910858658729754 9.079627037835644 12.826281751668903 0.589938591915784 -0.5810258628071865 -0.049168491304850806
Ni 4.950411621738387 1.3705128979297732 6.758272837956095 0.418728318185124 0.19893062246406384 -0.11155116730713047
Ni 1.6329127810224806 3.4245814876307663 6.68426294814167 -0.9830252982734038 -0.35607747612312224 -0.2016037984208528
Ni 0.7149174685473183 6.681680213583639 7.517637690540067 0.615273728246463 -0.18675696321600738 -0.03178834815519042
Ni 9.006345778425501 7.184230729924046 9.643876006534468 2.8205258789622394 -1.5597527908155524 -0.7510526577527065
Ni 5.678856150916202 6.215217348516482 10.581825940706464 -0.6430400997264538 -0.5150248733260291 -1.4257060135090671
Ni 7.6069014206930925 2.583896277426154 1.1893283530244367 -0.25929755358789536 -1.2645235563280544 0.20017529350444235
Ni 3.0588350471961694 7.428433440420044 11.37484255133713 0.8886017917854955 0.414375440533067 0.47487478346970474
P 4.4446547598689365 0.41852009971608856 11.065634670397982 3.4693848993633147 -0.2373434179143074 -0.23041943710096446
Ni 2.4405865729106915 2.6350305182980125 2.7418798919584417 -0.7456921647717416 0.09874707356392672 0.37779661296776873
P 8.552345839023404 7.197688087390867 11.714153834604167 -0.8847891029076246 -0.22782133735648508 0.16137220459431564
Ni 3.397099853632568 4.508902489266822 0.807657063128929 -2.7968025672033705 -0.22987230634824282 1.3184251914425165
P 3.2041057340496835 0.24193968111535416 7.689177176343836 0.37946474469881103 -0.7387517288981664 -1.178427852979551
P 5.0309884789464965 3.0515952119291434 4.917276596478401 0.07150700690105104 -0.061446023120623215 1.4649862991659284
P 0.7834328903131346 3.8924848847472027 3.9980024632936844 0.8201587685217487 -1.1804158299438574 0.251187008665619
Ni 4.678290470751829 4.014642002526141 2.7578632920768396 0.5563959800736482 -0.2574551010625179 -0.6419152420933912
Ni 9.282742056784114 1.934244204466373 3.1681909466223455 -0.008122886217450527 1.2559733527651982 0.43723666140195666
Ni 4.321930723025443 8.38810659789518 0.29504326870490655 1.5818984736746564 -0.26791923381863536 -0.5967160198489336
Ni 1.630738042315826 7.9583261844313 1.867126563476116 -2.3005652588974894 -0.26310612870070815 0.7018895657644943
Ni 3.6147874806666582 8.932228081051258 2.411533364915505 0.7140573114752798 0.7623387721894871 0.5478321496640373
Ni 6.876746840566455 0.9577214688922404 11.038797093632137 -1.5203388077943043 -0.7780731522056085 0.8183165731066875
Ni 4.338603719776463 1.6736937786498378 3.5878374494634198 0.47258958697995385 -1.1235851941080583 0.07405599857514988
Ni 7.261080791314342 4.817297166629764 0.9747810858577773 -1.0915317652169394 -0.2066850695985021 0.8473605257475213
Ni 4.296623827733899 8.915174040338815 4.79877285385154 -0.4155861730117166 -0.24817059043679843 -0.5906006509798151
Ni 1.6705524894068917 9.26519544704837 3.7901727223542476 -0.20644415723228962 1.7718243215369487 1.2362607048276195
Ni 2.537195157764014 6.525387133114344 9.252046642252749 -0.33511347227694543 0.7954198710141721 0.7353115928683659
Ni 6.836123836776761 6.375441687417038 3.0712068940606954 0.35301760625087586 0.8536628138164652 -0.627114686745449
Ni 8.833788626432078 4.576923483258304 7.4493815645431205 -0.06429223432016669 -0.5354905973795486 0.11881119130365346
Ni 2.833061853175799 1.54278194351334 5.561306876943927 -0.33556290110953824 -0.03866656333226244 0.27339156978711626
Ni 0.28744562386434946 1.8091223787924648 12.256737201281823 -0.32931666308951024 -1.2397188385795488 -0.45137464346523554
Ni 4.66776064615935 6.755063704300506 2.3175958052942023 -1.0146915190284331 -0.6840026581817445 0.044183893606065845
Ni 8.578451997258421 4.992214932432975 2.9189686789662446 -0.5958392736709351 -1.1819644053779 0.020479865120906666
Ni 3.097710825016415 5.026090669978945 11.890371796753792 1.0654651500368746 0.3131022581131769 1.0096339019998677
Ni -0.0012565156971783688 1.7182015720950095 7.988387764860983 -0.019456823173031008 1.9428116806235252 0.6418813035316623
Ni 9.054775536546776 -0.016749205543305147 10.383340141201517 -0.3609821125135912 1.9842979727927699 1.071192539438955
Ni 5.750167134233136 7.748017798991586 12.123135753402991 -0.1483390255594413 2.0302772677363614 -0.6893104435479032
Ni 2.1010578157729896 8.198458230168686 6.0146869228770745 0.05568983736313635 0.16540575123374093 0.7161951837538892
Ni 7.541315390552651 6.612218687542876 7.816549949516684 -1.2274911861651054 0.07930310590670214 -0.7243466092164299
Ni 4.113388151065491 1.7338243745133293 1.2976656568854446 -0.13109232266385168 -0.25708100555255076 -0.2859886897258365
Ni 6.515359171300324 7.817655906380325 4.915494983614873 -0.7770477962648875 -0.12740947449562576 0.47503007810064635
P 7.533406404914345 1.0287443457993195 6.648461544527243 -0.0005923821683602701 0.017093465147177016 0.05395614250148127
Ni 5.924973374974468 0.8815582160080211 13.538881357680154 0.7393153147111203 -0.09745920799043861 0.13681996917624825
P 7.704374324775983 8.857887333553258 1.3835762001779528 -0.2928370801062376 0.2954902014583685 0.8545668136879735
Ni 8.60620315015616 7.626799350483468 5.6929231787212995 1.6255648042143551 1.3453685528005799 1.0179169679442663
P 5.603483796595812 6.199055508299077 6.448044502700746 1.974049555591884 -0.37167378789948247 -1.5870003136775959
P 2.4311719989370104 5.127587770044662 7.736010267329201 -0.5689995277702716 -0.47634159782321833 -1.237863787648681
P 2.4922877328471067 0.050893532613302254 0.42394579397653775 -1.3140918541744853 1.6298127808574319 -0.2204543554684526
Ni 7.8281020871763936 5.512925446349466 5.421597573176149 -0.14448314214846086 -0.41554195003734246 -0.5784282772833393
Ni 6.670648526212701 1.106003332416507 4.517313337683586 -0.14452248002682852 0.034527858573540536 2.135882501872702
Ni 1.0545902788899486 3.9998370505616063 9.286269966241578 -0.8719788385168338 -0.14825855003049307 0.17660521949398617
Ni 0.8811734545445359 8.25187873480908 12.490833882420484 0.9212835982892327 0.26711550697041736 0.8029940838170042
Ni 2.2056683238161825 2.6315639476245845 13.607382838813235 -0.28768818891544645 -1.1960453089509981 -0.2801738828162723
Ni 6.483147015927393 7.093244866940494 0.5856654980817972 1.1547130258611145 1.694643918400204 2.0712593665756778
Ni 7.001877959995519 3.287470717804787 3.8511787899534955 0.5550104125800313 0.5285769009788509 -0.7713330052682974
Ni 3.064866694292832 2.1904172716041286 8.640389299124363 -1.7218099372920348 -0.7770058872833586 -0.6948629979350163
Ni 8.815210409873945 8.760293610653331 7.95756502588397 -0.5579846647170068 -0.1617064480052828 -0.730729115704006
Ni 6.800761098405728 3.5800845989117467 6.48523346396006 -0.8176012922072178 -0.8769395249562187 0.6490757643975725
Ni 6.232921952089891 9.20506485118488 8.221205625290091 0.7913498147098565 2.055931477969356 -1.555121205580812
Ni 9.185129746373875 4.0115750633244485 11.921833946085581 0.22922438835159878 0.8093333957714708 0.23872281476033724
Ni 8.916530928591685 6.602004850625723 0.8387985779078143 0.70374410247473 0.14404476905946162 -0.09625593171095681
Ni 5.190051098452471 2.062897657099806 9.532540537259928 0.31065456790363266 -0.9542471976994468 0.3827734973570698
Ni 0.6154166670892482 3.280240176292917 1.5230280669278917 -0.7315022464246047 2.2059118957869623 -1.590061726211739
Ni 1.4766940505944393 5.5469405902227855 2.6950198490831236 2.016259870411347 0.22400941980956257 -1.2056442654933428
Ni 3.4206688167098194 6.197745088821991 5.526417190710368 1.2239659466206663 0.9719677549076617 1.3891384987976787
Ni 7.263850330351021 5.677489968908175 12.471096734594317 0.4566207223555233 0.40120290770685096 -1.4681356434281876
Ni 0.5068553837289654 0.6197354751105412 5.970547162136106 -0.22125988208888342 -0.720801572177649 -0.40451474568890333
Ni 5.603725434229886 5.079501880864182 4.6033893098178815 -0.6347601191058487 1.3606028532518308 0.7019497295784685
Ni 5.3204146020347265 4.049335590525896 11.094266871284573 -0.4707988136281182 0.19041307191135595 -1.2312208284108666
Ni 3.9903853015672985 3.705736168629583 6.837574591956713 0.9664020878944259 0.5264164029924224 -0.35012691496664217
Ni 2.573951959408544 0.47732912359630514 11.72110463408582 -1.9787629019071538 1.2314154609201762 1.158636786395553
Ni 7.043662683179795 8.086914580778636 9.783775832282958 -1.0038242372966262 -0.925780971938954 2.0239886065141723
Ni 4.443074821492307 2.5219069305313333 12.697358780135927 -0.6510208039390853 -0.19053391375993636 -1.937627565319424
P 1.1675558728189652 1.581657721333585 9.929375518069016 -0.5066459052337146 1.2298663712655011 0.508822344059743
Ni 8.85940221564379 2.5808479257347745 5.327850535535558 -0.7909618352428184 1.2216146727796704 1.1924295665752818
P 1.3339605588986894 5.145004267208215 -0.02964336144763406 -0.6385753790868809 -0.9395201759019175 -0.34463118195939363
Ni 9.330930177271318 7.120912376041826 3.5732285957326897 -0.08245964925781284 -0.00404460238301884 -0.22764033169393053
P 5.290581647981898 3.536245955837853 0.7428991065729442 2.476485536509309 -0.3281699510795768 -0.174759424534499
P 6.071786825183984 3.879743146427443 8.881695146138034 0.48250993141745935 1.0653167973844686 -0.25829070958993583
P 2.717856464254031 7.427708527517825 3.856334035938886 0.329574030515955 -1.006583802319634 -0.2685095591044666
Ni 3.418940178250683 4.295880327321368 9.576421931607541 1.4198004466579095 0.2929949458403406 0.0036517378199743557
