# total energy = -340857.21237256133 ev
CRYSTAL
PRIMVEC
9.41347569590545 0.00000000000000 0.00000000000000

0.00000000000000 9.41347569590545 0.00000000000000

0.00000000000000 0.00000000000000 13.77757320966240

PRIMCOORD
 96 1
Ni 0.3497793398504812 2.7345676173959235 13.056730810521316 0.18242722549240195 0.863149670260978 0.061114865033449574
Ni 7.992276188435512 1.3327410596935578 9.400975524731177 -0.29523103425971087 -0.6982362852826233 -0.45821763452899794
Ni 7.424784807121846 8.623854512172391 3.608704851650933 -1.5593879512769662 0.09509379308205558 -3.3860179077998844
Ni 8.616512001142704 3.6123836379463192 10.104761796359616 0.023524822594817547 -1.3678520786150765 -0.2302050070973132
Ni 1.8197378104753636 5.85415580354212 9.140827534906677 -0.7565288503759293 -0.939445356799924 0.7258805293624531
Ni 0.02735179493315064 2.6763735107478173 8.040660512078443 -0.056921909998024545 0.11053275334494511 -1.1249987866261335
Ni 3.0424070990533756 8.192321960091757 4.7584705364847 -1.07160597282729 1.294740446231067 1.3757700479105726
Ni 6.437405343142574 5.66775015814487 3.582665295227447 0.9069712954316186 -1.3264076954273607 1.9224966232152567
Ni 7.364755072716319 9.240841948606688 13.16966521959087 -1.2891231000442895 0.3927095255238591 1.5630512590611663
Ni 2.452690501661389 2.2006258634025184 8.246345897014027 -0.8290758685057205 0.1444278634304932 2.3881190348487578
Ni 2.402196618118775 0.042844493205789445 0.3527182269574917 -1.3447563731378775 0.2599678401820426 0.9198795188528546
Ni 5.68299998874499 3.2076230106970036 1.7708037398527738 0.1282340272794501 0.7567869891333224 0.5391171383885424
Ni 5.411327080646584 6.222034433080779 9.200015704586493 -0.24394215417774764 -1.3984713461628302 -0.6797078874611326
Ni -0.03732537241514166 6.347111284428787 6.776279171418835 2.2343030453351456 1.067089315903859 1.085888707998549
Ni 6.980176937322962 6.636170882106463 7.279463334978396 -0.16282410654949378 -0.1682715028173102 -0.022397136748277556
Ni 3.4497752590657975 4.6923728756564325 7.593550540444058 -0.6835586286657905 1.6627087602545043 0.5389176207832267
Ni 1.8317399919661976 1.2898344375482864 5.642550283751958 -0.676185733240487 1.461672147191031 -0.5136274787578703
Ni 1.2395194100435745 4.086540407901853 11.186121636128606 0.46539692588625653 -0.15099137558062384 0.8556561900974102
Ni 2.634031697143291 1.3348026108672775 2.366766178357833 0.18402182367303146 -0.6951658738874157 1.8199810837478334
Ni 2.267461540724025 3.131072626474681 0.9951003967312572 -1.292123063212878 1.1509291333386502 -2.5421160300249253
Ni 4.717469201816876 9.324480680015363 3.3435140629051454 -0.37202474348099795 1.7544614047784688 0.772258088185728
Ni 0.7569912361666307 9.18946319835024 11.388486888192176 0.8081257486166148 0.8248569453283665 -2.7850942776275063
Ni 4.563765970928769 6.777071786071015 6.308971646367405 -0.6163867588049836 -0.34414524346191055 0.2858763325176883
Ni 5.238825138827343 7.928104524731186 1.5034911536889204 1.945077079618934 0.75185535615966 0.7672418659180593
P 5.431999073237855 1.7711266220685664 12.105210099446383 2.5932470443727853 -0.8491307302740667 0.43975814227222976
P 5.562507500052695 5.00725363712184 7.13247097090191 -0.13842048089414868 -0.5669629569562171 0.1270027259755103
P 8.232470433863055 8.004532533769682 10.903102665794199 0.302393356336105 0.3668174882484457 -1.3032176304641427
P 1.7879861570098083 3.3575890917405142 2.898814882392174 -0.27010261462319934 0.8940638433413313 2.220003855103654
P -0.10846583216469402 0.7412763798679655 13.522977436863712 1.1191281867779694 -0.16086621149217456 -0.8376150163249833
P 2.220695393550329 6.13453617664368 5.771852844332308 0.9934611488947471 0.19282193846316467 0.33030370959312794
P 4.695309880068308 5.7428414536369345 2.0854698740726985 -0.6172156824641822 -0.15670128148120754 0.949366729678694
P 0.9818443402799691 9.172688384690108 2.4281731042552113 0.48946502257905383 -0.4029499723049447 0.5545666401743933
Ni 6.39329379611038 0.35059360549672214 5.2690395717145035 -0.6440196900309038 1.0032683647931562 0.16699032211204143
Ni 3.7673106206727076 5.303429822412905 11.080034589268015 -0.20820356312555757 -0.16933851062924385 0.4682045705383807
Ni 8.333364066191493 0.22381573909350322 7.061584674995692 -0.39028240413960524 1.0724824618949724 -0.5597127031517071
Ni 8.414357610934344 0.3857642333289211 1.69302960379217 2.4574981967735288 -1.1928345153231843 0.2832815752073186
Ni 2.549103319566582 5.6989275895940015 1.4211703088753183 -0.8458973109384335 -1.5117490092427641 -2.4787599343657827
Ni 9.409399644116391 0.4673884809422709 4.561052065890488 -0.7065736015037251 -0.5772468553807284 -0.7731762291246232
Ni 6.670454760529693 -0.04323985918431104 11.12511478294759 -2.3735051415903254 0.023765734961030037 -2.441472510769234
Ni 8.474490893572343 4.001188423919585 1.033710708576594 0.9093259117067243 1.3804671962759256 0.40359994718411785
Ni 1.233692468598221 4.191152363123529 6.00108415598399 0.8555692868105589 -0.6436489369550463 0.29263679116997343
Ni 6.283692698778789 0.7377190274088391 1.7490350773448888 -1.8652659237275615 0.17598198408769047 0.6102634195160651
Ni 6.104394227519248 4.105772138714224 13.26810570015734 -1.4703953859966419 -0.26388851539268743 0.850075096465207
Ni 8.02686129808047 4.320258182062186 12.139708605115095 1.0859159616920588 0.7837624892809018 0.8311569194044652
Ni 2.0302607805624304 7.418835490492664 13.094935401564884 2.0528191575926193 0.22176227564659873 1.94362492055344
Ni 2.6201844744193563 6.010974894880004 3.5408911142063695 0.1968716830525061 0.08031612055224877 1.8638793277926802
Ni 9.369637122847934 6.700173103248565 1.2158238090641806 0.22067804144348446 0.39437945702711436 -0.5616595424654327
Ni 4.92635422713578 1.1715447021648986 9.388479135767192 1.3732382826276543 -0.20803978385418365 -0.21152645685120341
Ni 6.969163170778431 6.6835394917236215 12.648597334936182 0.2968441443831017 0.15951689655313173 0.2982438529441057
Ni 6.734174577401422 5.590776167516989 1.4094731239964868 0.4467821389985467 0.7772473138702033 -1.991306800010435
Ni 9.176519669291496 7.934336245630741 12.740328831386167 -0.7576300538599081 -2.073930485649938 3.834435525519326
Ni 4.162780147426766 4.849135486140243 4.761061124991583 0.8194350029818469 -0.9800690438585572 0.9490952211848621
Ni 4.806868980341149 7.138210367023448 4.000098343435947 0.6246762525072855 -0.6231323050589332 -1.0295103292088204
Ni 3.7265973383606625 2.3558540773506373 11.189069936711295 0.02503534570207301 2.215745336937616 -1.3905824303330567
Ni 4.1193369571677865 2.6834336175071316 13.720354488164936 0.9519319193027092 0.4338217221831367 -1.8464904428922713
Ni 8.653591681842622 6.012951724772613 10.359605292638955 -1.7308298814024576 -1.165358935610735 -1.101794066374896
P 6.107472434066309 5.1078931056069425 11.393047717158694 -0.8900256687162155 0.740214429486622 -1.9652242439907703
P 3.383043129976761 4.848881322296908 13.243085623149899 -0.2908475604800346 -1.712467062624554 0.1262488785286213
P 1.2484998658414221 1.6674371874634404 10.1459843477059 -0.5470929575051675 -0.026455108867735087 -0.21330334624596814
P 5.831036307274286 8.277551568890194 9.230161419101197 0.4895730089118278 0.7341193723324776 1.5394793852784971
P 7.6674077292745935 2.4084754063967253 2.2762894982158715 0.26194784672654886 0.5648929618010657 2.414023413419346
P 4.018499805693423 1.0295612484972532 5.280323505011022 0.6867257135398626 -1.239157309649124 -0.6524220551619861
P 7.3822547240037375 7.7028212247793135 0.9381422794398149 0.025031489047331084 -0.12274497914042087 0.42995478302856277
P 0.2756548083106588 5.2309931270623435 13.299615427297942 0.5201714505239752 0.2647287519057957 -0.139802705953656
Ni 7.433031011816725 2.1514686934063345 0.17750708683781033 -0.5276978408080073 -0.34160113688381816 -1.04850435381282
Ni 0.7587035473926563 7.378028073423829 4.365038085867595 0.3112191821578511 0.36714221857771606 -0.4402250546063192
Ni 8.099043829587698 7.793407101239153 5.384248276508126 -0.6933984975743477 1.6903558325478116 3.175037296149822
Ni 3.0862833091935924 0.2738944883586698 7.174643341944212 2.3172910562926026 -0.7107074211664405 -0.3085565477240234
Ni 4.993255798787041 3.7796611007636676 9.40254569247445 -0.5708422374059652 -0.23855003662789886 0.6398681297563755
Ni 4.115919865496278 9.129395810041995 12.562170332031362 0.847697597371966 0.5853139486595791 0.45183050005573155
Ni 4.335799830408356 6.632057193234703 0.027308492945026845 0.09472175445461752 -0.27351292585632897 -1.997227022149612
Ni 9.33281160599135 3.1277779099870013 3.9474120614076735 -0.8063090071228501 -0.691685371537983 0.16293980619175163
Ni 5.631056429947796 8.678320882451578 7.232578578011144 -0.0764620369134812 1.0294326818933497 -0.0007780158166051118
Ni 2.8077573908008127 7.495743586790792 7.9590287336845496 0.7902972050756261 -0.6450201062709602 -0.7727111165627466
Ni 1.068542451284346 6.4780527311248655 11.434999812870107 0.19255634350660386 -0.8522998720306676 -0.564591371400247
Ni 3.189106704036243 0.2535623222394132 10.292329064655666 -1.5221684048038753 -1.9988195634477124 0.29313712784515966
Ni 7.025728746134057 3.874153569630327 8.368979951423313 0.7743016009783181 -0.31975627309458476 -1.0226064030001356
Ni 0.48172049766367847 5.2205629960099165 2.9389219368704853 -0.30120087868990064 -0.11689957610323738 0.41596926738274814
Ni 7.790215932983942 1.9914396068618818 11.687170823404152 -0.41838147636866657 -0.31952410247912066 -0.07140364855396734
Ni 2.1629719606861766 1.2951718782583277 12.237075008106581 -1.273552756409858 1.254883462135129 1.0825676140451161
Ni 5.012412221793979 7.361827481780122 11.26950337965124 -0.05691111136474714 0.31443974597767776 -0.059361115567136476
Ni 3.5987529251630037 2.820823295043383 6.499748909870021 1.4719503891885874 -1.0064267079164797 -2.595809148673007
Ni 8.230606565678597 4.528926697440473 6.128526613770152 -1.248361344745895 -2.3931481126322334 0.3727829618032612
Ni 2.9776517998569467 7.853728653390732 2.071939885479149 -1.2334862274062757 1.3189514962596318 0.5415671425909319
Ni 8.541806658153483 7.899073365736887 8.600636174409926 -0.08270081873434143 0.23900795010092388 1.0218019048209694
Ni 6.652211444663625 2.8863504992454967 4.730281883563679 1.2810156404458066 0.27338617047047753 -0.034667983695830615
Ni 1.4295963109556677 9.169205398688847 8.706984915894393 -1.8702219821812565 0.8863081106553122 1.2415612911049263
Ni 4.588071565132166 2.50702508328107 3.838735367387768 -1.023752857899753 0.08641914812619311 -0.12181295424445471
P 9.251083810145532 4.872603281008202 8.528400927438897 -0.15316267220032978 0.7438391707234028 -1.4475413642166037
P 5.8797322169621955 1.6665617342252854 7.638024506289897 1.12005661212951 0.4259628882603503 -1.1589941697349717
P 2.7704800271116343 3.884028305617688 9.692936355613147 0.606280266498601 0.07567065136043742 -1.4242368851627085
P 8.419102002676604 5.9678611762697935 4.639156614947427 0.3151203169844702 -1.5442626655997533 -2.09979604056279
P 4.303737532245391 0.8813131267651761 0.9935481145917759 0.10403120478100147 -1.6798006827397844 0.8616077796951549
P 2.8479529319505072 7.405901374909601 10.673926893649023 0.16378724179371146 1.0242742776208618 -0.639705378926266
P 0.9259678313440537 8.853919857769238 6.64737574220728 -0.20037146867564845 -0.5952144956027425 -0.788759685385177
P 8.745514271848892 2.214134201002006 5.88985735140262 -0.011206924459412957 0.0763414521752169 0.02913137014831757
