# total energy = -381172.44489735016 ev
CRYSTAL
PRIMVEC
9.21450384049556 0.00000000000000 0.00000000000000

0.00000000000000 9.21450384049556 0.00000000000000

0.00000000000000 0.00000000000000 13.48635778688541

PRIMCOORD
 96 1
Ni 2.391513936657862 9.189624829616033 2.014955859487379 0.8479742480721203 -0.8992245616066643 -0.9872791884537513
Ni 0.23738958050282366 4.469209510915009 8.146340258816087 1.4501628609998507 -0.3341670492032761 0.7509171606161068
Ni 6.586932890506412 8.92590572541107 1.7101244028284914 -2.73927336263865 -0.25665960174441604 0.927594370998609
Ni 8.202502660637515 5.720511509298013 4.090546841033121 0.22425264616862026 0.25560596366892113 -0.36563966589026065
Ni 3.8109069168335608 8.815175030958551 10.364104586780755 0.5015204110816911 -0.5737501550813797 0.0004761683054701476
Ni 5.559101042898349 1.9491163855752438 5.000350107028277 -1.85494885807227 2.16826940284384 -0.41709875300150107
Ni 1.2581575893518528 7.6621641466410395 0.54400588658465 1.0201294022145528 -0.4800478430302119 -1.3444725233488715
Ni 4.687759116559081 7.129759320580292 2.46763956137447 0.6469489478625567 1.2829208278883195 1.9627307881449554
Ni 8.423696828926829 3.9811172345440466 0.35631749770519233 0.09941350350333202 -0.2747992487679202 0.748562287230685
Ni 4.1435597253906336 6.2304329456222085 7.227042367909234 -1.0880499773159262 0.1114894608312596 0.9013637194368541
Ni 8.894419765275906 2.0163822647050913 7.882155822159608 1.1399399813169981 -0.027837333927242382 -0.32978280409265137
Ni 1.3780475007708182 6.465301437833262 9.821170347010186 0.9369930386046895 0.04230853096022391 -0.23723337469900435
Ni 2.5774902706959053 0.08855138334764874 4.243320552842592 -0.2618971959942715 -0.521440804154702 1.0642474755796898
Ni 0.3215548599510467 0.6482219267159618 3.211601106000984 -0.6400383367856526 -0.3217743319658781 1.17274700054469
Ni 4.77983965493505 4.176409432116374 0.7029247511053116 0.17786120338827432 0.20067871550342212 -0.4486199635382338
Ni 4.323334698243144 3.6693997790531405 6.669718758707273 1.1125693026135293 0.5262048012022486 0.5800606706804398
Ni 8.506645793848321 0.7273772803446098 9.916869421103183 -0.45877556391499696 0.055120338012911524 0.4162598020399735
Ni 7.347184756737536 4.97707611284935 8.240758516854417 -2.3014348059866365 -0.6105320997964194 -1.1095528843847084
Ni 3.683378181606562 6.0068061482794315 10.062737783622254 1.2536665590088922 1.4832665855323552 -0.05321155102597288
Ni 6.177578550733331 5.269000813768898 2.7616955770669955 -0.2244382798168651 -0.5439736951498954 -0.04738491704186678
Ni 6.19479124418738 6.921760322005216 6.266139148584971 0.7300248905481299 0.3170059640429572 0.009816471869789546
Ni 6.1704925971647215 6.326171642082362 0.5377602957799635 -0.30105741113350093 -0.8357180564125866 0.2913206434617112
Ni 9.04356572686436 5.699502440199923 1.8746982084480555 -0.40322122368846036 -0.34885550445338626 -0.13716038323480248
Ni 3.5475287492762413 6.406079820687025 0.6654023694060441 -0.8632553426009069 -0.6150045337454764 -1.6421934139099719
P 6.841658638816755 4.891418083754683 5.737515033511479 0.6655735049422795 -0.7057572762500167 0.6867421686000947
Ni 1.1561346011702538 5.3827170075143025 13.305640559678594 -0.06256265322356966 -0.01635607276052022 0.1815471368802938
P 1.876644311690826 2.5168956924551007 7.799888730533406 -0.8740609178568431 1.4229490195892203 -0.3992804938731575
Ni 3.5129743593122784 1.8649971786469728 11.567437720290584 -0.25196708136475315 -0.0842697058833581 1.8398042891213473
P 0.6224941101243937 8.22740946492354 4.6495972482828805 0.36960404985464734 -0.5853345174848694 1.0950060969187851
P 0.25644148895335417 2.7019229325821335 4.090426131030847 -0.03196241183920947 0.40665287507782866 -0.10935441676612781
P 7.053868665715439 7.314851062235257 2.9991367587921656 -0.6646620488716037 -1.354864408106157 -0.9424208944884802
Ni 2.4689710572010815 0.020051682133487868 12.695032238251402 -0.14558948783876216 1.3062769861157566 0.7224689325777428
Ni 7.279697729511919 1.2553655946427646 12.142374853870177 -1.343828976227602 -0.7402437400626606 -0.28088556417131627
Ni 1.4169327076102645 4.610771935719373 3.5013281477188243 -1.3357060900101514 -1.2713045838056298 0.5375014571619904
Ni -0.09702504121721146 0.41913922156047484 12.896747866555433 3.0796529684105414 0.07038189215767233 -0.019451423856392307
Ni 6.806247299981686 2.8182560454608083 6.95985123860069 0.005059673911094511 0.9753904074359655 -0.6964144015825361
Ni 2.323400323160899 4.801318663736649 11.47035002044624 0.7949892112346566 -1.231707281128982 0.12341757972741325
Ni 1.1139137438862863 0.4080818167720067 6.477794462343432 -0.27807689107792755 -0.5546995662078318 0.012727731979313565
Ni 5.393811270318732 8.234817926131813 8.049535444244245 -0.36277931362333005 0.9490792803452621 0.6705141367770064
Ni 2.3785214860314126 2.2225475769860794 3.193286357869685 -0.2181056527306179 0.06086932468154679 1.419574960910665
Ni 4.3174834882092465 8.731562621749752 0.7373169657990436 0.4181917289553636 0.2420410805002928 -0.5417700026303574
Ni 2.8621262989590557 0.7768287589098363 8.355405375502851 -0.5713346036613515 0.1386513659580322 1.720085241291444
Ni 2.0309319665059173 3.6677964553588125 1.4331548418853461 -0.060327079024831594 1.4614996261689088 -1.2697704065492905
Ni 8.023013337408706 1.4390843752031623 1.1800711181860901 -0.5846174368131867 1.012993819611036 0.3792577708943275
Ni 6.175026133127994 0.25078931220564893 6.069508083582839 0.5592637885397466 -1.5586986385194253 0.2598464841128299
Ni 5.712780540450075 1.7332758441043465 0.7571521070887572 1.0147971913683618 -0.2089376130781047 -0.04161716132015413
Ni 3.276907981582475 8.801168984893158 6.547518771137917 2.0001675928351745 -2.4436371225207205 -1.49313782189948
Ni 8.644181480408882 6.224203940924706 6.259395974564803 0.005852602126035082 1.1970498389561126 1.3609895471672881
Ni 2.7054705166184334 4.37379332209452 8.695423337099442 -0.7691557951113206 0.5353705268619167 -0.14521153567405315
Ni 7.647338009720502 8.215918978447522 4.744946171224241 1.024548614328171 -0.16721066565296364 1.0608235374998054
Ni 1.0184146245298835 1.5735239884229535 1.3535046693924144 0.7533427393384639 0.9346229957106162 -3.0670571340234014
Ni 7.38744292467155 8.187897671812747 13.272922620359914 -0.031051212878849748 0.26872835998349204 -1.372190300979114
Ni 3.577927397940538 1.9396530899771132 0.6695212526897485 -2.440858788444635 -0.32005940615730044 0.02607201449670348
Ni 7.288027641119232 5.817015009589367 11.660952035487457 -1.0792730024542445 0.3785275775965223 -0.22532659595908935
Ni 8.358319923115012 6.704703466007587 9.186987638573983 -0.0677385409975543 1.7815814009237123 -0.5345549729391568
Ni 7.0814661051666565 1.0473297380517277 3.563851321644818 -0.16345196994147979 -0.10465469729761331 -1.241440706366662
P 6.7004832231799885 3.3462286951021794 1.7633013053570326 0.9578040618127697 0.5599965529407129 -0.1344177874926588
Ni 2.1239800278008767 6.34312632942468 4.808035115695245 0.8330142843281783 1.0636412094542584 2.252887236095236
P 3.9256919930418506 7.691106903674855 4.622746183654884 1.0537923416846369 -0.8480652651240297 -0.05876641940593105
Ni 3.987548958329339 2.5292339132982327 9.58332464855984 -0.13379918007205344 1.4083891194971745 -2.1193094280053693
P 3.4103247848593328 3.811754651200677 4.590365495182255 -0.5071058755892686 -0.7341229718769035 0.28505460794734133
P 1.8822835881329447 2.8590302256182842 12.868143281818064 -0.6244744209091245 0.297944576536132 -0.6479897304222453
P 8.371966603524779 6.301826922539752 13.371035894498391 0.9685710705212865 -0.18096118246983675 0.558654951311154
Ni 8.659901424216487 8.119332547620255 1.6940349574108713 0.5420322551528084 0.45772064028792137 1.0985251658156372
Ni 8.871226858732095 2.8647985051162683 11.744500864618725 2.003325678848182 -0.3682141114856562 0.3736887614469822
Ni 7.20175224025721 8.256619442573076 10.965204461540262 -3.9341511336441086 0.6833521690819393 -1.92527778550482
Ni 5.329567748497732 7.494294312944113 12.16233439096376 -1.554183267147575 -0.2716666166762095 -0.6509344148728661
Ni -0.1703881576375002 5.02881555275539 10.510350743963434 0.2492661374938223 -2.1099521551601854 0.7892083428868215
Ni 4.893472918144541 1.4279532543827709 7.547127514473813 0.003184054154936452 0.5307301998764279 0.4722167770215674
Ni 5.995822459522887 6.433253392954685 9.482460844980231 -0.042650230570358806 0.5370337734969525 0.2959506860345549
Ni 6.747827344682612 3.3845702462061924 12.416107359561497 -1.5246204658887936 0.8485620022547903 0.3829843278162952
Ni 9.08799806510602 3.980407717736787 5.901698144161851 -1.301086700164069 -1.6564170137085215 -1.347351130448247
Ni 3.020551266065832 1.9055225671967084 5.898178203637522 -0.6251249100089298 0.26747057631699095 -0.37755287238807883
Ni 7.621482111523468 3.0211778523371784 9.694047971409166 -0.07433959125383972 -0.1020152027922372 0.09964027480215742
Ni 1.4509710853507654 6.663634421722419 7.397860842883086 0.2581528984604909 -0.9593228124501415 -1.1021553063690568
Ni 1.6337592010081334 0.6886754421345724 10.488542777369377 -0.4199812167556186 -0.7311806014191278 0.3610029384491976
Ni -0.0733096722971445 7.845053621842303 11.314730869804535 3.845993919780886 -1.1670602345725578 0.6477557600345684
Ni 4.619885080165869 2.874455305298197 2.8134562103322143 1.1722140108593553 0.8724069271931878 -0.08355699608704964
Ni 1.3576373744321042 7.080728944847426 2.867549956007799 0.5853900533131532 0.9685070500525709 -0.44119127517433043
Ni 5.715286885535462 4.290724568621154 10.575974598482194 -0.27373224095598664 -0.7332917342248597 -0.7584227249645326
Ni 8.454961640966223 1.2441146852704983 5.389122009238022 -0.21933078338697065 0.9054054936063956 0.9819549480273604
Ni 1.4784855942660704 3.0046562466824094 10.187203617722847 -0.6039518754757405 -0.3713331167306121 -0.5423369308774209
Ni 2.3941953573190657 7.2149934824914 11.860726167800712 0.2704923938624503 -0.9948351464241384 0.014990816981877408
Ni 1.9974096009888782 4.579663770247816 6.44668168961988 1.066163204545164 -0.9512927430568133 -1.0446122178472654
Ni 3.6221754461023914 4.984705722153392 2.751190121067552 -0.20493337701471803 1.2999965524236836 -0.01074721121417504
Ni 7.293215406865821 3.396650460937594 3.9761966894131784 0.3759644448550364 -0.011537054105322065 0.17590819342696157
Ni 4.862189677097166 5.419694812027737 5.000876255206128 -0.762228728974184 0.46941838834082383 -1.170335305779404
Ni 5.770131613286263 1.3299385754369915 10.336174503735485 0.5939703387829964 -0.553956260283904 -0.5084413065712404
P 5.1860887068633685 0.5806786910160034 12.426437739985124 -0.6522065967170703 -0.6696965259717175 -0.7229965229464388
Ni 7.986671333670608 8.448594418708863 7.315755926527113 0.1943705138972072 0.03449623400465672 0.17947739883545866
P 4.845935292058118 4.551052735357654 8.626508061755315 0.9601460796823852 0.27550604502695775 -0.20457110857929284
Ni 0.7897170856411948 8.437048645208904 8.674681488617074 -0.5830290092801443 1.6248050432301953 0.6022027539951177
P 2.883052437521231 7.7626114546402825 8.51939958882142 1.388545602408686 -0.37648997834120324 1.0470316259220356
P 6.942152019335949 0.980653587177265 8.214554310406546 -0.24998887459245983 -0.3604537508139469 0.6572798974749197
P 4.626344447463131 5.187148374822263 12.153851518590209 -0.40471117797042555 1.1442861741008357 1.2518233351525665
Ni 4.7552737872966695 0.669933141018119 3.0564942817811467 -0.985763008919541 -1.6918213613497446 -0.10023522807367899
