# total energy = -340866.4209821455 ev
CRYSTAL
PRIMVEC
9.28488295412507 0.00000000000000 0.00000000000000
0.00000000000000 9.28488295412507 0.00000000000000
0.00000000000000 0.00000000000000 13.58936473371332
PRIMCOORD
 96 1
Ni 0.568019428575112 3.787080926911875 11.250648682684666 -0.1421814905984777 1.2802039431777887 0.18276609688905943
Ni 7.691114239733639 8.129314291576861 6.573284895067257 -0.29986004839129005 0.055685723598078295 -0.5412511540124098
Ni 7.080001812310879 6.594996665407975 1.1887092127830463 -0.7141403581073895 0.0065406293319951875 0.6976739850212501
Ni 4.132357869975629 0.7608005252255121 2.561622147327357 0.7553980792055958 -0.2267193625415579 -0.22427501476612344
Ni 3.2235813793673227 3.2410369593538735 11.061389342145384 -1.3765735176484744 -1.1897715601271446 -0.2304024678201
Ni 7.655840969324646 2.9809673873202125 8.311568187914096 -0.3457984627946174 1.721390847476745 1.5612638281434401
Ni 3.621902858847654 8.082472056985292 12.591538055860033 0.567496460862184 -0.07941726288706322 -0.6262014309025603
Ni 1.4618583994587575 6.328539093889874 4.337616920851522 -1.6373147456614316 -2.185163093275385 -0.9854760738067415
Ni 0.6422195708424095 0.9802515197234483 8.604731868323322 -0.2620298649173939 -0.16759735956842103 0.5005914715095185
Ni 7.544682350389016 5.6435839921942215 6.712208099552771 -0.7859615538147495 1.087759442658701 0.22910020406890866
Ni 2.384775766832764 8.041897118399534 10.682476982028822 -0.07133988519556746 -0.221414919609509 -1.208211769110203
Ni 9.513755336818672 8.192795036453482 4.876149418085523 -1.5403615307731342 2.065664388986404 0.40697991939994427
Ni 2.7881575075326004 2.9396589429796998 2.5723304028584675 -0.31336785306973775 -1.9938388224036692 -0.8091079100242258
Ni 0.6818725205490914 4.198187690244057 3.2161265468294498 -0.6948830525396742 1.2330774220036311 0.1531279623076524
Ni 5.779004010334563 0.7536075263874372 11.628582416136025 -0.2887073742085802 -0.00351058425641976 -1.1706546367920354
Ni 6.632619011208775 5.0997312570175115 9.042757364366677 -1.0238245916779527 0.739340768632417 -1.165607304176115
Ni 9.136640530045405 1.5766102681043848 10.782862351252538 -1.1257222950557193 -0.03828604006439213 0.1608556699692133
Ni 6.932641434669099 2.571318350614567 12.637891905607297 0.3060270964339504 0.6172935868899692 -0.24010658248174133
Ni 2.7849077984925508 4.113212441288253 8.41124604905538 -0.3738779946396529 0.8735073593462183 0.2298363109039848
Ni 0.002372287599236003 6.252161646565744 1.1224309326670918 2.1413039299985894 -1.1183830810818287 0.6953939307378217
Ni 7.813609700777555 3.1355699736798157 3.4483962507579347 -1.6263772728133217 -0.025257489015208114 0.899214277194019
Ni 1.0961361440916069 3.905286772022926 0.6224938369693102 -1.224325386842614 2.76056723902042 0.5929143867146562
Ni 7.9805333268404315 0.14356100352981305 12.65701226511065 -0.9098835839824071 1.701295619388767 -1.3216516687996143
Ni -0.23867534469057086 8.81169748068939 0.8221011795804082 1.0556214244735755 -0.2934950254052107 0.5365180102027985
P 5.62949882472635 3.776811846345319 7.507798152784456 -0.15511645349259093 -0.7777080555567057 -0.627986547827441
P -0.257435450734627 2.5932399593104423 13.03672591062766 1.1351590149885868 -0.4495237062994258 -0.07267788728070064
P 8.57271387788416 7.205914110288332 12.88949923530067 0.24952530469247994 0.948283009696212 -0.8047552894824851
P 3.4938178982548527 1.1173613865646148 11.558229929372146 0.5357001422871935 -0.9690138144856604 0.4327354310974934
P 2.334061736042052 7.82009054909171 5.234297065924467 2.470671500930693 2.354467408232584 1.59841369772086
P 1.424301047838759 6.0108382532516815 9.936420850962161 0.6592532191512066 -0.33822553554336593 0.6088038042514031
P 5.951962810328959 7.070336249137474 5.552749982083357 0.6499386266185001 -0.03243060972487963 0.1869485104015232
P 5.867832485723568 4.3454923585880065 2.832145569098708 0.0003337291903349091 0.1840138532532315 -0.8690794054818517
Ni 1.8732901336949443 0.5450449141502605 3.739630532485669 -0.28362636014124704 0.08045161768884854 -0.09907128967256486
Ni 4.783738834846086 8.182219554748864 10.365029618695752 -0.8424995981107942 -0.21803931826905673 0.12421487881772801
Ni 5.3015938977024035 7.8550202788307555 0.4159599716614214 0.2722831672142859 1.0086239726781145 1.5874376583253305
Ni 5.706312661550146 7.9102560476286214 3.214197148147958 1.0341545128490512 0.4348982430767671 -0.03693466824282027
Ni 7.562945715194094 0.8848874152107553 7.6698509292404475 1.9913991026139253 -1.087534214021772 -1.589921858199765
Ni 4.617316592463675 8.80466882427991 5.830911148587122 -0.27807354864381784 -0.4753509517751749 -0.4263737505455237
Ni 7.780982622015459 1.8833178073042394 1.3310696809446354 2.630247789966851 0.0026207254522987123 -0.8433267219977798
Ni 4.700722696197284 5.577429201021789 6.719479091407807 0.2121358083004282 -1.4018310066636825 -0.0018105708461775268
Ni 1.3916275446618056 2.560408613122972 5.249694187356221 -0.2522157070404495 -0.554993957519799 -1.1007347718724463
Ni 3.3291504987540677 7.607791699946775 2.7407711787988984 -0.20834086003437022 1.2873570092828022 0.6847937866244722
Ni 2.4578570807019875 0.1401562369441385 6.880282122615824 -0.35161044149070414 -0.5360796371137994 -0.06440484863863102
Ni 0.46042156225907904 6.836942145881133 6.799465572742987 -0.3664192243687625 -0.6235043436863714 -0.7274077646402569
Ni 8.391472962279124 6.131643865594772 10.499523934003825 0.04093736164431014 0.22360292839976326 0.7250438923937707
Ni 1.4921364028290454 7.2655601984976945 12.800339289589578 -0.8453190698374603 -0.3176060595208014 0.9531876460866808
Ni 0.06585396096415372 8.351074436469826 10.88232294613229 -0.9928710807192319 0.06465604541748864 0.6275512600622354
Ni 9.006355052188344 5.106072832087093 8.477996929714587 1.93131267884499 -0.5134796403260963 0.22736316677314392
Ni 3.655374861960162 2.313969249291575 7.118054976681559 0.398257709035598 0.3126304606830809 0.25880261622934786
Ni 5.771232563287359 4.6882623832494374 0.09742442004408429 0.09538587040117766 1.1405087093362745 0.22901638610585073
Ni 7.739479195132544 4.170945843605472 1.1920981950676692 0.36624978867043373 0.5031600035676431 0.8949688716541039
Ni 8.227260522043947 0.2007939506548645 2.9288346264114438 -0.652823918586095 0.23394750485888097 1.189596725112177
Ni 2.9562417439669226 1.0933228245512214 9.384244218201438 1.0624515600215316 -0.43824221984833556 0.3381813125689918
Ni 1.0139834995591601 7.916393355272829 2.5279068802809936 2.5906335180093385 0.15235380314578922 -0.1948040018902
Ni 5.747240425688823 1.5566477697155103 6.192795961822123 0.39313504309705194 0.25061468110191676 -0.5428449808620909
Ni 5.501692410622697 0.5579230468318274 8.378101802311768 -2.5057207792253426 0.26363140507655886 0.3352163164033969
P 6.63259115655986 0.1956891219970956 1.1643298955645962 -1.3905364075864697 -1.2475072242757161 -0.7632371156340403
P 8.09617654425133 7.142414795645769 8.551230515664544 0.028972475972950103 -0.20456596637297025 -0.9957856832628655
P 9.059585286264351 4.842159318503202 5.270377192663689 0.3222690122141095 -0.3757073345389078 0.15690748395474266
P 0.41966463996707765 0.9867509378035468 6.479898470627508 -0.15162078163450662 -0.46864808583370254 -0.04641766803259102
P 4.0509851556127945 3.434134670513604 -0.18440520372174724 -1.124387892515012 -0.712297648471696 -0.4627887988394481
P 2.916298177423231 3.8706448736560004 4.489749728340688 1.629515561331987 0.2648603923876535 1.1197645348103877
P 8.492121093690939 7.3346582975721155 3.0504730927570844 -3.335031903670321 -2.0248949203785256 0.5360418418973284
P 1.583313953609858 2.7825587231007436 9.58877811971725 -1.2373336261768237 -0.13924451945734084 -0.6393171423489118
Ni 1.8761684474161309 4.899734877809904 6.152027897670555 -0.3879079903701577 -1.8449948321833514 -0.21223890953719576
Ni 0.9535203416482997 7.913060082286036 8.799344872384012 0.04289731358415838 -0.32422382194763516 -0.5954343249230325
Ni 5.784379957575101 7.277045598733526 7.842123576383245 -0.10378335043625352 1.131916339681573 0.5797680791406854
Ni 8.330053461422194 5.135821597128001 12.71041798347482 -0.7556932418485115 -1.3567546831503345 -0.25202878784062405
Ni 4.254686203126057 5.833069883878012 9.251068356275326 -0.22397085326214328 0.4406878531753507 1.0752415126973482
Ni 6.608357612004063 7.602109351568174 12.091259276468898 0.07646872178170055 -0.3428573778884224 -0.5284622297778576
Ni 4.391628942073735 5.966029408030887 1.6294598219785583 2.5688637304324144 -0.34692306331736383 -0.34097558748467727
Ni 4.939381328098506 2.900421027541847 9.41484812096403 0.6354939119480797 -0.20266823512962515 -0.9662030845097423
Ni 3.7462738662518267 1.8298925906858288 4.7308112879549515 0.43024506057547196 -0.42634906795517546 -0.07532200977176705
Ni 5.331305523211426 3.6952348645571096 5.049590103506144 -1.6010287667462038 -0.009969966728518314 -0.9404912815659351
Ni 2.547660468803008 5.172636158110274 12.107539390271247 0.4129003986494373 1.1085367844153684 0.47727079450570703
Ni 6.937163172676254 8.503002976533617 9.720703307907094 1.6259970066557674 -0.4725196529739668 0.8603978185474537
Ni 5.319068047454897 3.9794079927849655 11.528102341105997 -0.9873154410083252 0.917301216602717 -0.09479888754945609
Ni 2.1448822454963232 2.1261546365426676 13.80258205463119 1.8630272642050303 -2.0442288448204473 -0.1537465697282578
Ni 5.5993693794836075 2.5361472139182615 1.205502780613724 -0.9881119687676918 0.5300493717593194 1.145678169352356
Ni 2.71320064730312 6.549853564400204 7.310249268728156 0.6282588276522212 2.5852138896556633 1.4116065979932078
Ni 2.7531070743149253 5.207584457615262 2.8812579575768247 -0.005801694283441621 0.5582104075745676 -0.42159586954090617
Ni 1.4760735552882303 0.5037633959703653 12.179291108898942 0.35850948260338256 -0.2744824888584499 0.484578898131346
Ni 4.367376827751996 0.8717920162676537 0.028173120400633286 -0.5118439044948863 0.17687518532592117 0.138906933612264
Ni 7.334444745263769 3.4577368430273334 5.962673851324961 1.776387772537915 -1.152962104608279 0.3817743666685941
Ni 7.037569897130806 5.448982129993097 4.398646456623648 0.3369749509657164 0.7373319657325044 -1.3566418117215537
Ni 7.958491014665926 1.019164464257296 5.249177947863002 0.047995039822039925 0.2532292359066284 -0.4357533919882108
Ni 0.5926717213529261 3.0719128160267353 7.332222872768672 -0.14153357260183366 0.8079812526189504 1.1297213889127833
Ni 4.546203673784424 5.950588647649166 4.353897034653872 -0.585072264962418 -0.2640407246998356 -1.0271050622014375
P 0.38093739309266134 2.1892175616855676 3.0856962247980304 0.470220572527145 -2.36432527486327 -0.3461069951739717
P 7.153333818020334 1.3412106301261835 9.699409357300095 -0.25830382221605835 0.39807387515956605 1.564878542077892
P 6.084857340301033 0.7095906816841178 4.082503619348084 -1.1068935923849905 0.10733172990914419 0.47428934327987987
P 4.970504255819206 6.340135912721364 11.553324725698266 -1.4169874026891467 -0.7860795674498526 -0.021526046997233896
P 3.7899592406330616 8.462947991394266 8.458468963848782 -0.529822600460494 -1.228930489714793 -0.8463323415933232
P 2.2312130873659766 9.38441691702471 1.5119252739063516 0.8963675517738434 0.9799060359181316 -0.7333529264800983
P 2.3195680337234315 5.956447408804227 0.9304817615309444 -1.0243704368790938 0.45374262947677985 -1.8502447677283813
P 7.213017045761583 4.154437321682021 10.76126849892556 2.6621428389032347 -0.14780423610189383 1.245649602241687
