# total energy = -340871.0735723137 ev
CRYSTAL
PRIMVEC
9.25620918960145 0.00000000000000 0.00000000000000
0.00000000000000 9.25620918960145 0.00000000000000
0.00000000000000 0.00000000000000 13.54739778094798
PRIMCOORD
 96 1
Ni 0.5490422172032112 0.45004613659086373 12.561729861762611 0.0544042857824934 1.4667541896996288 2.144038298210617
Ni 7.747557986882048 5.861531358481126 6.554488187212301 -0.8099226926160373 0.33102079026481057 -0.2958897508896323
Ni 0.6186257681754623 4.741261642402567 11.90637453075203 -0.624207540400983 0.5510133756054962 0.3655846442826091
Ni 2.697268551628192 5.448732206807102 6.398272999576985 0.5427724757529426 -0.9823377852880759 0.9341242016973267
Ni 2.1385174968307274 4.408389855230755 13.474702149733547 1.1620126448463215 -0.346649497941003 0.9144560338444382
Ni 2.4257469175450503 4.664536926205828 8.782466018168963 -0.12396008249444457 0.7556773010089115 -0.2566156358803581
Ni 0.33997500193950086 4.477265306216392 6.277240662257004 -0.7244098583541975 -0.9226583671495723 1.7668952596664476
Ni 8.832348653958062 0.5288266568010301 1.1501459817883215 -1.2787191311021462 -0.2948029455833568 0.43946683628405603
Ni 5.098736433030879 8.846001562196713 8.669873492192712 0.42654652867796217 -2.412638360146361 0.590972175386621
Ni 7.853189843708829 6.541196271123687 8.951564923077079 -0.9789241316208366 0.5781799087179591 0.31261194874031967
Ni 4.1234282057153955 8.317768228391005 4.45153952461118 0.6654120396637507 0.6518368720824774 0.7149749381935429
Ni 5.875628564750596 2.8551424519118913 11.331476945017952 -0.7049342661280892 -0.27271125589064 1.4327780898645002
Ni 9.199820150279761 2.1394708863551894 8.197381048836606 -0.16760815820169844 -0.33277531106207203 -0.2172391909652646
Ni 3.6987348255080357 2.7852673303569166 0.9492603296379298 0.8147445394847129 0.47803749746840246 -1.258670182871071
Ni 0.26082053088673 3.0288352133344776 0.3084483541694328 -0.13599104551704966 -0.34046625194842656 0.8340129007960216
Ni 4.621726959694798 7.623774704254591 11.776210943277858 0.4729066039997404 1.2239322651692535 -0.36907285994152567
Ni 6.748535352171698 4.425976652283935 10.033650000269596 1.0617483633069198 0.405447799026134 -1.4448242223957566
Ni 5.826367020583743 6.519407155195695 0.35124165950430614 -1.8767055330230713 -0.7745785087887886 -0.43788740761207806
Ni 1.1992899721011878 7.547716435104077 0.5573524416212874 -0.2068038545645535 1.2724579806837828 1.6708941242787738
Ni 4.816644208297879 4.312671398216582 7.379877300237507 -1.3835882584034107 -1.2106334911778183 -1.7114849012169426
Ni 8.506918858802438 8.287676293012117 6.727705179493554 0.9896564304366762 1.700588308909097 0.9271817089412224
Ni 8.59458441400805 1.527987209025113 11.025332461262487 -2.0728655347205334 1.6769662986147829 -1.6247669909034081
Ni 2.736931407087599 2.4979268351348893 8.062232067208306 -1.0488637940347678 1.2605673998937839 -0.12403721558928316
Ni 7.6263849551856415 9.094132756199127 9.186449556414857 0.7342605258960322 -0.7075261952249815 -1.3846095005790735
P 3.1466204725459033 6.102396428437882 10.145442789790375 0.6229638978018691 0.5409588195829715 1.15289628436735
P 0.6832544704832044 8.447790195867853 8.975516289421714 -1.6022451556518083 -0.08342689826708859 -1.0095359429694226
P 7.639491747094747 9.430225704094362 12.589271711568784 -0.26436776902195114 -1.5140555458887537 2.170791655045061
P 0.8962259546927207 8.61268955876385 2.4818154777923818 -0.7522649328932527 1.9177475385660456 -0.08898947995653061
P 2.001312711189001 3.0984326486201916 6.124575230763737 0.06006225539921914 0.33550916505346734 -0.5045342582073504
P 5.370628315473034 4.0448522477235835 0.1005390906485396 -0.6747137766806509 -0.4631472106201314 -1.2922063669553034
P 3.857525090480296 5.757454544762204 3.567463269819514 0.018150188546465516 1.1687275949726517 -0.23444244221742852
P 6.410220914122377 7.606743279739932 7.319536999548048 0.5944272238147569 0.7545195332553845 -0.6530751153649527
Ni 7.377920537660116 6.0547732332596675 11.56109201858606 0.5495977262048922 -0.06445858469470189 0.6551255701360782
Ni 8.91537684846702 0.2634844678298379 4.240389662328014 -0.4070195143886281 0.2918952850182586 0.0014580726027652309
Ni 2.172765470039551 8.219967124357376 10.49669925922904 1.807053577052888 -0.6423983523773968 0.8456882802514208
Ni 2.6549028831479795 6.712028863972887 12.63560366559494 1.0952480377262623 -0.7680198817346644 -1.6849791416169302
Ni 7.288042748509393 2.4269224560849207 4.5050654042529805 -0.7622133023552163 0.17406085580557765 -0.16587703444320465
Ni 5.958129155347959 2.4921324483163154 1.894807068234946 0.9895957524020699 -2.2692397093113303 0.46982256575777803
Ni 6.983457935966275 2.9520919847197873 7.15446176868152 0.0060832300796024264 0.5181225384147464 1.1636069859166347
Ni 3.090962887977078 2.61169489965101 3.09270860898983 -0.34690249449207355 0.6197592748216423 0.40945074953794003
Ni 5.410439270276048 6.135765061794047 8.48164663143702 -0.036569057373285405 1.006999292590498 1.677976742157168
Ni 4.0952337931764555 0.2888594391148834 2.3969952812257946 0.08101083262642822 0.4711988772800143 -1.1557617788406032
Ni 0.7098975423978738 6.335301158675832 9.998751315569805 0.9299806118425983 -1.2105378461402185 -0.0156562184800182
Ni 7.4687517163353006 4.62876167851607 0.33665850226363025 -0.2066976680039924 -0.7785277232445238 -0.731198856251573
Ni 3.4069976310227137 5.900435204804555 1.1548981194762702 0.48274647290829764 0.884325790117961 1.2342891829235452
Ni 2.792912958970562 3.6303962346429706 11.109326078367573 0.5917944141776 -0.6390284074638994 0.36125310678679073
Ni 4.368726999771348 3.9029823327582776 4.585374124564979 0.7755889523311739 0.8638358976947252 0.5587662800780376
Ni 1.3602276775557312 0.6965315766374575 6.0480050932568865 -0.6440459152831488 1.1083519220980718 1.1216833490996552
Ni 1.9176643506786941 1.1629871204998352 1.1744102079963241 0.09998043175039556 -0.10326655870083505 1.3564235250631609
Ni 2.376272480571764 0.3379247516514592 8.318982643008573 -0.4315342117005406 -0.47477733865989197 1.334851712429656
Ni 2.019371574899924 0.8060815867235076 3.8208269987556958 0.4092936551347855 -2.1415705533964147 -0.706253499160145
Ni 6.960058239676571 7.950389294159061 5.185699441975261 -1.4922893578562557 -0.159553406218022 -1.2131477729592397
Ni 0.7882050703293995 6.724441440208842 7.54572449893258 0.38505560852302717 -0.9462220134021252 0.23917584313735582
Ni 2.4122698772769295 7.75796196577035 5.84908916237645 -0.9763201183390865 -0.15462717256099823 -0.06739658427710328
Ni 6.385155100217108 0.5643917885470469 10.993442044479687 -2.463833394962937 -0.9729555727422275 -0.2546577408230388
Ni 8.261842213761893 4.285198969977721 3.354837042204778 0.12187568916159011 0.4647132695556706 -1.0413394606332647
P 5.010450711823918 1.5320691971832456 4.009081628138314 -0.047922020492259396 0.5214644583037857 -0.599450130950645
P 2.179263328740252 2.2032739348223296 12.762786753779045 -0.05557130950740107 0.5461609326092013 -0.08504129394205999
P 0.5709590688150631 6.828916270913704 12.193592844015583 -1.0573571762177596 -0.13161888459128301 0.7571849959026895
P 0.43200115719340404 6.699440419766401 5.326917719828702 -0.3324202417154985 0.49325020065309894 0.3436839875547758
P 1.1721044863405623 3.885913883407718 2.4253359418665443 0.21215200625034433 0.3676932059851796 -0.4811927552679326
P 7.306221942936996 5.967903712025937 2.023846026318612 -1.8199967674771171 -0.8679218948386408 0.6927629208728779
P 3.767619532702647 9.130953955503099 6.864601733376401 1.2806878247927427 -0.003654308923135642 -1.667131829022864
P 8.160931023512545 3.55456937071684 11.792535193426799 -1.0945625816234632 0.4589419142895322 -0.523448321503034
Ni 9.0533498994537 8.358504804091554 11.044217904434907 -2.024818301504319 -0.8131406853327028 -1.4606293077488135
Ni 3.084187343007116 7.239910461837534 8.234758546299997 0.4392449500812371 -0.5716940438832993 0.1562924760785631
Ni 3.7692949065271875 1.9206818748046608 5.7566011222946765 -0.4551798761439386 -0.6937340265368955 0.4913876935230634
Ni 7.275158105615696 2.190407804346582 13.265828389237422 -0.744771195619369 -0.21671442881004613 0.5501985930136847
Ni 1.509872808060338 1.2716920387064354 10.478870875121604 2.2307505520971964 -0.23588997329723244 -0.21505529594006834
Ni 2.620182843281413 0.026108063035893758 12.763789201211077 2.511222168659546 -1.1905848000570591 -0.40061721040671006
Ni 7.913734706616643 7.317153525736893 0.17012819534617588 1.7949624502163086 1.1065143546687009 -0.9365356393522969
Ni 5.989803902461633 0.9723647528613201 6.037817709658607 0.24657984891091084 -1.151788653125468 -0.46063627127281953
Ni 6.630685299497445 0.21236797938432292 3.3158471131378793 -0.9283644163954141 1.2429890246903883 0.49770643665223957
Ni 0.7783249928691027 3.395825386789457 10.057872573537209 -1.3731886603366414 0.9788601111521206 -1.1987051151713484
Ni 0.6135746549376097 2.760766145199145 4.33222699091882 -0.0007098815828310355 -0.7276831297888307 0.360619844078166
Ni 4.56133019613059 5.239893619905083 11.743290310436102 0.5265598705488221 -0.6979082125192432 0.00563045881289998
Ni 4.847902426007662 1.061242871442704 13.046685790504034 0.34025850681299463 0.13747560048237611 -0.4332751056510474
Ni 6.198003810944352 8.96753558604316 1.0431062555763884 0.5780523820011594 0.4849951597331583 -1.1025404576226174
Ni 4.6652126294610285 3.454287602677816 9.437090108670487 -0.7283467315147586 1.171217451274041 1.2954693539772915
Ni 2.052851282763793 7.180133864274675 3.3308986345527085 0.9936966619443209 -0.9852302763445225 0.5325016899545538
Ni 5.333640504407505 7.403606517566734 2.666154730778424 -0.1783527983127122 -0.7108575735910596 -0.5836316758611497
Ni 1.5400202806930778 5.050335716298734 4.47009914922767 0.9964713964759806 -0.5345403176511374 -2.7011359323369803
Ni 4.886621148151582 1.6678577828517422 8.088893651540927 0.9011613736180609 0.7644326786040383 -0.480557949897411
Ni 8.031362610275488 7.762238334316965 2.670354272790544 0.9166520130544922 0.7444886313819437 0.38934086616194236
Ni 5.279315813931131 4.562265073237101 2.2271382928025965 -0.12015484981574145 1.7388861760480312 0.31443743198483265
Ni 0.028134247180599543 5.6711403960669955 1.4590821381707555 2.4072884086883573 -0.8106143193664233 0.2645955687620411
Ni 4.822966199028048 6.508956895262517 5.984563036939784 0.30639939217170453 -0.3765884515922805 -0.1156379357819944
Ni 6.446884757873768 5.8436576189497105 4.076371490526472 -0.16179515106434716 -0.5815529389552501 0.8619276249284189
P 6.23457509260599 4.409491344098823 5.814732891522616 0.15027018114388316 0.5801624863656267 -1.5488135181952294
P 3.8668090680825795 1.5414827617111844 10.207882398675446 -0.1852711226991003 0.145899048659381 0.05545458142387869
P 8.374110772424007 1.6548990902862415 6.216683766277521 1.2902515572217779 -1.8704749787323272 -0.8440651428257012
P 4.173698676660562 8.239275576279972 0.3667171152902066 0.4156424801709487 -0.4702257147334675 0.6844006649511115
P 6.251800897509131 7.442297471083728 10.328793479657849 0.2633259580209982 0.4562854505032916 -0.37356843381903404
P 7.085183672605456 1.930650811871121 9.21397752190757 -0.46269212536058374 0.9338087273394369 0.08341867073697246
P 8.470449395439529 2.135703609302219 2.5659173925424814 -0.9979706067293264 0.07817696272205892 0.21644394875747883
P 9.020184902694995 4.786589297754893 8.513509279592892 0.6213646716355492 -0.798900887584237 -0.19888922770316714
