# total energy = -340888.2100467471 ev
CRYSTAL
PRIMVEC
9.06793686845406 0.00000000000000 0.00000000000000

0.00000000000000 9.06793686845406 0.00000000000000

0.00000000000000 0.00000000000000 13.27184220809241

PRIMCOORD
 96 1
Ni 6.323144818794636 2.2598386460236344 11.461589095260734 1.3679202128488506 0.35596100514991597 0.06343400008492947
Ni 4.835740226445106 0.04527711483981755 5.915711540412305 0.7740460333240863 1.7533378326969866 -1.367041409788323
Ni 2.67423428622007 1.8281504505009427 4.8350782670645 1.6706853507020774 0.4163320500388056 -0.26053168310531255
Ni 3.6103445977016917 4.444250194405003 4.790789557327232 -1.301190572731785 1.4419422728622715 0.6510094910851756
Ni 3.8012700053547244 2.707232507946472 2.7177812387335902 -0.13360660444527314 -0.6633772686219092 -0.010328378509201567
Ni 5.457564919126136 4.347241407367617 2.974631453139333 -0.15733274441761935 0.09499994781666865 -0.03583989251674473
Ni 5.23874653812042 2.824499065617762 0.6566791210541457 0.43333629790628597 -0.24066939696374684 -0.2871783391585635
Ni 5.904523520086383 8.424004398232045 12.351068448950148 -0.9757233652953519 -0.48816121616596564 -0.4062342994831714
Ni 2.0581223936730426 6.563345394587615 0.3916496277263872 -0.14077458294862205 -0.5003212485672675 0.20305312927286964
Ni 0.7210270136111371 0.3369645285389077 0.10030860921002538 0.035400490986480966 0.7853074651705185 0.7414691278293295
Ni 8.356810987132118 9.03225438964228 6.526959391702383 -0.5675833641490355 0.44216109528676756 0.6314130570104868
Ni 9.000280844765308 2.5116824525659136 1.2885592487646906 -1.224635461883865 1.0761331712736821 -0.5281747804444259
Ni 7.089947683765224 1.0659178256375543 4.791201241654349 -0.38943239743448416 -0.11321004306679212 -0.18020656369199933
Ni 1.2119660144601498 7.914631188823647 2.494548586132268 0.8301783575412799 -1.0457884975435539 -1.0363762030907184
Ni 7.9878094381591955 4.081804763681102 3.4334255251073564 0.003860768506986899 0.2782905497506304 0.1090155453694703
Ni 7.7860659819984415 4.058826612031005 12.463626933876084 -0.8338720043427833 0.05669462447856687 -0.4383638330278644
Ni 8.093369289524142 7.703901407372741 8.874296372730798 -0.2594405069236629 -1.9396528232795693 -0.5381311203261894
Ni 7.252626468533471 1.0793746437309812 0.5001919234787519 -0.9302873444497398 -0.6609311210742617 -0.32960951173958075
Ni 2.2161311910301595 6.505301531638811 9.090442432784942 -0.5577923462005425 0.8251227973952435 -0.1981808887822329
Ni 0.052177814684223056 4.957776518831452 1.000688529631317 0.5000512827353324 0.32594851794822577 0.7913459580551145
Ni 6.792854872986962 2.267247150324396 6.784446175265915 0.4149976474980982 -0.1665918011220421 1.4113425456985438
Ni 3.5262394846177747 4.417853430611225 0.3454738803575544 0.026872141800495658 0.3635617003153093 -1.2053689003447692
Ni 6.394863130318161 6.02217999903666 4.470327766826213 -0.2042612906483579 0.35234192034008993 0.1384166242394068
Ni 5.524422816567401 2.9276921854986226 9.128174117479515 0.3679379750061341 0.3812681164561369 -0.09167525431880985
P 0.5265134233977478 5.859102225052707 12.176357418947289 0.28760719916586597 -1.7401686423048806 0.4356796013274819
P 4.009886957549722 6.490983259556924 12.551088090340308 0.5254553246307337 -0.5834447566613242 -0.578967437616261
P 2.8029173762226436 8.888881242152271 1.096913846936039 -0.512969276348581 -0.8332814219466359 -0.014078075359620915
P 6.706038446823574 8.074507981145215 5.3083257233715475 0.4552328408690612 -1.053991087959004 1.5051459021039497
P 4.76514633907494 1.174415688499988 12.554790528903345 -0.7087695807137793 0.6268385502659269 -0.2628014529760958
P 4.180092129796098 6.3655192870901764 8.107038297336832 0.9974085635782693 0.483540943785135 -0.806302836475263
P 5.006625493945529 1.3171994201031538 3.96127284199671 -0.1295190646394608 0.14574195425622644 -0.9665208728604774
P 0.5544798470378673 5.894258615718621 3.13758318280287 0.3155208948569985 -1.2376578422854623 -0.11189338113789762
Ni 0.8734554027103735 0.228237246877442 4.440214055770647 0.35107385226094373 0.22395131287811754 0.4229194734483362
Ni 1.9731014189803409 6.724926959012664 4.64680341731491 1.1615770999707997 0.2643626268156286 -0.7420250003327994
Ni 6.467823749172414 5.859872999673961 8.962382310035075 -1.5081052418425898 1.9679838090137785 0.46369742669664654
Ni 8.82589535369072 2.4524688257801475 10.202104372003426 0.14837424967275092 2.0541283633223464 -0.4114371838403495
Ni 2.402486358575991 5.527469643305535 6.785295840936638 -0.37872992341531553 -0.3806482234839509 0.9265155361121333
Ni 0.5678115276045493 0.1385118266140732 8.939886572618517 2.125636141554346 0.6020878256838083 0.13894087217399298
Ni 1.4459731894729337 1.1929868229038547 11.223001705410356 0.6103287255363617 -0.15802359983705688 -0.6539063530169964
Ni 4.208275277123841 6.886980056147185 1.3931189067093512 0.46984262036243596 1.320589546083687 0.7499617386813728
Ni 5.937186228154121 8.046469920805002 7.7465615156749825 -0.7568749208614384 0.4729346290241984 0.724536613740049
Ni 5.199047111157467 3.0590231130236227 5.2335388220617585 1.3715914910528508 -1.1716241997941563 -0.31467757302009675
Ni 1.2314802142829628 7.823589104148441 6.75066901777521 -0.9926975312558451 -2.0787662164756844 0.547111983668561
Ni 5.545124916100616 4.748352520268319 7.028010955582252 -0.26271017881387015 0.5858222557545654 0.02658623512896066
Ni 0.7206606689676233 7.553437133367195 10.835343783428394 0.5670742857231008 -0.1152764386775176 -0.064546773533134
Ni 4.879629040172994 0.807157903758445 10.177990007882235 0.6259983137528188 -1.9587525202234974 0.13509578739628994
Ni 8.62689948235632 7.363291568272136 4.43978967633212 -0.4584094388248299 0.07238889528537211 0.7187557453922138
Ni 7.395555287124166 6.432694562316663 6.714755454393124 0.9315484705503506 0.1641417969196528 -0.0035895171234712375
Ni 3.0041439599903215 5.03435524443724 2.5789048810633473 -1.5364976769423537 0.5334087751498555 -0.12382458535784481
Ni 2.643775086775447 5.213700896898019 11.206676698932192 -1.5385260202262923 0.8045208048741758 2.338245547057083
Ni 1.4158222998768124 3.5210526248135694 3.795932617800957 -0.40268437734838397 0.857901020267529 -1.483268385304568
Ni 1.6833899086926778 1.407216827928927 2.15610326352688 -0.10682239437289344 -1.0218520413326144 1.8548796953972313
Ni 1.1550556436014259 3.6048766318591468 8.202197225283207 0.21687537986794259 -0.2072985348127849 -0.27642058642142714
Ni 3.849901349987506 3.27161182150226 7.346216643427176 -1.5441947884762954 -0.7293710590142148 -0.06483782241099156
Ni 4.180300692340672 6.755404294330727 5.890335826293272 0.7133502581059263 0.26896053059895614 -0.8331477245822491
Ni 8.852310253357938 7.38480071417349 0.19464870247052685 -1.2493656176406933 -0.4028607550252481 0.4230786247340198
P 0.33619828788601375 5.998068355296485 7.902758539275316 -0.14425662795995153 -0.44470263076169864 -0.08561362150576224
P 8.787674000413231 1.784306976456658 7.9125791147437665 -0.32963316588866454 1.2709091481394243 -1.2180256698768313
P 2.155249063887796 3.281368921413666 10.147902593843156 -1.048126658758427 0.48143135364129985 0.3516904027990201
P 4.429251827069067 6.281232815271847 3.508450913152899 0.46267489896940317 0.6076756041842308 1.089265594890582
P 6.861000417442558 4.319312162268052 10.250015722460589 1.699728532011963 -1.3033366725405102 0.8603579664484539
P 6.514677778207951 8.22721203552076 10.210267328639345 -0.8853043519811463 -0.7594979603065823 -0.30313974758382634
P 2.7326952742580235 8.735605907763327 5.483673322532197 -0.03794511178520562 -0.915208081519114 -0.5520392457668493
P 6.678607938243645 4.329631474256138 1.2617299443893393 2.0486740250759943 0.32177664595872324 -0.4352854512128568
Ni 2.682449836888968 1.8352506449532022 -0.013108609323354278 1.4975338940846468 0.023206520023450358 0.1094300071990696
Ni 1.720604720994176 1.0787036164136539 6.830553006315671 -0.8902071885994024 1.598423467912873 1.305968196626086
Ni 7.34374109670244 1.0073298864855125 9.310635512997505 -2.0425221465419856 -0.5812688320559279 -0.614611926292748
Ni 2.9279460877268004 1.5572458409718826 9.071436944212156 -0.6748392465149217 0.026087955336303457 -0.5383980008343308
Ni 6.705666661418029 2.056589912367255 2.6454898336093198 -0.5803833441271811 0.5586909467554121 -0.3798876911688425
Ni 4.230899779241832 7.288526430010476 10.458688895863254 0.6073141070797541 0.18756351827770276 -0.3561931757653801
Ni 7.6132401760398025 6.478968243402079 11.308299252173038 -0.9848178713974524 -0.27603389250596977 -0.5294621317972817
Ni 7.807810894254532 4.148236468096496 8.046492590646805 0.7420447978271414 -0.2823518643041976 0.06652832273953704
Ni 2.653523118750133 8.38569236558735 12.218416323044952 1.1626667334905523 0.10059184008214934 -0.15889520380873282
Ni 0.2732432304093125 5.0839931300460135 10.11842545194538 -0.32883046748171113 -0.3793634432342563 -0.7537885686266308
Ni 9.290645246496858 2.5638593604564646 5.57938902179322 -2.675925494509624 -0.6838810450022157 0.904382708768836
Ni 3.9513262222078422 2.7963793938470642 11.20197860091723 -0.508870423688859 0.5091216204677167 0.6660080213765369
Ni 1.108337633616699 3.493114311777284 12.183365120444998 0.024898820124208732 0.18642066292251122 0.4909243807333997
Ni 3.3020075453898383 8.56351460467906 7.654932735493952 1.0157986360496827 -0.7187457180898847 1.672209500656088
Ni 5.774951772285187 8.321255607250496 3.3217566047737157 0.14346010020058517 -1.0342157051042897 0.4133781096168042
Ni 3.2908993229070567 0.06886372504386902 3.197584813289659 0.9901102301446433 -0.7292005948746216 0.9007286569560164
Ni 3.9810509187780934 4.857693701245771 9.557226263797519 1.497254929391647 -1.4600112145488404 -1.9320210177659243
Ni 5.345403609828565 4.90501019505406 11.607221065787854 -0.7490929629231744 -0.6651179054620998 -0.014281449619678631
Ni 8.274220219480547 9.033161183314343 2.538625106150273 -0.800808389019595 -0.0008512922567017597 -0.5261220116804551
Ni 5.093704890273816 0.379650933857639 1.3970607388018126 -1.0402158885517827 0.10829100849861995 -0.6445647639010964
Ni 6.23082415504182 6.165888660185331 0.02514448173265708 0.4205247479639144 -0.008391309387488773 1.3841734414829192
Ni 8.143333620854857 8.977665410584038 11.548493480410315 -0.4608959526921095 -0.36932637071322844 -0.6976390180182566
Ni 0.23154613698680282 5.243389321721388 5.515153571651563 -0.39896784772874516 -0.9370336620346379 0.3408668298209549
Ni 7.64589381617082 6.492869390394817 2.312233184395481 -0.4103112977660224 -0.8811011125330761 0.12897347654863595
P 8.740203351680691 1.7734163844551716 3.5704837614651113 0.22831576049440036 2.038876322259282 -1.171551694685008
P 1.9702450189133398 3.3903201811121315 1.4648000396923224 -0.4220046749435506 0.8466223620299161 -0.7332480254711178
P 4.854601534824034 1.2775362648870834 7.847759689477302 0.3480129539474329 -0.21266622688260148 0.11964885671360037
P 8.453420784953794 1.8077203890693452 12.248861920584494 1.5389268552091369 2.5601551469148234 0.271767403920132
P 6.889682301289936 8.01614674041119 1.062331456664542 -0.9057963012869111 0.7046365323820123 0.1667879762932482
P 1.9517464280032384 3.519084882545191 6.145446810435997 1.7585332608549973 0.4031967982084282 -0.7801768288121725
P 7.19149950709965 4.369784298055123 5.7166467527588285 0.6169161489458923 -1.0126870870038946 -0.39435914531214017
P 2.4287471033189583 8.621558467627864 9.960769397326695 0.9793920723961906 0.21432998773826958 0.05005140813043638
