# total energy = -381169.4530134493 ev
CRYSTAL
PRIMVEC
9.28608225755343 0.00000000000000 0.00000000000000
0.00000000000000 9.28608225755343 0.00000000000000
0.00000000000000 0.00000000000000 13.59112003550542
PRIMCOORD
 96 1
Ni 2.531413835196158 5.82097127023135 4.365739131667913 0.651102050798982 1.068310847015786 -0.5470811304306255
Ni 3.702788087912192 4.592664048239161 1.8709533186562046 0.7210779657674872 0.6532381233053781 0.047457936371647295
Ni 8.381506258852728 1.7927617216579979 5.796979748551057 0.9733780049916267 -2.0492378679992647 -0.8528668002777312
Ni 5.86797741775637 3.4489716062248426 1.5355112468148298 0.3375362227858251 -0.5778181545031661 0.7634687720288722
Ni 4.556346181196421 8.578816931039931 1.9769910900090693 -0.20243195074910297 0.5636686024756614 -0.8760293544371235
Ni 3.4641357782731155 8.428428831638964 12.84783501751299 -0.20769011382424873 1.0113352009616903 0.5581630992764
Ni 2.3615063912480574 0.8805109465421046 5.370068839543307 -1.4063538342347006 0.8191128437557377 0.6734287393206403
Ni 5.68493016765499 3.700178698845711 11.804539980591818 1.1682120887888139 2.034591578840999 2.823164602136667
Ni 0.3551991400899392 4.811778441166931 4.511681054965565 0.16122616593475458 -0.6882614334580985 0.32233586089630295
Ni 3.325039554690091 4.083563883894696 13.139201629336041 -0.5883900164817415 0.6418103410844108 -0.4976262182336075
Ni 0.4008049464362207 8.790056726357818 6.419887349130684 -0.8671477356767776 0.11991213767731605 0.26005474346889407
Ni 2.4634211421542394 4.908344408790929 6.517865729840133 -0.6505999143515828 -1.7345410117054578 -1.2327794311472384
Ni 4.955220551166729 7.793502255013974 7.822790557916761 0.23968415023234207 -1.018959807386484 0.4521156353963181
Ni 2.686955710155479 7.320088504130325 2.323266305213283 -0.8867444268617825 -1.8795738557098018 -1.7819315851742796
Ni 2.688915073475862 2.178310563833283 8.940265604374504 0.8906327061725952 -1.3923922298482858 -1.2010245073331443
Ni 9.300196931896041 3.1119611151189526 12.62952108486113 0.19846679545376789 -0.25239054205541694 1.0659490316518287
Ni 8.622749385394112 0.41232340265708883 2.0674672450003317 -0.28675873512264166 0.6618639173011762 -0.27513914860584227
Ni 1.4055413847070302 2.386439521651985 10.763351027088003 -0.8422440304565625 -0.2144289752099791 0.235667058653149
Ni 6.674278639299226 8.772292451325152 9.447989571353657 0.6679209221285336 0.005319355330384388 -0.3134686403136602
Ni 8.323783972599168 2.83762239201906 8.60577442733885 0.12025486572871547 -1.223017466664468 1.616492409599442
Ni 8.053001818938643 7.775347964533647 13.490776411587376 1.0922796991265575 1.1574242541446904 0.47583869004487084
Ni 4.145808492124686 1.5875021632042172 3.948193236445025 -0.15388566640928336 -0.17042120217046133 -0.802379847271773
Ni 3.856212736155649 3.496822787219791 10.592538190136409 -0.7932244060247501 0.23323865171731442 -0.8498997472296074
Ni 3.8788800625303175 2.50935939023924 6.39535537747292 0.532935949278495 0.30660353776271065 0.10543759821022487
P 8.27296124533634 0.4920741328377239 8.334468538648611 0.7553721110636668 0.10716795063777025 -0.14179711067586545
Ni 6.2083587566598855 4.243108060233567 9.441628605123977 1.129324410584681 -1.5801125854188272 -0.49255780257176457
P 4.68322192075279 2.906227966478729 8.449992971461683 0.8288537251925854 -0.8930533997989458 0.45729872225915436
Ni 8.65181482232681 3.7345000582397194 2.050424498545834 -0.4294937842317442 -3.11479660619121 1.7275252425092573
P 3.131517603994435 5.514056971169828 9.821378289035854 1.0431202066827712 1.09535113896303 -0.23064955083389957
P 3.1300504030246694 1.0801756405383929 2.013266241074209 -0.777224688162384 -1.5642298527502996 1.3920880683443058
P 2.791544852702752 0.5775692333974535 10.820664725729731 0.8175524412471534 0.3277493186023904 0.6066476771403487
Ni 1.8663910665268009 4.697336765525219 11.168394141388788 -1.0568139021197798 0.2840099687329109 2.800696245830822
Ni 1.2614399628790458 5.207281963339612 2.478720891000984 0.6588716674420717 0.16628712539742976 -1.0593091577378078
Ni 1.9320715251290261 6.728397925702982 13.332344707882543 -0.20270397346356706 -0.4551359102798807 0.5040390637384867
Ni 5.754631499800938 8.676135071312986 -0.03534561424821861 -0.7924060238885127 1.0162796894511594 2.143416348355902
Ni 4.5764784071613045 6.489559894422164 5.450202156305931 0.07520322480571565 0.4619629605040431 0.32789407171037077
Ni 4.112230019297647 2.26103098306538 0.7154963392457093 1.1898677193853766 0.4265434433541686 -0.23156383511805279
Ni 8.937900439266913 6.527456395419715 6.095848586092296 -0.25789630236499456 -0.8490667098053506 -0.9051275573546604
Ni 5.68818958246757 6.378888368107824 9.606855863700169 -0.3737710367481434 2.155910624168171 2.403884525213131
Ni 6.884292671781614 0.2863419128057089 11.856580113216266 0.9182214144241413 -0.9074034978730308 -0.6122002315274618
Ni 4.398241347581054 6.576895496451561 0.4851634305484865 0.7037631286381235 -0.008201304863869746 1.5871183273126988
Ni 6.506265556096898 1.6759149507557212 0.014933877212512195 0.3522452468612256 0.7726252417171596 0.6818326471136192
Ni 8.134162176380103 9.076662363894801 4.462576252888855 -0.36662568395261375 -0.2539874542288916 -1.0819808883037108
Ni 1.2850451835445142 8.652938438259351 11.859815384215421 -1.1937058621845442 -0.17842530342186044 0.5886260437519475
Ni 8.665641798554535 5.606834217302279 1.1226018923780434 -0.7626889564400542 2.8825825390836677 -1.3531721080053987
Ni 5.892390527563418 2.1015425232190323 10.467146366497563 0.5531396779198795 -2.5852190318619868 -2.4901679190924084
Ni 1.6768807032927822 2.566923813097319 1.36628818711655 -0.8020281203593091 1.1014932473050254 0.6168048201790086
Ni 8.52196753650256 7.21731014759004 8.318812204249722 -0.12330239430578764 1.88758464182942 0.21567338914004144
Ni 1.3752780431850944 9.15415471891185 1.0481442289870688 1.4906268825521682 0.5157391257842343 -0.9671129979185216
Ni 8.36971293460208 7.52623952646447 10.830233104712304 -1.0147159445084655 1.4762276764077027 -0.2109505297430754
Ni 5.013472144099255 3.9527044151229505 4.0994347267897995 -0.44779592497504167 0.1763779339745285 0.27694020637032307
Ni 4.908325836626754 8.53110504127629 11.01060132013155 0.9064352204224906 0.45364235645348966 1.0761092600142823
Ni 6.923024920167006 3.147108935818715 6.813242071908404 -2.553908651784479 2.0126176456730693 0.553232494744002
Ni 2.578912145071796 9.092931579711442 7.936235836950524 0.7299086766852396 -0.9225858620404239 -1.9040327600831146
Ni 4.090528445460039 9.036565061442603 6.212609925039371 1.6374209322219928 0.5016232552081425 -0.7427976168327659
Ni 4.043178712897796 6.21819271759015 11.926900827037429 -0.6922314738494401 -0.8381012119327824 -2.250347243282202
P 8.958255531201889 0.8262644408137546 13.435569724971218 -0.17797278926547414 0.17532815255377546 -0.5754321707694928
Ni 2.49899612263001 6.549334404816978 7.990980076678745 -0.5985217055991047 1.8415454401821705 -0.8493281909968533
P 1.7993641260219426 7.322521457637151 5.835347053910427 0.7316403146643657 -0.7150415297654201 -0.13412031085689805
Ni -0.32014789464388244 5.879222863163876 12.24194323374981 1.31126235514549 -0.5287656199508894 1.7034288636816854
P 1.2474922675841862 4.756684116144025 0.3495169864608283 -0.04946776771282448 -1.128578790667908 -1.0715499227783738
P 5.6209769203209685 4.724006393279438 6.070202284584079 -0.08768413088154575 -0.294343489448435 -0.20545531095645905
P 7.2006323441615665 5.460104834243639 11.133138602136814 -1.377910491292343 -0.38821472297729914 0.1867919302190009
Ni 6.317182352638888 0.6792648327663791 2.5134601240889136 0.3142196595470717 2.1912100708004134 0.0761182804208173
Ni 0.8138628781864009 1.931895089569371 3.7839308017976876 -0.9237438869042672 -0.23963015706595503 -0.46725326236870496
Ni 6.744852863161365 5.967570648140771 7.589308738783796 -0.16226257761906893 -0.8450771290299832 -1.432997662074474
Ni 4.404806607616651 1.48412021132827 12.157460316137577 0.4410321238886469 -0.5885573952975413 -0.4889479737333192
Ni 4.471703542972289 0.3914752197632876 9.126776563094381 -0.25124048761137374 2.0501884048379915 -0.39290492936411686
Ni 1.52076309124406 4.170908772006181 8.848050166208324 -0.5196124926967115 0.6673082282451991 -0.7996477930525906
Ni 7.02193098047696 8.226837275609597 6.35485413044993 -0.2554828078274955 0.20071316828578337 0.7991271446624302
Ni 1.1146084329174473 0.06201152756960278 9.527497006183609 -2.516837457963794 -0.05244484806327742 0.5591519455522306
Ni 7.4248912265656015 3.9448205314309823 4.695296613290678 -0.024920931611395792 0.31372883595358225 -0.4810379748576231
Ni 6.168159307304728 1.4723547453238846 5.0822086523163525 0.2174487358729094 0.25840229546713567 -0.18507571885884255
Ni 1.157324410518216 8.656104992251061 4.020089798396372 -0.13446458157019422 0.6030075092846002 1.4654095027462763
Ni 6.548405796608265 5.008531948428906 0.02524699997847168 0.19767258168724663 0.8754359438274988 -0.30907179679754515
Ni 0.9828853585115989 1.4327124608939539 7.402851639340023 -0.606829968354484 1.9055430260800539 0.37683527749576395
Ni 6.626650324274369 5.233691580795392 2.7617968887366517 0.2098927779025224 1.297155997651095 -0.23443652868015755
Ni 8.936256802737493 4.332124443120734 10.512744743978173 -0.7375875333867361 -1.1238932122667804 -1.2740214685161608
Ni 8.268234629553994 1.6127974508095422 10.72374681559463 1.3282151809497447 0.42512985083609367 -0.6812695755212976
Ni 5.645148591993752 8.541765463512307 4.329179826490907 1.1053002797559417 -0.8229718124905115 -0.1241634567545023
Ni 3.4213733702619114 8.569967294810901 3.974980797441751 -0.15643003009769188 -0.12257425789051149 1.7378129975885106
Ni 2.2132262324808676 1.6599614617300429 12.933418335852547 -0.7710077607183947 -0.910587294917651 -0.9430952948476855
Ni 6.250303989447423 1.1782552395425925 7.600262601213767 -0.5986566885150721 -1.1716648232241047 0.46770423386319454
Ni 4.4040080045571575 5.183110291666829 8.009260657875457 0.3800167605475391 -0.8908929018125173 -0.9079632270312428
Ni 0.9229539133295117 6.680258876163334 9.758750165615666 0.6941610867719852 -0.742180037853425 0.8340370691657378
Ni 2.63888166319044 3.489115339087478 3.5320058950314848 -0.3523462912154642 -0.521086763249393 1.0374460391161295
Ni 6.2468495669110125 7.1020977271350985 12.187958595536317 0.5539292637007105 -1.7429680594268886 -0.9289611694391484
Ni 9.11082585989333 3.681643678999812 6.667680877976324 2.626031695002974 2.392432317512131 -0.5414740686564933
P 1.7041724985468383 3.003601823244307 5.518280281303052 -0.1289192262719328 0.2992491542801685 0.683663529674771
Ni 9.715934826936564 7.555713551009 2.36527654057543 -2.953228226425688 -2.2029368723190386 -0.9675482856837272
P 4.608663967675275 6.405427990712822 3.0643485864336437 -0.05879701553355035 -0.1829175348652592 0.005367434959500434
Ni 3.166080401522709 7.788747780985367 9.871923362444278 -0.9391828471671567 -0.6604400403704561 0.3756949932437336
P 7.672272453366575 6.86328755410054 3.9602484282105297 0.9242408811453438 0.21905233291460335 0.6693550834718989
P 8.762569923379933 5.073636669941729 8.332729255473694 0.04963591785957258 0.16689827661886739 0.1251528172509651
P 7.868756664248023 2.153154567459265 3.4996996154503814 -0.40226760152593943 -0.9370881694216572 -0.16682397173750624
Ni 6.746431497116176 7.691429640712311 2.1297285681780784 0.8888262490914757 -0.8163175403987877 -0.395924432916731
