# total energy = -340890.042945019 ev
CRYSTAL
PRIMVEC
9.09941064727133 0.00000000000000 0.00000000000000

0.00000000000000 9.09941064727133 0.00000000000000

0.00000000000000 0.00000000000000 13.31790726480314

PRIMCOORD
 96 1
Ni 6.413273685680662 2.0071843863476118 11.5127717400545 -0.04280629653224886 -0.325319111894343 1.3677350934212382
Ni 4.8480567712679585 0.06552849544773733 5.938188908890858 -1.3677834301606702 0.06498951749750743 -0.6561966917130699
Ni 2.9856167092305026 1.760817844529703 4.717415623436605 -0.15662749082047867 -0.9085905762025965 0.5053937779941683
Ni 3.486948735877139 4.225311309072795 4.707480886950667 0.6640514118707983 -0.5128633468983361 -0.8248127223539924
Ni 5.430864920368428 4.603000544575508 2.630140044927484 -0.22418271216263325 0.08395011776041027 -0.18374105920781905
Ni 7.681094563667337 6.368841263752801 2.8843120611524617 -1.2586334160958645 -1.1407375375176287 -1.7402020666459772
Ni 5.049281137131716 4.916575333036707 11.342102285022522 -0.5349326679935497 -0.48924262215560255 0.4107656116946216
Ni 5.505771268373786 7.824019005858801 12.497378013025056 -0.1359733049052368 1.5094653554149102 0.29879355479998865
Ni 1.7702812315469005 6.6089656099035965 0.5354184187297348 0.5099148057929734 -0.6988410087461577 -0.553586535649311
Ni 2.2670544534862143 1.5403664240819661 0.37578199904232334 0.6128653759152864 -0.578305635662546 0.5425385053652656
Ni 0.5619441105507278 0.1284026928253626 4.858146197733986 0.44124809655419495 0.5928642502030113 -0.12457457614999191
Ni 8.761076308773232 2.422299497621222 1.471868790957583 0.773791494111119 -0.13370919146140844 -0.26357612635859123
Ni 7.007356004506429 0.26876019128841194 4.627373315850089 0.522428621989268 0.7419231846476125 0.3264010321046121
Ni 0.9010809632510721 7.314433813803897 2.844065368097592 -0.07721974101511217 1.1559024181835256 -0.358378356342157
Ni 7.900617844234541 3.981738286307079 3.914133305361914 -0.34657390750806116 -0.4748902100886725 -0.3984227738585525
Ni 7.861626869841569 4.023095107454351 12.603068577009143 -1.0789487863456062 -0.7339993018148455 -0.4366990437309317
Ni 8.147566748330432 8.654667801293321 6.9303458727718645 -0.4591964535024995 0.11964628561043908 0.06429531964396024
Ni 7.118241421998323 0.605970698766121 0.3598289123898707 -0.8843268185592255 -0.07492554566429677 -0.2517397958452955
Ni 1.7444116072296958 6.47163730522711 9.338942567980396 0.46567537635862377 0.7353054222207788 -0.3770003423187185
Ni 0.08169905801337374 4.874308570830088 1.5137934153258872 0.60461470587072 0.17713075298015302 -0.3715984545768568
Ni 6.588956006008579 1.460764780210385 6.642759000965586 -0.5370687404999461 0.9580550014813114 1.850520132876955
Ni 3.5652764622656363 4.543963568645144 0.5697696036611027 -0.5459264480008921 0.32228212484023205 0.6372769719904315
Ni 6.105395128250969 5.5849634387686615 4.740802018602855 0.3812935703774336 0.4634698840668728 0.5833575962641566
Ni 5.224417492824026 2.9040768909025148 9.500103138942212 -1.3689419692451457 0.37562403079648216 -0.5305000861434928
P 0.20443099815689256 5.580768610485077 12.453948346144593 0.9020046954549626 0.38301338128201773 0.06936142131295797
P 3.724516147651173 6.222104168522677 12.514411199714951 1.398343048115082 2.0530135329916126 1.7935866529147046
P 2.1810923216098046 8.496747530443836 1.596710884417725 0.5494791983491568 0.3070596514635228 -0.725394333754654
P 6.5402195628700115 7.497086282646404 5.820058540684452 -0.2990797185818398 0.5767989692100324 -0.04725996142822828
P 4.649234649800874 1.3700072589512224 12.856015812568241 -0.44390121790632586 -0.7955851929474427 0.3384733898881139
P 4.041621507422634 6.140036584380268 8.249071583441529 -0.5335931232465198 1.78726713845458 -0.2677834795717195
P 4.85655562076225 1.1291822581847302 3.7248318971987664 0.26797039877154494 0.195233890338767 -0.09169505181315177
P 0.5580950598696945 5.441138154928445 3.7681287126845637 -2.427935395514748 -0.24986160498597615 0.013782141385756909
Ni 1.5960093198609693 1.0940221356516038 2.8886542998876603 -0.935156756726899 0.5521017235736685 -1.2774135249168452
Ni 2.1400812780650837 6.241631503656241 4.895542955390985 -0.45714239918694816 1.5609961763043503 0.42431763934744343
Ni 5.870948814310491 5.650133417439016 9.367629369817335 0.4196767981413224 0.67658733955428 -0.7312507925354309
Ni 8.58242758059185 2.1396809039989715 10.225089578565484 0.012385518148546411 1.0062205054429445 -0.4476198044084936
Ni 2.6635703695067936 4.818001418077762 6.693606507361835 -0.9457628143775195 0.4132348991707206 2.0281815615495975
Ni 0.44289197205120395 9.042966949548006 8.903500283382057 0.6657036027622406 -0.448050464188009 1.7136153172963842
Ni 1.5532966865352715 1.3692156102295914 11.445582602173458 -0.19478651838870326 -0.0085453184668498 -0.4511661269988552
Ni 4.248451110211962 6.8379158798456245 1.644096065083164 -0.5622210713958576 0.5193147589506347 0.14039123146727434
Ni 5.654464736881503 7.940873636700005 7.963149903773852 -0.01870143306424521 -0.122369340968557 0.5577427239095297
Ni 5.445806152562889 2.9493282597837873 4.889883122001853 0.9124780841824608 -0.3798264989136039 -0.5398923259916703
Ni 0.9027816430909897 7.191045806156589 7.037647942372055 0.008626565326746435 -0.413973577108958 0.3407521586199615
Ni 5.157236544412516 4.454379871352538 7.212192836375789 0.1551874159398424 0.4935859867259628 0.026616574146263842
Ni 8.248024241282222 7.156540841186192 9.452224770222607 -0.06625604291475687 -0.1977808251303368 -0.3737607523354982
Ni 4.271154139642643 0.6678985574420265 10.83393114137384 0.2246167143762583 0.27386105322436705 -0.23365002822312017
Ni 8.615467540456699 7.244213662254173 4.7800232080838425 -0.8862078376320222 -0.721497312693093 1.7815420630453447
Ni 7.243303721194827 6.034974789668188 7.449438129014815 -0.1072006036479186 0.6814567518314392 -1.9276771389749319
Ni 2.3317512628057093 5.2877129929121285 2.5808503576248336 1.2789839547277586 -0.19956079984889502 -0.37514400583627006
Ni 2.3672389641202005 5.233280318742056 11.345964984819442 -1.5531846506797315 0.6025534524663171 -0.28731049386105356
Ni 1.3788063889950974 3.426819830675561 3.8579844823539147 -1.2534341312831123 -0.7319475614921395 0.3041622753110697
Ni 3.7401944321037033 2.8856232862189795 2.6112687772977083 0.5839656621618008 -0.5987759877017558 -0.14007267178559102
Ni 1.0704637616251378 3.2619385107220795 8.275973990861091 -1.189512650038803 0.7495932995983606 0.025432581140491684
Ni 3.846311758444625 2.6078728772642297 6.73216252992844 -1.2778313291805539 0.5453813741306994 -0.05488225386017645
Ni 4.245985169941135 6.660404577988421 5.989289378901607 0.3305232818031017 0.9303148552535655 0.9074335797800178
Ni 0.7420387350754136 7.5635119799786565 11.716442027485781 -0.07322758913658356 -0.9429045189931181 -2.150448829722651
P 0.04781831260968763 5.341927281227958 8.221530397398306 1.367405477995961 1.6118824216312564 -0.17425266010140958
P 8.316051434878922 1.5525050378136407 8.082917255946022 0.0912538505106751 -0.0058086362619770935 -0.3846881978812794
P 2.005701182420878 3.334133234370585 10.450588442069412 -0.771865994953632 -1.2993884865260397 -0.6090866255991446
P 4.068828745097077 6.083301759330049 3.8529370392977227 0.8077488248931701 0.9179468206065158 -1.5008081939605442
P 6.794593586010165 3.879997776461611 10.554854038354565 1.4502916732682314 0.9290699271028708 -0.05135367188162768
P 6.347002678328498 8.018919281360104 10.283475036697356 -0.7068096287739312 -0.6326826677515297 0.1882965397889854
P 2.356037589679652 8.346579957419978 5.872331014779638 0.47119939150064655 0.17823838422203497 0.36981513742418887
P 7.121544508043748 4.314367240550981 1.3815862589313992 -0.24459521438071422 -0.7003199072845293 0.8199978174638524
Ni 5.496662758369733 3.1940933053372476 0.2587098922879362 0.7369622410979114 -0.01942879814857299 0.5505616327800582
Ni 1.336375837397797 0.985165886722051 7.0583309026509875 0.29740875863732 0.3670859114184839 -1.4152017715436336
Ni 6.417341122215938 0.8807046531091389 9.40587874224694 0.7145105969626145 -0.3905199740717081 -1.264599146760996
Ni 2.5263785559892087 1.5173267164593274 9.040474620986458 1.291413181630047 0.2339498188517261 0.8683579539347949
Ni 6.606390476705648 1.9495760178804213 2.305583177821039 -0.9981834940710809 0.45798212147942413 1.5851141523984764
Ni 4.198404351947937 7.269346234313306 10.504871885905754 -0.5830421219062668 -0.434612079294916 -1.0741467369712727
Ni 8.133453562499975 7.09345462754174 0.18426488439966818 -1.0677585740567417 -0.4946062004603611 1.149235033465679
Ni 7.507668897166598 3.919107043192299 8.402507664750557 0.04220800082661764 -1.9474952021421235 0.3735211255208664
Ni 2.7963125712441768 8.425935917205535 12.490199488007875 1.345575012384431 0.1385382374189356 0.6647751774107002
Ni 0.07103363885678017 4.85418977400795 10.328130394184756 -0.4366285955043126 -0.9852259054691483 0.7978253951318711
Ni 8.616987142025806 2.3054266679588316 5.819419762060791 0.29604427418962564 0.9923835995598521 -0.014360896707362365
Ni 3.615314121119069 3.236569353987515 11.953873858041971 -0.14006110182136525 -2.399963335781854 -0.4449134612209241
Ni 1.133395285289502 3.4291310809663 12.801825182719954 -0.2943046657906996 0.8013488349040974 -0.3212292580956854
Ni 3.0754005935561652 8.389993245361373 8.04389625349809 0.4249341898855198 -0.46406817977250403 -0.023070251555902203
Ni 5.4120200410293755 8.162043910584625 3.4313458775047474 0.8213121653999017 -1.4529782189614588 -0.3419659764224046
Ni 3.100405773866991 8.474699658575885 3.8237706985225075 -0.25332462383391213 -0.3854780407724264 0.025834701674916798
Ni 3.2928947055610274 4.321455681403286 8.9575307636039 -0.17729838890626884 -0.7596802515207175 0.9149448005553986
Ni 7.125866728075641 6.287747316543892 11.459779502581373 0.7535885368006828 -0.5045239737947053 -0.3071493829638517
Ni 0.4377098577182289 8.817028584512414 0.27670579661862055 0.5424258910468013 2.2562880342466687 0.7991916793517785
Ni 4.049155819394018 0.4970471141981766 1.5879072046685534 1.4587364616014749 -0.26779479242562915 0.06129715624758474
Ni 5.839974420650356 5.73102717761487 0.1625546006647338 0.6460408342259906 -0.5255329719462046 1.054128384867817
Ni 8.006580480595375 9.109783921535778 11.31681138321906 -0.010048385374937534 -0.7084751894018122 -0.2346699848472023
Ni 0.053922197235780074 4.998479127788433 5.966954875599961 -0.02549223073383352 -0.8910376549204978 0.2740819109859215
Ni 8.026253406298434 8.721712258545928 2.534730904972945 0.19514518727970262 0.948728581874063 -0.3865527618938439
P 8.500660276999023 1.705138551108326 3.6564316277677333 0.2614624224496981 -0.26907031670394305 -0.7729067775133206
P 1.9273825554429742 3.2900920870982424 1.5974033495638873 -0.7472235138146035 0.21514914120545528 -0.14731007007429467
P 4.6876250630946785 1.2690038013638247 7.957023270621276 0.5675275712104354 -2.283996813015847 1.7390432704511856
P 8.697571522241482 1.7060211939358914 12.583118119282984 0.1553095433400035 0.02164560329423369 -0.04582400031265012
P 6.333080580120506 7.8168031732581875 1.3629943432068432 -0.23911747909559466 -0.4694369002835851 0.09747232061656118
P 1.6157277426169956 2.9839515170918998 6.117061482572843 0.9380929565370876 -0.01861478688770988 -0.582102640811133
P 6.971204046218615 4.0426315419985075 6.168334841384866 0.7569258287040319 -0.6329086677194068 -1.0851811404085634
P 2.291222488022442 8.716052425156796 10.338331743401085 -0.1793208186529363 -0.8526834806223315 -1.0111390257904844
