# total energy = -340886.4120847628 ev
CRYSTAL
PRIMVEC
9.13675834058238 0.00000000000000 0.00000000000000

0.00000000000000 9.13675834058238 0.00000000000000

0.00000000000000 0.00000000000000 13.37256938913211

PRIMCOORD
 96 1
Ni 6.672620294595693 2.2864280891149575 11.524707685276882 -0.19487419300650308 0.11001339050636537 0.8872203380569365
Ni 4.66198525577119 0.5381185187976365 6.111919363901489 0.41577514909407104 0.2682794453715315 0.022675330110328688
Ni 3.046103860736621 2.033540891966068 4.827912441807128 -2.298246638066642 1.0158873391087473 1.0125410483443336
Ni 3.4219170045016374 5.122459602252501 5.408642974119577 0.9101738615293163 -2.1815684339455914 -1.2805777815774395
Ni 3.8108231229582623 2.8174107996542923 2.4978088205073625 0.8195761565454014 -0.26590991669809044 0.6339098552904114
Ni 5.193543582085523 4.8153274708788505 2.688768897024857 -2.024767907882358 0.3512972811256595 0.573358833180232
Ni 5.191533495252198 3.1414916177362024 0.3933831300399389 0.7436797623274031 0.4737640669040293 -0.1873064079615742
Ni 5.900189608340752 8.144862711872559 12.60660220363213 -1.1814465852012168 0.8373072552765773 -0.08846086114657023
Ni 2.654931826213339 5.411683687292897 11.385847232127492 0.0176958746178663 0.10945983199574053 -0.16302748080955148
Ni 0.9931656308289712 0.1927170751449869 0.11434196216199778 0.18099203570777217 0.9325038924850844 0.8302374929139895
Ni 8.20733986535562 9.112381462059977 7.014688648808357 0.029607795564103846 1.143423054769592 0.3016973587103449
Ni 8.388503509588157 2.5667529715387265 1.2229706354004617 1.3079358618754184 0.6796376963448295 0.4394663220634238
Ni 0.9158229715376442 0.4622907340379695 4.682618797115267 -0.4894999895820473 -0.5247955795595478 0.48376360131890234
Ni 2.1137890404073825 6.948970687144479 0.047045168658126704 0.45854956394712 -0.49592183394799105 2.086999403018754
Ni 7.659993220641356 4.240433499789709 4.005445212215741 0.27444032276660474 -0.4191450940075685 -1.260951779816396
Ni 7.687531410257902 4.27206495713957 12.70172133993671 0.8651193923928391 -0.1662254189215589 0.9028457032990193
Ni 8.60916536009552 7.58534590505835 9.254727588513518 -0.13020786317636932 0.5015255532880137 0.5156049141992153
Ni 6.8637886892031865 1.0024394405372636 0.4196421734898235 -0.31615287201404263 -0.1732095635488759 -0.29687885427577904
Ni 2.1831553096737446 6.703995922712222 9.259167139387664 -0.6968697439523998 1.6515684273669686 2.40373051613377
Ni 0.02777026327821136 5.0638472975444255 1.534916924739925 -0.1538267881468899 -1.2361792008574064 -0.8620906328688444
Ni 6.470789303013246 2.3651321253979454 6.704845641237219 0.6114695240090243 -0.2334206858211335 0.5972991460459133
Ni 3.454754513951493 4.748619998287477 0.4458463963897084 -0.2455568069630352 -0.23194153017244573 0.13128104163589002
Ni 6.072846930564993 6.039315027481807 4.777818336893182 -1.4762366752687672 0.013997599830672667 1.5001463920068294
Ni 5.8625918477992505 3.1920178913193133 9.373128098727165 -1.2428851521226725 0.1323753031413333 -0.8223748023364611
P 0.2819530527587616 5.94324201360723 12.946572758131468 -0.7764502718902047 -0.12942213405028033 -1.7259738388617372
P 4.179975569898308 6.3673429251637 12.551493845744872 0.5065224922819728 1.4554701321453771 0.3715660586770246
P 2.713480173613082 8.850439737402795 1.5178531148766667 -0.8184685253035194 -0.2564451717407648 -0.23857291944603431
P 6.458673961463299 8.186444099047376 5.869394164378387 -1.2615192222840919 -0.6854563599091357 0.8807121046247736
P 4.7432749946625 1.3247751377775148 12.799942405695448 0.17926168328022676 -0.6970245243627092 -1.5418537990479446
P 4.407170202613976 6.570608387804474 8.556612553514086 -0.21302540999423314 -0.4834658675728254 -1.1280139193033734
P 4.853756676428682 1.5048332342517237 4.027122171361479 1.2248221239733743 -0.3104303677079686 -1.0847180847292157
P 0.12019679690197208 5.966559020873794 3.375369789172675 0.6944557351942686 1.3483638879834776 2.4629039411701323
Ni 0.7968568959831667 8.084313414397826 2.6274694716909597 0.8912677686534329 -0.8131409424430189 0.29252957616814784
Ni 1.8967087991666693 6.7090120030372 4.727618245582569 -0.9640893806008494 1.2050971347406214 -0.3806034862889445
Ni 6.325094554630553 6.046304647606777 9.292598538129186 -0.21725693157707743 0.967224069575089 0.37648123659045485
Ni 8.978655867093897 2.8149164646293032 10.361441197205325 -1.0596151190140009 1.3611376427093784 0.4844621700478237
Ni 2.7189165448213917 5.6769786022584 7.46638713891054 -0.9648576262254415 -1.1294694208029774 -1.8941237284995185
Ni 0.6276870744147431 0.8963781224527295 9.417792228163636 -0.8226691936484284 -0.6090102638352544 -1.1571350050390459
Ni 1.7729970913338793 1.5186936966433298 11.573784868988332 -0.2940187591191646 0.12000803982523202 -0.8483843390263454
Ni 4.268592988972919 6.989282064910968 1.7579442819797788 0.02583238768207164 1.4937584862026145 -0.2879874653234201
Ni 6.09553350150656 8.346264275813342 8.071321857723715 -0.17653759948084435 0.11487868901846668 0.4980782181693616
Ni 7.119188494893732 0.8571147308670688 4.860955528319484 0.23147024696298202 1.0055545897241716 -0.04333954332789955
Ni 0.7611431350099902 7.5160344563419885 6.840416861386622 -0.4428275252261728 -1.2941316090024744 0.7941158074907678
Ni 5.092481898160966 4.834450706070433 7.209326270555002 1.0988969473327592 0.39358318637806416 0.17867187221502775
Ni 0.8800443395803014 7.571119972333413 11.458526489965505 -0.7447120602466595 -0.0656448916933192 -0.04069927749157507
Ni 4.816661437595512 0.594072026830724 10.592399260678476 0.5512229205131409 0.8044084476660275 -0.14069899251568027
Ni 7.981780712381609 7.4450692543673 4.6965934689860385 2.352110735074949 0.6695797978881952 -0.6534003599148552
Ni 7.795418252657428 6.611376603487628 7.180106917405131 -1.7802883931439017 -0.7655801619449203 -0.14701747853454034
Ni 2.3858725668145206 5.661948634800132 2.444639282738429 -0.9284495199100526 -0.283876271368524 0.5212135186352442
Ni 3.7555731453168386 4.464229258405393 9.324665818851544 -0.252942557904145 -0.03497240231012687 -0.12376647842639976
Ni 1.0628334131203319 3.782426078058387 3.9840094634900014 0.63085564184512 0.02268561452297383 -0.52373217129204
Ni 1.5251442480266346 1.4365176921936906 2.4891298137665676 -0.24928824898100935 0.4535114873025803 0.22743078678628573
Ni 1.3912359178938893 3.39004799143511 8.314796366437646 -1.2047664908740798 0.38503555391836913 0.5598160614987907
Ni 5.1098234654775565 3.4752573996514027 4.845470550296218 0.5690697188865748 0.15738185248799993 -0.15563273100737715
Ni 4.109257060398618 7.31533642279287 5.951996855442191 0.6053289583289252 0.39749332006574767 0.3238798083446551
Ni 8.58893657714561 7.740351010182669 0.6408860355030185 -1.4938194213475369 -1.0631182470712528 -0.07758020967832446
P 0.5293983966443415 5.575990012400509 8.21542498280475 -0.2660472136069031 1.4030638506295192 -1.1364443094589136
P 8.431747786779633 2.1953711555653577 7.847919893392198 1.0102615082815376 -0.9935745345441598 1.0547235952496545
P 1.9455173621831217 3.4581625248098113 10.44579540484162 1.5166366763523687 0.10371778730564074 -0.1093680436128826
P 3.9502500551243163 6.502667452838106 3.8648999408296913 0.5231171634158605 0.5664711049214632 -0.6032131975375031
P 7.1070548798271185 4.437824026822175 10.584749966601844 1.740695461342628 0.20479813698843435 0.3072913078583546
P 6.7228176448788055 8.497267480787679 10.46125388626572 0.00556849522671299 -1.842792425215394 0.414053538417274
P 2.317447383656488 8.600750405670558 6.2188733432751855 1.956199929004973 1.2933535931858693 -1.417889859898758
P 6.866831229728174 4.266893551922926 1.6746736938818112 1.9014094635276544 1.5567420290136866 -2.3289322400759565
Ni 2.742425424012955 2.201154723590332 0.35865065691175807 0.49914779708445645 -0.9883438822728399 -0.6237200592416032
Ni 1.4312731929103804 1.2658339097694402 7.064447434691472 0.1112248943159633 0.2388395428438596 -0.48842218313683616
Ni 7.23715318173488 1.1789981585698215 9.488011870658326 -0.10000228612726647 -0.4207849436038366 -1.173085100610399
Ni 3.073559819528167 1.6251552047428621 8.957361738122325 -0.3519850512213035 0.005094640914088 2.0681277629252315
Ni 6.38043589985531 2.4992871480056893 2.5103517623473075 -0.489419514053099 -2.154386988434793 2.021246524992661
Ni 4.412168009422288 7.46940044180886 10.50174617184721 -0.04830125820854907 -1.030994884174147 0.6809942103727239
Ni 7.395328742000852 6.531329463729646 11.60837937706568 0.7964346854319316 0.02349602623941115 -0.2701815474902508
Ni 7.739117547807675 4.4380615825388405 8.464822851946154 1.3886340483574342 -1.1698519383850818 -1.369152285483739
Ni 3.015751549553421 8.742982322644933 12.323157118237543 1.5734292598613804 0.8323691945450117 -0.7283991820192487
Ni 0.33284662402687143 5.424237593242842 10.317579275150518 -0.7908916441265154 -0.9396896116002462 1.0367801233973561
Ni 8.80279154269467 2.644771750946717 5.710835773938251 0.40983641501213286 0.5802681587055555 1.0173387268432932
Ni 4.052901534998865 2.803641704846019 11.031674500474882 -0.8238914960913036 -0.09402344283601226 1.2333700135433856
Ni 1.121792914645073 3.8410292460081297 12.405612707492178 -0.789213485093144 0.04454744759307167 1.5042946098472478
Ni 3.6507014331672987 8.600019465003893 8.17064024815828 -0.800514254817944 -0.19805567605827826 0.29705188951853356
Ni 5.556674905283928 8.653844108345325 3.729275727481954 0.6124041200081517 -1.9577693303746218 -0.5030512459039207
Ni 3.16778720821942 8.9932838171855 3.7967269322016572 -0.3996239932555053 -1.0719996087212829 -0.20900137643650457
Ni 3.8373562691581458 2.7457329305296065 7.128114194109525 0.20498557040889212 0.9636353237825662 -0.9526505426362885
Ni 5.351965834826493 4.678449694287785 11.709890589500235 -0.7564728003270134 0.38072715635100235 0.07699245549565449
Ni 7.987984571289915 0.37137267921503553 2.613441806621855 -0.1678930364319689 -0.8182918905163391 -0.664460731494075
Ni 4.793417524395614 0.591663577334068 1.56640950336312 -0.9608017109885131 -0.34271082500822914 0.3079196854709729
Ni 6.038538403023478 6.0070714073236156 0.38537202033330736 0.4830879154081164 -0.38232741095858674 0.3126268611386551
Ni 8.215699999230582 9.33082308029235 11.94702692895836 -0.32726132322237833 -2.566706574880096 -1.711393112834085
Ni 0.03594309360734213 5.367918614876423 5.697824116395807 0.17858496892817632 -0.6439158174631877 0.14693031813737276
Ni 7.061471592502318 6.352047991713768 2.7213578866480472 1.0515865922825696 0.642198577661765 -1.5049677246548725
P 8.688298824020173 2.0572325063242975 3.6811606444229987 0.17479336309622798 0.1737592654047588 -0.9070970223762055
P 1.9659288802996986 3.5402654351927842 1.839557462116087 -1.2808300067975618 1.073455367331203 -0.49064387337850335
P 5.242553153785307 1.4627950091602417 8.191006082483192 -1.1953038027992833 -2.0865291482505546 1.2762066490929376
P 8.79799474456969 1.9979440814995582 12.517286736220855 0.5956677810900773 2.166838069713952 0.8063036078062114
P 6.441387214696708 8.14228614602257 1.4797546599785005 0.1269003960696911 -0.22955194689434658 0.01580508535305665
P 2.0684158985242487 3.7041240591420643 6.343264825927973 -0.8289539982158757 -0.5721265034350276 -2.31267155524272
P 6.863231346944856 4.299301633731117 5.975265437889589 0.5362279897662056 1.7419059367109613 0.5510894802590702
P 2.074309107649223 8.715837013636719 10.091462779918176 1.9006129357682882 0.4824394831908401 0.23586271960372285
