# total energy = -340869.36293655826 ev
CRYSTAL
PRIMVEC
9.24191871845947 0.00000000000000 0.00000000000000
0.00000000000000 9.24191871845947 0.00000000000000
0.00000000000000 0.00000000000000 13.52648223192545
PRIMCOORD
 96 1
Ni 8.524255844083122 0.7372685067639668 3.2744773580606243 -2.183098497436873 -0.7737603837628674 -0.09281193902641435
Ni 3.111236426611154 0.7650173671948671 3.751529482084051 -0.3656898024019057 0.4169030920509271 -0.543647165048412
Ni 6.400518413988767 5.4070029284992716 2.847608851735712 0.13456973968949082 1.1495201688062653 -0.7793813294940706
Ni 2.624233528890491 5.098406026368317 10.566495263873458 0.8228255167206345 -0.1732159913067791 0.11971596250610995
Ni 1.93364964946396 6.777320674980685 11.83607794659976 -1.8479636850036885 2.236321618427071 0.08597948948561322
Ni 1.7573415693839318 9.12039655789987 7.776644706275616 0.8178208644171915 -0.9675781104803982 -0.7327793133648155
Ni 9.099491338151429 5.70214359722893 12.340047158385051 -0.20873783836247276 0.8055142791356966 0.2787980855146682
Ni 3.3065458912193857 6.097475904903265 1.815902986243349 -0.4689321927330247 -0.36011076565223143 0.4822417653577372
Ni 1.0734673228209586 3.8247679897845384 4.619915859819312 1.723782487637373 -0.12997903499501487 0.34326901150454425
Ni 4.387240394342414 2.956720790459873 12.807360148645918 -0.2664143671383348 0.5991367134752843 -1.1030464507247584
Ni 0.48786886548831476 5.608153285627846 5.96557062247195 -0.36347608258003855 0.6061905349982721 -0.09668993392458186
Ni 1.2999959882736802 8.925096335210183 4.922746728970137 -0.9452300818025012 -0.47451200081364725 1.0543698114546616
Ni 9.268627689440656 1.3099587764650242 6.004689815288574 -0.7074973988695751 1.129818833722596 0.13803224431679453
Ni 5.229364012148785 6.795055916668245 10.110490685144063 -1.5631258210528436 -1.6113908267068182 0.5285866711708639
Ni 7.495953777190825 6.595966507375172 10.302296538431944 1.723595568437548 -1.5330014908636374 0.29549251545121374
Ni 7.1555646752656 4.490232334606178 12.118456450010841 -0.32289790404736 -1.3478190712236013 0.44071793508233775
Ni 2.9309358377197525 7.838986067819876 9.975835007753803 -0.1651427273803414 -0.34064700050066493 -0.8053978081624902
Ni 4.3812516311253535 5.628762763982853 7.21295606523724 1.4405698179947772 0.5656660925216644 0.2978959826863838
Ni 8.517620146567921 5.552627839010412 8.10771887849949 -0.043322831157351194 -1.0059801072973642 -0.8753585536223439
Ni 1.740447342283953 4.203307731462888 8.598987845820455 -0.7014673906254113 -0.6496270089153522 0.3008892609867528
Ni 8.013519699539293 7.4687086013206185 5.542475591488898 0.8513290234769659 1.210267366087651 -0.515068324969455
Ni 7.877145949491545 8.010164883107514 13.290107142876678 -0.013721463351150563 -2.6079491264696504 -2.617941718905988
Ni 6.996030677344468 3.1154877091417834 1.9681709878045233 0.663392952351193 -0.1232993089819941 -1.201437683611163
Ni 8.808352420151689 2.202219802377186 10.435478129814301 -0.40567431321464326 1.0682144306472379 0.00010284412645143578
P 6.528657614613057 2.4638770002188677 13.420272172046 1.6579313934705189 -0.10370955977552461 -1.9709467482968444
P 6.854296614540709 8.895651582726304 4.2548499111874944 -1.8189940372442157 -0.8448069060877321 0.7927132707162864
P 8.897795707828708 8.314824727938364 10.708253355665432 -0.39876293080679065 0.9902110173885655 1.5455764993151704
P 2.6726704239840293 6.132179309039163 8.546951223453698 0.8179339929562881 0.4943586032259292 -0.13356366702247965
P 5.2864975525930245 5.872721687811154 4.938288863387005 1.3272062800692561 -0.01802369027093025 -0.2070198272301015
P 0.010226182869872156 4.58831681612263 10.478411462414385 -0.13744063347938265 -0.2873786280948276 -0.5942004525159315
P 8.771292326786854 0.3674799377557321 0.9944267386580172 1.1512600343155075 0.41392858280363554 -0.2085010397613183
P 6.37395714009088 5.373131297032411 8.302960877102345 -1.1028690446066298 0.22160312436091512 -0.5081479437005377
Ni 1.2987390873515812 9.326204841975047 2.3053586891458133 0.5969240220946815 -1.3455302751894247 -0.4993997651942625
Ni 7.603899385794627 0.8834969145560846 12.082922197397762 -0.8422710270397559 0.2163148793787823 -0.0516550051721304
Ni 2.6567281144941703 4.375623302731542 6.377790687903282 -0.9144557767341219 -0.7314577663399144 0.7317938095230946
Ni 5.276488554808957 7.880020186158992 5.859009453266166 0.9378782694231204 0.25462637336447114 -0.2598565114151589
Ni 2.851547757419525 7.534113658862494 3.891784837920635 -1.1694217928261987 1.6481275200062195 -0.9112601526149596
Ni 5.1338025743950775 0.5625472640980888 12.252043761617315 -0.2664783876070507 -0.12240019420649244 1.844529719621475
Ni 5.261433469499401 5.048527391981783 0.7357482111633397 -0.14766796763434567 -1.6713754347905665 -0.7143409041539698
Ni 3.2837091104950713 5.518377288883212 4.483406253568955 -0.3961491473330274 -2.0029703523912925 -0.5879539573855874
Ni 6.52008111420344 8.664354087304442 10.284049294457 0.9349369274066093 1.718523553231279 0.008540947591475613
Ni 5.815754501900723 1.2423449003909304 3.154023736898228 1.1371973855748545 -0.5087724646584141 1.0092857746318296
Ni 6.88574686334882 3.2155592031453764 7.08219585651363 2.121363996541553 -0.4876248840465215 1.2993944000633104
Ni 1.2732960855976199 0.6779252235956558 10.267722521155674 1.2903073501603777 -0.859946589942648 -0.5899203370833389
Ni 2.5696415160460857 1.4174422891415837 0.75790201410719 0.3144736845394068 -0.824855916887102 -1.2521586070047985
Ni 2.5111309297386653 1.6877776484968756 6.090474227413689 -0.31969919460440427 0.30993183080499526 1.0888465050752925
Ni 5.0586380508698445 7.538411150985847 3.3390931557587695 1.154481626576599 0.451683432954906 0.6825949792009406
Ni 5.839007168959556 2.5242082444796226 10.824769919527725 1.0720949966485664 -1.598372045849647 1.1758809181879812
Ni 1.8152421890673922 5.294584231319764 0.0019398787025631861 0.32147042757221417 0.7139850634764477 0.7471191270262552
Ni 0.47399489736879186 2.3220597601482047 1.6726310681937273 -0.24693234715432313 -0.09334055783637472 0.41673288502165
Ni 8.586296843274672 5.487093394608907 3.687738063520106 1.2938115066588942 1.0155448681676638 0.021477967368117853
Ni 0.7425003568522042 1.9636951266532543 8.226035768094318 -0.12745575435252887 0.6047838844587327 0.1134560976393272
Ni 2.4171868277303052 6.910164012144302 6.24981599342909 0.28078040605201965 0.7634034660085756 1.4724445552161867
Ni 7.317030234162606 3.8597024418840564 9.412443032300713 0.9575574930196025 -0.5270735769604471 1.051077513856635
Ni 7.30113413426547 5.327540912850686 5.740341370766633 -1.349793935561785 -1.2358683544852072 0.6226551083121986
Ni 4.9827618996166585 1.1539089818352986 7.775413682725444 -0.2840073976297496 0.7355409352703526 0.11355199978724313
P 6.996095370774281 1.5385483897532464 9.244782615403098 -0.16697181016928017 -0.5184449547511716 -0.9274136224463706
P 5.777067830871998 7.722861361303885 12.384332583668243 0.16065101015757494 0.4849514509794165 -0.867530572937493
P 2.180316455425901 3.3315914904759185 12.789951146682991 -1.3138913081279049 -1.1197254540423363 -1.9950480122204222
P 2.803083136570352 9.06276395385421 11.701001761915705 0.14025213478624876 0.2936840014875652 1.381451414566066
P 9.596438540226345 3.6470366542486037 6.887522235901284 -0.2256947779317855 0.15855556108112692 -0.08871977123491172
P 7.227235753580881 1.9048425893596745 5.3830663594681205 -1.2376550140719846 0.9439355313607937 -0.8832839791170078
P 0.5067103648256923 7.488477065088045 3.513774658174905 -0.15435900650127612 -0.8404388589270236 -0.5743039707023206
P 1.7925347952027055 4.892838032175307 2.816470979774416 -0.5310495308890596 -0.24562776941028666 -0.6182978597847675
Ni 7.117829921846993 0.21331549450915516 6.817306759756817 -0.1740243461406874 0.744081368641196 -0.6027187743995878
Ni 4.436619965127526 0.5249234137020204 10.153870402409861 -1.3725132315361719 0.34162787635669556 -1.663837988762941
Ni 0.26532346692842185 7.13874438351398 1.0254925236546628 1.3174502291237569 -0.21051112821281165 1.2364656217495735
Ni 4.705550552864001 1.4523397735669226 5.1406582295716445 2.4341906323958398 -1.6879739625791963 2.609759440205512
Ni 6.616354179685102 7.463154208275165 7.975903242678061 0.9097488581767559 -0.360475862301134 0.3250936261470982
Ni 4.936755629100415 3.5054966717342864 6.234234118762479 -2.6385475680817976 0.09121117019819776 1.8211244533236572
Ni 3.4339180126044537 3.135302382501933 4.403248321453941 -0.3659487124902472 0.7866709211769484 -2.1124160433196457
Ni 5.882425702283243 3.7236614009039224 4.319276249555471 1.6162499545713322 -0.9749828875849015 0.44884827749895606
Ni 3.4124397939062314 2.8283597837905057 10.403406824079978 -1.637229127926161 -0.7336738001546268 1.519000805709171
Ni 7.598381960423354 7.5688725145096605 2.7084348003688747 0.1360365540430044 0.1717059824201559 -0.5706524899926623
Ni 8.693632485254515 -0.09401988574042786 8.684569859929438 -0.9361502309884199 -0.03171044372940345 -0.23068168962341562
Ni 0.6468280160759577 9.711777683666025 12.569618263422734 0.7797505399080312 -1.1097922540890244 0.5626231919302825
Ni 4.912929963091802 3.7884287660662035 9.063743597219963 0.2116742952829774 1.208179887431003 -1.5626259985982895
Ni -0.19486307994251553 2.7080577300922446 12.89579606720155 0.32935574385756183 1.1112104745927895 0.021348897989421297
Ni 0.6101024801624486 6.875405156497136 9.40640990787464 1.3791111964686638 0.1881885534562114 0.6421222158978748
Ni 4.092811353340708 6.270798845293308 12.43933124092862 0.796527502256054 -0.5669660422800107 0.03990120707031193
Ni 2.722715412904371 7.894668627052573 0.3035277098091064 -0.05557593749309138 0.7796728925925603 -0.25403090587231736
Ni 8.411513679754544 3.1574275354982944 3.7738884556195975 -1.8619965089476704 -0.9947528711229771 0.2968911955709532
Ni 6.702396441337618 0.06323597925940014 0.9998628351460956 -1.5978089742573256 1.3518744722398977 1.3380884741993986
Ni 5.188117329683138 7.314562641911132 1.1073167736833116 0.3630248539752329 1.259914339690817 -1.4133806591744948
Ni 9.105110424626695 4.657418641082443 1.3624279206196785 0.05897133632788554 0.18341298644443896 -0.13915118841258617
Ni 2.940418046146765 3.631584166441621 1.149285249987312 1.5234205320434213 0.6931349595003159 3.102169661455819
Ni 4.395317831150609 7.936340437771284 8.156130820412958 -1.3208538554886673 0.8689858173267809 -0.7907540901073865
Ni 5.036586833221842 1.6993485305150229 1.1276610089760812 -2.1792834945661563 0.1268415178072977 0.35834030401537
P 0.22400747007368757 7.475104008953653 7.179113083717867 -0.009562961098086757 0.42577211240578283 0.583750203716885
P 0.9407718563540589 1.7350593037723079 4.005962272199226 2.388386686687848 0.4651704116977473 -0.12886934687060386
P 5.208200018681088 4.49223783093041 11.289039546011777 -2.0643338431004383 1.6741208587461878 -0.508528466968408
P 7.327482844036826 5.775080818384855 0.5253956757396622 0.9267482209482297 0.5704771407570627 0.2234674312631635
P 4.986116716048437 3.6139783116136894 2.4869928868832365 -2.0584259622564356 -0.3823346100474383 -1.3384756823354884
P 3.4005084770648355 8.874672427629504 5.982425109322185 -0.16872838784907068 0.8086764789137623 -0.04759060529476965
P 2.9116571956352035 1.8597235430237362 8.573435789427664 0.33503891028526817 -0.42624442405651103 -0.07776532910593704
P 3.7244007543875104 9.08829937479362 1.906111504775882 0.8133124350238767 -0.5061437687863154 -0.36564635075847995
