# total energy = -381164.109409644 ev
CRYSTAL
PRIMVEC
9.33387512693150 0.00000000000000 0.00000000000000

0.00000000000000 9.33387512693150 0.00000000000000

0.00000000000000 0.00000000000000 13.66106973083114

PRIMCOORD
 96 1
Ni 6.569078732455794 2.4634990301578887 8.030359440726969 0.2583305616889357 0.9732589629152593 -1.170305738093049
Ni 7.971400150898194 8.86089046115715 10.791644560273188 -1.0597788982853749 0.21357614029138056 0.7583998421463971
Ni 4.141869809292741 2.821574486598955 7.682725790534648 0.5979694326400605 0.25217251250733985 1.973007744590931
Ni 4.0657893920821175 8.452776099469347 1.6368144997206535 1.5688300705264722 -0.6143087932300324 -1.1806071200190569
Ni 8.07466081285392 3.622813006313628 5.1613025973138615 -1.4232464962249811 -0.09339943609876818 0.5454708485207121
Ni 5.582637459914083 8.403857259253314 9.994357069954326 -0.9584154701445236 1.9357437180331505 2.7621636369732623
Ni 6.746777049577109 5.885241695709495 5.171821874727231 0.366772236832807 -1.895207962702633 -1.5467923740001426
Ni 8.37799309091929 1.465325076419545 6.825412148445264 -1.4865537409240592 -1.5750747658846036 -0.46241316066758426
Ni 2.6299593614711325 1.1647836270556815 8.294291564562247 -0.2191783169695064 0.2738332853102252 0.39823791154125604
Ni 4.546483967759591 6.5709641752574806 5.837293578520074 0.5224882715826098 -0.6461753029213259 -0.4154247077331878
Ni 4.2378593824241415 4.815691597889488 13.389078166640179 1.1400266274935333 -0.03352718522316807 -1.2312686509296666
Ni 6.284115520893984 5.747613705061643 11.604245206336836 -0.4633788670149633 0.5584783165239736 0.13948774581639847
Ni 2.1791238527371974 4.135186754609536 0.5594659491243648 -1.7727234363124502 0.13709199189071228 0.019783610384830445
Ni 1.7959869412341114 7.910823300487578 11.379288545407508 -1.49085391096131 1.2483942548663596 -0.230700458676493
Ni 2.350475134684519 2.2728079586803975 4.236530238587705 -0.6702541982474005 -0.7027498568822607 -0.22664480054988062
Ni 9.266960704163916 8.068827140819 7.650390446485726 -0.022184763627155338 0.1041258213773368 -4.782698994831512
Ni 7.9951735311749035 6.084211914538946 0.24974650022140113 -1.0799227202231014 -1.0192886514808124 0.4933836409071697
Ni 2.7484062384681645 1.0215926467553296 2.063381932789318 -0.024690560768144576 -0.4307047738207098 -0.5303406777474932
Ni 4.013753037530624 3.368726254098246 5.584412762987751 2.1120524893326404 1.127398911427194 -3.554472216051962
Ni 5.452709916352327 6.111354823783025 3.2199144141188074 -0.16155783824256048 0.961821153391963 0.6848925169858656
Ni 0.5938790138052439 2.6075113914807573 7.7810721671681575 0.9675081764744113 1.42563145151739 0.8730599873961545
Ni 3.5328531165975217 8.121955558775431 3.9684865427022156 1.3268661231210181 0.8471229558154184 -0.6095046869731696
Ni 6.320312289136259 1.4783925017777675 9.991187285917432 1.1655309424122249 -2.1665377648647137 0.8593151270062362
Ni 0.160165565840683 3.280633139433314 11.579765251703256 -0.004764254157862763 0.4612253110070702 -0.23199886577294238
P 9.203257005542582 6.808977994282249 4.656894378161316 0.06079142025575982 -0.31749961584992414 -0.6624419012918333
Ni 5.326907945653667 2.6356250237514476 12.131207801657672 -0.44980575631621883 2.3480242237104014 -0.22821934412585212
P 5.031462792179511 0.13653872740549097 8.009485162104735 -1.3365517258398982 0.740314445399596 1.1059993627054951
Ni 8.874937943417239 5.590057890742503 6.470019247752736 1.8251196905259794 -0.35203595906389695 -0.3083840267019012
P 8.470267781698853 2.7824282137758223 9.500632404419653 0.27992602847152437 -0.05892094270592434 -0.09804670506279244
P 5.430551296494884 6.68430542248955 0.36771734958038343 -0.6480429522576839 -1.9761581172944545 0.5260911584425197
P 5.805054373386287 4.226005360849182 6.558679862033226 0.7803845739476044 -0.1564770812855434 0.2561201843011783
Ni 0.9264711240227251 1.8272647572165428 13.454719577764632 -0.373786206256795 0.5418309377752798 1.3470819359472606
Ni 9.215400377250473 6.989299130350465 12.401765110149569 0.19071620497407155 0.1765715380425733 -2.3658419686181125
Ni 6.577469886310824 7.867980813063118 1.6180030075299665 0.46710413838535036 -0.31629711090139073 1.0353845286014105
Ni 6.330159527531206 4.877771202216302 1.4420902607450996 -0.22023092660373683 0.02694104736521812 -0.18380790789001247
Ni 6.842271927319949 3.598694272652452 10.65952822296393 0.24491325984176532 0.5734526784456189 -0.36354164571065134
Ni 2.17423290210312 7.1497017766226465 5.320372366199505 -2.9767067691636027 -1.6324036815130596 0.5927956017486048
Ni -0.02744439341484418 0.4562724910704811 9.114502119122008 1.0808210636676545 2.558027044828227 -0.15791124262890868
Ni 2.676451394120637 2.5383940452110156 12.17702686190123 1.8867454337575764 1.4038809472141758 0.28960057544681095
Ni 5.0875873840930765 4.712654948939903 9.125089533824745 0.8479850467053976 -1.45579203426117 0.14251470556818036
Ni 7.355429721137349 8.93405870928794 8.25065756451609 -2.1188273461626284 0.7686816836883794 1.5627977482894633
Ni 8.11804466504322 8.622195269238702 4.949159480335797 -0.2544533381217166 -0.26587880634983885 1.7564444966467685
Ni 8.124065014583257 5.146437467581357 3.224886569467611 0.12004300682822552 -0.5206195938049872 0.9080362463610232
Ni 7.431286125341831 4.931002292800546 8.40323842332385 -0.760791225196709 -0.6529779276654561 -1.1671893039512544
Ni 3.2364372400967545 6.372721998697989 11.330299701127057 1.3455958383200375 -2.8147763780729718 -0.22138586614378647
Ni 9.104625945713767 1.5222337138546043 4.622318904050985 0.5782714399905008 1.0228205758934708 0.2873711718956599
Ni 2.2018985083615283 3.43295264973391 9.576191058003474 0.8853943405917912 0.01863381305110339 0.7932524310492081
Ni 3.345438235334842 8.131429442160142 6.989577279833091 1.1751625519647182 0.038694331246404326 -0.1283453560463338
Ni 1.2927603906889598 9.079909844036216 3.9038009204039628 -0.4204969800497726 0.6088611398518998 0.607267827222851
Ni 3.4206226005209017 3.368502241092105 2.3556059659126722 1.1671422527634028 -1.3782930714427424 -0.7194877384622318
Ni 3.493389492015689 0.7385027439573724 5.892866538406017 1.1656589833496571 1.063007946745634 -0.4627638591387837
Ni -0.006354502274198523 9.209016006575455 12.765272881989555 0.11545204502343341 -0.30074039411371434 -1.1100848456287786
Ni 0.9711803864983581 4.196183629406668 4.8757177496600095 -0.2113629346901457 -0.08554008795534947 -0.6748024797397153
Ni 7.919419799598236 1.0271276347820624 0.6542915880113581 -0.4149755360109112 0.38806611321457685 1.352776929449509
Ni 6.016270636551444 2.5938465981061585 0.993642357301617 0.16331930101835745 0.7831983892473157 -0.7162401780592117
Ni 0.8461811290717032 2.4249594592263874 2.361930599786052 0.0006949691844955773 -0.5448941500816359 0.6735174423797046
P 1.5370372400104195 6.807503241991821 7.6905671791371075 1.815712024058834 -1.5960575387838578 -0.5341040014446673
Ni 3.06013900426382 5.048273101515338 3.8094167738165723 -0.4291461710843383 0.790219043539523 2.4552145429456744
P 4.021080129606485 4.244159748221857 11.020685725014484 -0.22698495749811878 -0.19148419348834764 -0.008103345833424754
Ni 0.7531895966724889 5.082855109338349 8.726103702137186 -0.07914369751070241 -0.11261149025084477 -0.6740167506136263
P 0.3405893745367133 -0.101641234598832 1.1642646635914549 1.3293621500699944 -0.55138104335756 1.7484923316792274
P 0.6797478659967013 5.122309400044926 12.902006687387892 -0.4690779742822696 -0.904108886282159 0.4693191437587982
P 1.0927167762050838 4.9323090353363686 2.699113109854372 0.20897180875014978 -0.8239264630942972 -0.40137542872897325
Ni 1.370828923329084 1.2512713151766033 10.839812956918648 -0.7981406123794448 -0.5973819355677066 -0.5014882722921751
Ni 6.134101477781588 9.042817023769375 6.316031773943917 -0.721483428736022 -0.5018813939655357 -2.273499770139265
Ni 1.2466790485507135 0.42459611861462393 6.5335708042074 -0.6460385202331455 -0.053593102735107694 -0.8129697069724774
Ni 8.33603732164414 0.16332974955242402 2.9458046327045255 -0.0034522202146585706 -0.4762312974975992 -2.1701139122517468
Ni 2.057036764390375 7.683767451013203 2.1952518557918212 -1.9474800326334718 -0.35878073398689825 -0.709336766071159
Ni 3.628646678348549 5.815405641045051 1.8378241702935123 0.14176188656255587 0.7930863377849889 -1.6222303405244838
Ni 7.472009823083207 3.8164815839977426 13.006758902609507 0.10156166019458637 0.12984225230683447 -0.07595424403912726
Ni 7.542471247389794 1.4397222565926846 12.189253305098898 -0.286741508731461 0.8863168524060607 -1.2584639803975357
Ni 0.01920631511401043 7.493869758932462 9.645370941237429 1.0285063134243384 -1.886662644235783 2.3304329929911995
Ni 8.46932506029801 5.339966037136634 10.340855720915531 0.22796120536845904 0.4447370835440599 2.335245069667862
Ni 4.535367322329846 1.3794907595665344 3.8312748428907764 0.47625238054352176 -0.23965175433250985 -0.32029311943466127
Ni 5.321615638383587 0.6095347227719202 12.838988095210338 -0.37952825094689474 -0.9431940252090789 0.9282253197143884
Ni 4.121027265846376 1.8882149626373954 10.023796112511349 -0.6755079904471721 0.25043007589493643 0.42930018016369936
Ni 8.852648649306214 3.9106043820779686 1.3651791286367039 -0.39853718794922977 0.7078365273765487 -1.1637568812309378
Ni 7.386604864491966 2.2581911100297 3.063426395128938 0.6889144936610652 0.8026295013887338 -0.21941537268097697
Ni 5.953285646324811 0.6378854354741097 2.074050552206781 -0.40719846316865355 -0.3218231829259426 0.9314852214125828
Ni 7.152557942450944 6.910679899070244 6.966640214779307 -0.05641103179987704 1.5553454057764762 1.7866140782516133
Ni 5.734620950705468 3.6982307183810845 3.6744041350154166 -0.5506595918105032 0.4567986426942843 0.3492506830092759
Ni 2.4041169157800226 6.714108486181553 -0.06043777566930502 -0.5066379348139145 -0.13570565306614693 -0.47741657605495197
Ni 8.699974451745895 7.087379491539181 2.186290402158657 1.7479020063933963 1.2582019849854007 0.7174838206583256
Ni 2.4042102545325816 4.892248042738161 6.631684767347039 -0.025743427512691146 0.5827371890713383 0.8807105619628767
Ni 2.497782353972711 8.312170602614872 8.958561065222133 -1.1483911974081447 0.03329244350454266 3.0230167079737353
Ni 3.3441314927990202 6.04835116580588 9.065486206603316 -2.374280072083137 -0.09981408137586037 -0.5839924016346781
Ni 5.2278475275630845 7.090609012377713 8.322460266696947 0.04028353011039514 -0.9541248131889696 -2.015436603179103
Ni 6.695086048410083 8.059353257434289 12.839929883223657 3.222547940136276 0.35368892128628765 -0.26842111315571837
P 4.030283330608776 2.050997747099825 0.36739626427158134 -1.2559563834843337 -0.0070785041133361966 0.21108165600430098
Ni 6.359150544075948 1.879917147534924 5.485192735630292 -0.272461344663363 0.9960286525116072 -0.409844642542249
P 7.137969095426015 7.000023753019463 9.609291779823376 0.5384208836524662 -1.0650787132317334 -0.040039789530705236
Ni 2.712489486483564 9.351702957611991 13.153165402935507 0.210761810771037 0.5467633420798906 0.6135145794635111
P 3.192241340760194 0.12790302601875703 10.986778556372473 1.1303973319338856 0.06300951095300115 -0.003795462486690238
P 2.264575480704717 2.629380661205268 6.372028491766478 -1.4657658576444303 -0.7350544825522373 0.8669654444626423
P 5.6355605326148845 8.142219401955932 4.160546893679744 1.1455768678878013 0.1753086121697497 0.22757528278395
Ni 4.57874184064389 7.775640785156765 12.482516198538232 -2.3142075322712725 0.1547518710643206 -0.7624457300809966
