# total energy = -340871.25113244384 ev
CRYSTAL
PRIMVEC
9.24915443443859 0.00000000000000 0.00000000000000
0.00000000000000 9.24915443443859 0.00000000000000
0.00000000000000 0.00000000000000 13.53707243365690
PRIMCOORD
 96 1
Ni 7.026517940198943 4.293938481430314 6.180120411299825 0.3841539226443642 -0.8304755770667246 0.14427282590986767
Ni 5.257561644470683 6.98571991963772 9.120494150126177 -0.41985317581818665 0.6391896156321121 -1.4074352402243373
Ni 7.193335691013322 4.97081935622787 12.000113892611914 0.6855525191673677 -0.20977013628172902 -0.320612450447293
Ni 7.483093203627698 6.23030447386185 9.676827094481055 0.5404787946227595 0.2740382022321797 0.9693004924881435
Ni 6.58312272195263 7.211047821907619 12.68912410863912 0.20051416490109983 -0.6722480887489778 0.345459848508276
Ni 2.135250561945928 1.2161898253539778 6.283313228212447 -0.8575384947217876 -2.4484340296887317 0.06370627990970963
Ni 5.8627245751667365 0.3855935520265658 0.26934277877108964 0.7400449937882932 -0.07035335291258206 -0.2961921126213996
Ni -0.002611961234751645 4.082373321077236 13.222389661636099 0.4658988052233396 -3.201095426689455 -0.19053699908372992
Ni 3.070839537654384 5.069433841656064 10.300331098578358 -0.09059256277759238 -1.5741669093583535 -0.6196841986093327
Ni 3.9278569457664685 2.1171869631800995 7.814654119898967 1.6717693277948757 -1.7061562899151779 0.479997963628883
Ni 1.964168950900598 0.329958962709446 8.455187667287433 -0.6226975315143599 0.5368183150520368 -1.0546629172150481
Ni 4.6466272413578995 2.556318321195463 0.8706081157549461 1.1422670867882778 -0.8726815210108131 0.0021288734175447205
Ni 0.13513199728034167 4.4383085342392326 10.347873602611184 0.12825870986979845 -0.7076686343401167 0.918500893337773
Ni 7.253381202118165 2.5313826006257374 13.013065571421762 -0.21894048992708742 -0.08386835667988136 0.1994425291034759
Ni 7.202159384419672 0.4500361111873612 5.310945914494548 1.8490396916766867 2.0551544905940156 0.5410434088769779
Ni 0.5745611780710556 7.494469663679909 7.73441955432098 -0.4468592720933852 0.6250665459671687 1.396527335062582
Ni 1.763850762436536 1.2285744432482146 10.811640083674568 0.27168898527371277 1.8611899538859753 -0.20286235341830225
Ni 1.3878633822882034 2.6009547408799936 4.606205661385395 0.27590636578917 0.48404719399759216 -0.9745776817266829
Ni 2.8908232433485366 7.160556687415731 11.093225043360379 0.2025304240001802 1.1308719575774588 0.6913958653220222
Ni 4.872991048933366 0.6181311702401229 4.663778873488647 -1.2278894500447886 0.4251902717603839 -0.030339017303173562
Ni 3.5826045060681353 0.019989272735641838 10.136127158829632 -1.3625535492202985 0.4363558014589001 -0.24881002379301023
Ni 7.875053873621697 7.80075541541079 6.2931145572509255 0.15224890213680875 -1.1960478800541596 -0.06452286227373404
Ni 0.9857563897923544 8.470486693769029 10.283640074342404 -1.0710125622176652 -0.5928686210783854 -0.05980411664182603
Ni 4.780074042685791 4.477876417250095 4.971463097382044 -0.4664387368872096 -0.22730583117264722 -0.43911382382001146
P 3.4845819665288364 2.3441704641080037 5.231753728630288 2.1743819434994816 0.7140452272904219 -1.121974655087829
P 0.8387114814979896 2.2150985128652305 1.426225175550441 -1.3065402670794724 -0.6224465918458183 -0.21519670661393905
P 8.447909507600372 2.4198285480324673 4.93412796027086 -0.7239105501202758 0.08486928714056997 0.6932648002099608
P 4.092482646961031 8.800496526828303 8.187654948054732 -1.903793390378799 -0.42966373415070513 -0.37782926597791705
P 3.5051983319405267 4.1670863272709 0.21698608981372902 -1.2086367724627636 1.8209858708632638 -0.29880126810947244
P 2.294474756904319 2.9363013360938406 9.086881797706875 -1.1669183096780549 0.12758816616533508 -0.2890693855336892
P 4.919967504709936 1.2075418658833943 2.626706236877853 -0.5268969421732668 -0.5975151187114612 -1.262505497456761
P 5.732838698326732 1.3435321847026345 11.612304243163795 1.264638484639364 1.345543130705231 0.24681896150491045
Ni 4.084121411280382 4.627953198394146 8.04019567763814 1.302690554316079 -0.6371725852020833 1.5847156314084772
Ni 8.288380090543018 0.8185603485583528 0.9911976673929365 0.07498930902269665 0.3853996221260072 0.5510344586514188
Ni 5.620045259028585 4.685945397196883 10.066126782721378 0.3523522047527351 -1.1262385725705055 -0.8133638570871025
Ni 5.216319664492788 7.418904071300585 2.0365306361562743 0.9504548205365503 -0.002264370554144487 -0.7014427080350628
Ni 6.98838367613775 0.6229324063483366 3.1000705655804075 -0.8774786852891403 -0.5173504361354122 -1.265728632379749
Ni 0.8756294817405929 1.1555338700512112 12.9552222840067 0.05407698435006171 0.6584610622672143 1.0770960494075836
Ni 8.466000853829742 7.867747041555642 3.8239389951399505 -1.2104321738002897 -0.15117238124317836 1.758376166451843
Ni 5.868810518836944 7.8700778284931685 4.918100100413561 -0.10689644214393848 -1.5726152486005172 -2.0350898586336563
Ni 3.4842212495027907 8.35478901995349 3.5033540505304366 -0.5954014148025681 0.09675112617982048 0.0808226278750221
Ni 5.775190576846306 0.5786983248851647 9.434771171357148 0.15845528805783676 0.9242269971882727 0.038085751128127954
Ni 0.28067206813527973 2.5234745735162734 7.119173195373771 -1.1400173715221529 0.4532800880180645 -0.47969894433122556
Ni 7.518942926523935 8.332156338857748 8.520706828033658 0.61655568028268 0.1846633139117723 1.3255188650645042
Ni 0.7525454331301786 7.011626801431414 5.526956218507051 -1.2390884040844015 -0.5049188952402789 0.8963757793039594
Ni 4.043887589144512 3.213914708831343 3.114392881345326 -0.9585206282638201 -0.7648610243907086 0.5237817935830528
Ni 4.898019261048231 3.623485769019984 12.15667063140847 0.7025246282453319 -0.06567291671777722 0.36851415922457825
Ni 1.770306672287303 3.9343036064627217 2.276217850809148 1.1097115214497597 -1.410306134014229 0.22300334714255138
Ni 7.077813751133549 1.4794670085947907 7.788636248251105 0.9799960245287768 1.3164734670327842 -0.623009920548456
Ni 3.8422652698939768 1.0072236774193322 12.37006897418622 -1.7188778512469043 0.6084520773389391 0.5682310250353633
Ni 0.3170841396259677 8.106541712797915 2.003269751608504 0.9935241409221987 0.1353500694989411 -2.538366590284822
Ni 2.4966242779621517 6.3625396359484085 4.35723137068502 1.3821029321071359 -1.5240723066948074 -0.400365242296904
Ni 0.442915187127038 4.616114280616236 5.331751887573776 -0.6139249275280523 -0.4110134660393696 0.7347402937459282
Ni 9.417396634602612 0.8526453327733201 3.4017715114187017 -0.8855367797069265 0.17023145475715842 0.6642416735047334
Ni 8.777040670980815 8.324479540611135 12.882447161544249 0.0839917696316231 0.2677102031316228 0.325543054979691
Ni 2.3840250709087996 3.2797501906619457 11.842921736900248 -0.5720388288172278 0.4673604773705306 1.2717856372071066
P 6.902052067904139 3.399656229781352 1.6042103555250153 0.31383579384509175 -0.1962160517463782 -0.06966455437567358
P 1.3212602206329394 6.3358095794029685 9.600098883379324 -0.3252476352264592 -0.16917910223324412 0.2569313673485639
P 7.313149238587589 6.044294727430935 7.499646415461392 -0.19749723245164696 1.285944959426624 -0.43479128518525767
P 1.5029043661332493 8.655580773903058 4.553438309967612 0.5795271667744729 1.670792308593587 -0.8599422190672739
P 3.3195585516901716 5.392488310520815 6.267637761142131 -1.822151609036591 1.479895612177593 -0.8600430063111961
P 0.4070525154144812 5.8043069152563564 3.5213982260717858 -0.7583155099627069 -0.15853113560109472 -0.18189732113086093
P 8.94285026395317 0.4633854158974074 7.49029274550139 1.299946930132671 -1.4055724759839856 -0.14630245474538675
P 9.141457358832143 2.4656766069583305 11.45945641532735 -0.008924813293455597 0.5378830088711253 1.0099403774966929
Ni 7.129618265566424 2.8096989091063036 10.491177227904638 -0.5993886815850903 -0.14743091192287514 0.3584634598567955
Ni 5.776207983842845 8.876274849761447 7.096241766587229 -0.5271584233647695 -0.19597051139447538 -1.5244667139197488
Ni 5.2687901180506715 8.51218188231811 11.261273856640571 1.2173654105850131 -1.2979548394033067 1.2840554557133952
Ni 5.328946619009682 6.204092369969193 6.430759549812719 0.7092987137443719 0.7409145408774401 1.0031508653786854
Ni 2.8202984401793394 6.736501451258177 8.05348856250565 0.9616355197437181 0.35431858445048653 -0.011223122409329057
Ni 3.545395157458341 5.4844988996260176 2.175854350262358 2.091998141784926 -1.660467272518495 0.2932893371523078
Ni 6.336531013455059 3.061534888213307 3.858417993337214 1.9943584423525655 -0.023067937563057046 -1.273320328684078
Ni 7.718715414871672 6.027831232396027 2.040159079472114 -0.0698843836959635 -0.07502401891537402 -0.46914919383983716
Ni 5.86356624822751 4.9639102378059174 0.4608909189249835 -0.5260412790411908 0.03318908515745897 0.7049679475795021
Ni 1.7657930848844745 5.568065010659945 12.54619969868074 0.7497534793253088 -0.5569739640643053 0.08639703663900605
Ni 1.1610556152960652 5.852624498437455 1.3236724001301887 -0.22928635193778577 0.4586788904361327 1.2579590157366596
Ni 3.8488876645259955 6.600020927249695 13.486051609704694 0.49789078474890375 -0.022832424513483256 -1.079839416480676
Ni 4.043591616200064 2.6314584524671427 10.258326063353058 0.9303073990543977 -0.5998031434146895 -0.6519669699024385
Ni 3.742809111405009 -0.17166800744151714 1.0586230788844946 -1.3138134037021179 0.6182040145193805 -0.11011931995661034
Ni 8.903273131787794 3.488910570841385 3.0532596696696372 -1.8557091332770623 0.12329699498914895 -0.5069274410298753
Ni 2.259771929167817 1.268142326259077 2.6553508684076896 2.1654309049537805 0.14079026667790592 -0.2521938526635786
Ni 7.375026082286203 5.73533597004551 4.4406198979522795 0.5946115719114212 0.13066757642160723 0.15734971369848383
Ni 5.731432826840605 2.2182709728635297 5.952332233929204 -0.8790987373910666 1.0471650661761063 1.5516052220077534
Ni 2.43178770481906 3.4549939212385725 6.784401897570695 -1.1122962514578003 1.8428417903960908 -0.5942058518325701
Ni 8.964188063416952 1.6578369533971475 9.489392978254985 0.5184346703385264 -0.6058190105914664 -1.0219003780720466
Ni 0.7955281039876073 4.815942263891055 8.0830673586414 0.9990504700570667 0.29242827470359317 -0.8397816849589989
Ni 3.030568718900458 8.260715869391666 6.130547717851177 0.7692342137577397 -0.47977016388879307 0.0070368522421233645
Ni 7.8131307841505135 4.249006088801337 8.431768808058003 0.07345153222193156 -1.868275657088163 0.5573166921157048
Ni 9.265710500573125 6.6361943705539215 11.355099129861419 -0.8404213754255268 -1.217040937366059 0.182915220872414
P 4.958860199441277 6.285281448293024 11.119107877352336 -0.5285200795989865 1.007476746447549 2.5182417945104887
P 5.5167137047982555 5.907250004997099 3.44622757259021 -0.06265238472389854 -0.37796322045262004 0.589018651204676
P 2.2065522940943008 8.649272850524515 12.629506833388275 0.4198714306506317 0.2673013977289784 -0.5844549430933934
P 2.7131839817527856 7.2563779281807 1.7140912360667044 -0.5145898426711396 2.748238285141422 0.16396927589753052
P 7.9209944240927 8.267661984431674 10.68118353400105 -0.17256267399349634 -0.16008279635893075 0.545200625578461
P 5.89553132622787 3.125603781531737 8.526785372380253 -0.7443752457325309 -0.43088577948326434 -0.4395275143186624
P 7.190394459877872 8.043841694347556 1.1268513169878673 0.7496514065298058 0.8945117295120272 0.4737982625760744
P 8.869874434837763 6.023289897529656 13.518770493797945 -1.9192328648623203 2.475433441095711 -1.4420196630674262
