# total energy = -340888.2916086525 ev
CRYSTAL
PRIMVEC
9.11454204018730 0.00000000000000 0.00000000000000

0.00000000000000 9.11454204018730 0.00000000000000

0.00000000000000 0.00000000000000 13.34005358784324

PRIMCOORD
 96 1
Ni 6.646041392877345 2.2663126110081016 11.247092215198482 -0.8131440277668124 -2.106260051020579 -1.1786620804775443
Ni 4.818037986651783 0.3199413836644159 5.76303642381236 1.222579864906417 -1.1328681620718812 -0.2191222669205904
Ni 3.3874650648475595 1.89782991161846 4.856967106503447 -1.3929326757327882 -0.39415397127986956 -0.8257653160752488
Ni 3.3352022816700533 4.425574927558616 4.490848719279178 1.2648290033836151 0.8422851681071429 0.22085441912034864
Ni 3.8329838722623624 2.5881106268548084 2.5951871571755296 -0.2639653913772099 0.10405048805471112 -0.9347572072956354
Ni 4.94900483901969 4.8258582635904475 2.457357966221235 0.14270265320927036 -0.775776899972264 0.34448231508635513
Ni 5.284246804149066 4.48471918986047 11.236553981869248 0.4248187473535781 0.6490153434732822 0.018945687864567372
Ni 6.012835938934604 7.974166863876692 12.490931871556102 0.5773371011016896 -0.18893905846899073 0.06971109134289286
Ni 1.8044240863650456 6.766025222271955 0.4614455579073693 1.948240050727948 0.781801508899789 -0.5561190722631778
Ni 2.7038835378978283 1.676264512898197 0.3068747764158508 0.47190335954620666 -0.38186564083081975 0.16148918978815413
Ni 7.868283230780584 8.914614410273312 7.074269914333354 1.5508472607958066 -1.0357722509581324 -0.6150875803775858
Ni 8.983985188571882 2.3899513716992185 1.152032521751106 -0.9249816159661102 0.6314750205966737 0.33992632028455655
Ni 7.244511327690427 0.8146331445571828 4.780407689018952 -0.7232428346292898 -1.4175952114764747 -1.6383547568901722
Ni 1.047470497228548 7.713536538630654 2.6623941432302307 -0.17604137657071617 -1.6013360135739776 -0.27482701668206216
Ni 7.776663855736934 4.015921842467406 3.7940848303989236 0.8607076364783885 -0.6273568846632421 0.09303099701575591
Ni 7.708696716888895 3.6064783918395866 12.55728573649022 1.0123520722619792 2.541016883423475 1.652594554638638
Ni 8.149156953556659 7.46734364773292 9.196739559650412 0.5955641656326776 -0.3585961287799179 -0.9801775444119635
Ni 6.9933510114645205 1.0065097459903705 0.21027156986863277 -0.43099710825014803 -0.8967956404501976 0.11947325036768455
Ni 2.016209581641035 6.633299263319942 9.121928311299758 0.9906187943499455 0.3528905937547084 -0.4404495119122995
Ni 0.17982808851335075 5.0630733307299245 1.2574786568366594 -0.8899037984263705 -0.7196777429858509 0.4820404479802085
Ni 6.642340888871405 1.7967678711803394 6.641918885582057 -0.40339220204868587 2.086265095955891 1.1660965851077079
Ni 3.5053343205244873 4.585881490259343 0.6358778376238795 -0.02511787811355029 -0.17847903947793134 -1.1725297423275614
Ni 5.815196212666549 5.749270731201096 4.795135877253436 -0.08494642023540855 0.9020586886213496 -0.6259363501666317
Ni 5.553353653349599 2.8976678129478723 9.208839114004814 -1.1302960304693308 -0.7852527006731831 -0.3221430281592065
P 0.37920869228173903 5.8297885942269225 12.529191984033293 -0.9872002555866998 -1.6540361721811707 -0.1899289331860858
P 4.1354317156839135 6.202600701012678 12.588781947433398 0.021573098185085425 -0.2984616253818666 -0.35864909350504043
P 2.5390105897119373 8.861987045420346 1.2529086255347408 0.8956142185475866 -1.8566750967347572 -1.250840145303691
P 6.630965940596984 7.8305399128283595 5.649165717661064 -1.1275709182286837 -0.6277926866490802 -0.04248079487203006
P 4.979274232624939 1.2967349887420514 12.17126483560247 -0.9347536077512095 -0.2327349726080185 0.9505890321215694
P 4.027406165244464 6.222187851526884 8.213804576249617 0.3368191421141425 -0.0007538474468890244 0.10234713221035924
P 5.177397029612982 1.0984116718325034 3.6615247561092463 -1.132604109777217 -0.17960158311814875 0.07077269983818778
P 0.32845983451159005 5.66198076355356 3.581191006829529 0.11209058475036823 0.10029590610828534 -0.6422898518239907
Ni 0.5718144570658511 -0.01138679717887303 4.610428774468212 1.6970119044117482 1.3413887422172253 1.2929401597975345
Ni 2.150375638211123 6.758086456288765 4.879631326358555 -0.22376362234734368 0.4581793250918948 -1.0765059812320685
Ni 6.244855717198746 5.742608001082024 9.081908180784273 -1.237315885565011 0.16425081169369132 0.789299359938731
Ni 8.93702706877235 2.4462245533068083 10.166828507716298 -0.40768285900423984 0.7009680823914897 -0.29085398823793784
Ni 2.508850570609327 5.174371001706646 6.826811925021766 0.1347772277146066 0.3052521659411388 0.5451402046541708
Ni 0.6703581495807166 0.3576792328915077 8.997959604192348 -0.4693255715167014 -1.4634881173538472 0.58116110283347
Ni 1.710097692381089 1.4903369729543638 11.399435402652927 -0.07543333853865074 -0.27496637047340383 -0.30876814951419723
Ni 4.325943870196684 7.190380063426177 1.3016714246278096 -0.5192324836494735 -0.7816621551084474 -0.6876281707494739
Ni 5.728635408369936 7.917884567727215 7.733655978391036 0.01486637558887117 0.34883570695904437 1.2157690126321705
Ni 5.500261446860416 3.150304684959401 4.5228918027355505 -0.21195994484419625 -0.209490143147465 -0.02558453333732368
Ni 1.0343182132862494 7.887205019737071 6.952008360921296 0.05563301598327194 -0.6474390001250979 -0.04114639233132268
Ni 5.286197316112788 4.749806526089033 6.937254651969529 -2.160779265114382 0.14650094390943802 1.218868734603417
Ni 0.7481853998416316 7.282172614765671 11.104046771922512 0.37721605787395035 2.3326724238446794 -0.31407644910098814
Ni 4.745805242200834 0.2279282604112669 10.058387334166824 0.5933530169139717 1.3444900068503685 0.1634437424113637
Ni 8.38213375871889 7.333341652916791 4.4803232463085845 -0.7733248388873456 -0.709384588589959 0.5016731346094716
Ni 7.343887177879535 6.032149653192214 6.991535394720718 1.119209690748182 0.925927010598515 -0.4849367956913971
Ni 2.277787819243274 5.5345138952700905 2.4323449289219625 -0.6002787974995274 -0.5629546071277725 1.0027153205031636
Ni 2.3234061013854816 5.371099273786046 11.298771667695249 1.1832335018983107 1.1458720305307168 1.2343148939551583
Ni 1.418641986474723 3.3345460346542213 3.558059210975641 -1.5527550193414805 -0.325073314432124 0.33781107371376656
Ni 1.1739347659044972 0.8852617296360966 2.3878030741765577 1.729105185401867 1.7875533022364312 -0.20758058482957797
Ni 1.1039806569251884 3.5918860102792127 8.161124347053706 -0.4756913658337292 -0.0984313420957208 -0.39246861315764664
Ni 3.870016255947435 2.819948114281219 6.90034258023736 -0.15373088599897394 0.7221442022484724 1.1005136570005756
Ni 4.161663367233419 7.046844257796711 6.159769645779378 -0.3801540574563517 -0.08515596514305335 -0.4349460655955671
Ni 0.8939506224165494 -0.09898939361311808 12.867748908046808 0.5551703351966633 0.4754339984072844 0.6918530074640987
P 0.425153275023485 5.811413677783627 7.944989392389452 -0.8498686368813557 0.3366088258755493 -1.108484076800562
P 8.753569569679774 1.7767158790299187 7.71972895838838 -0.716212924365702 0.2977301465324808 0.6044655818873655
P 1.8092001063136003 3.591776635776574 10.351214778627114 -0.042919939291977696 -2.136886003436552 -0.21648971439374973
P 3.9561669058591518 6.4364707312797895 3.368723743820425 0.11789973523297759 1.2598729449299206 2.080976593863442
P 7.341617656949782 4.11398519862485 10.176912836859582 -0.8168764982260511 0.6546347465425887 1.3754625439724828
P 6.258554873654238 7.698360826389542 10.212304603005075 0.9566313816609072 0.713875534481777 -0.08483766257168614
P 2.6816531702365216 8.996535912749668 5.733994758999231 -0.7971543372067755 -2.0464471926280043 -0.5901872175914803
P 6.767811672481719 4.02051557157823 1.6596760466646674 1.8204611087080453 0.8027567709952175 -0.4500394695935797
Ni 5.4094806096703305 2.888425667474906 0.38113732934493405 -0.9326116217075422 0.1519956484754221 -0.32632004235503154
Ni 1.6828452121402897 1.3232674201738128 6.927850267650982 -0.2727706483736657 0.8760432383941944 -0.39056805370082415
Ni 7.095807576811283 0.8483405433620401 8.994450505566025 -0.6887491717277944 0.27651648856934313 0.5250249219615345
Ni 2.6338565125834275 1.6530315456293687 9.219337243349749 1.0220266192372658 1.406698362058313 -0.1957519676257661
Ni 6.66201007026259 2.023847567741968 2.5161340010308733 0.9084913316205709 0.17690115346785018 -0.5649186728326787
Ni 4.13980669578946 7.079483432292464 10.480466274211972 0.028717936759982802 -1.6144100731491162 -0.548563885623739
Ni 8.600964794873185 7.472657425652782 0.42368401087137236 0.21739422848589013 -0.8458605441632272 -0.4744600645297894
Ni 7.329003130978791 3.6918998784003794 8.058752546946488 2.105141364035103 -0.09232111543292487 -0.8538654167455747
Ni 3.7605779515155704 8.504806377970032 12.448911099096518 -2.2578620636020084 0.8327941978975723 -0.008071464154224809
Ni 0.19101527722490821 5.235620723184295 10.122259309345234 -0.47532421230229754 -1.591625214044117 -0.7163450790681921
Ni 8.973758672575167 2.5357384691746643 5.592456860951296 -0.12837183840889504 0.4104617073009576 0.3647868309716621
Ni 3.4574647465363006 3.2003617490003604 11.9602249098528 0.7769868611199652 -0.686808760171972 -0.927488441548364
Ni 1.1545754789374547 3.5785058627897497 12.696489400361006 -0.46884786054933447 0.39319109314596795 -0.0015256926159070497
Ni 3.265785930662051 8.75149145412964 8.11772910167763 0.32088730137523447 -0.984335275334079 -1.3020709184542092
Ni 5.564956465171184 8.110447494164461 3.1399952266315183 1.0672474387482782 -0.4896599121986793 1.3891395272389433
Ni 3.1834816174264606 8.971698786108806 3.399818914920596 0.7293849429712858 -0.5914398590516589 0.3887299720508208
Ni 3.517566035736244 4.083606430516962 9.186760959193013 0.35011894454684217 1.2507365298462911 -0.47725896743116514
Ni 7.4590585291580425 6.201206176104034 11.370728241527033 0.07602957736175293 -0.6187616867950634 0.5044429840451248
Ni 8.155892600010823 9.082996457085528 2.457758094610055 -1.1313486401035613 -1.1250478946965141 -0.3138617619870207
Ni 4.886561112554903 0.397646499064051 1.1607460237946523 -0.43117631414048974 0.7763895938555984 0.5164348662996784
Ni 6.079636416421165 5.499577856218925 0.11035158152889742 0.04645109237368775 0.2849733610874447 0.4912359984365476
Ni 8.081864290808225 -0.019569832884622013 11.044897040895526 0.014231055997717425 -0.06307430275266557 0.6672128403179154
Ni 0.18475996712816561 5.182428256734361 5.734275486889336 0.07450851273153619 -0.6359934772923176 0.1454323934356076
Ni 7.17412883524245 6.060942491011841 2.7824016704337446 0.1697619713199076 0.5307854785943955 -1.7201225222872827
P 8.772792138518518 1.7296210411020894 3.5455458564195896 -0.8985676447489558 1.4616947728988503 0.1449420840627504
P 1.8971280918931954 3.2842155343566657 1.5169377634502745 0.48995456062096265 0.559036760130605 -1.0712329057585874
P 4.9063214393649535 1.1756665288629427 7.795606608139762 0.03760881149170942 -0.4642047053503683 2.257838409452924
P 8.59751038349818 1.6075408670735734 12.43167550038904 2.313552672296093 0.4697528888621071 -1.2198678652918926
P 6.8045432762845355 7.835124527397297 1.238150359312031 -2.81101022616232 0.16025531738105306 0.8331186711165265
P 1.949308844193722 3.311987543484998 5.750936869457959 -0.2782607249539595 0.5128080681803684 1.1247671302313016
P 6.885206971980546 4.017380169169255 5.880589404885824 2.209434307117924 0.0417742557233087 -0.7654932586580687
P 2.5474415409570006 8.641506277184583 10.195963140856671 -1.0606438173888315 0.7667921799751504 0.9785721475980567
