# total energy = -381163.8345824222 ev
CRYSTAL
PRIMVEC
9.28977438558777 0.00000000000000 0.00000000000000

0.00000000000000 9.28977438558777 0.00000000000000

0.00000000000000 0.00000000000000 13.59652383809720

PRIMCOORD
 96 1
Ni 9.135777570313891 4.345904986800149 9.329458213748058 0.2096598359561099 0.8976204503443379 -1.1548066140161855
Ni 2.23792517385068 3.0765502460551293 4.870546840243673 -0.8569779942326274 0.4131263986173143 -0.700095192868233
Ni 7.6880034271190105 0.15891552160827493 10.046022156377925 -1.0649889817314044 0.7219251442591309 0.08376319856058477
Ni 8.246634706246361 0.7141030814558077 12.131947116502433 0.4436865307923584 0.9082344784147584 0.24071747659286286
Ni 5.003388752726883 4.141325580325567 1.144028255554425 -2.1203741218244576 -0.02087272968395115 0.13203360353119842
Ni 6.1462353490086 4.784447355406342 5.225008391936743 0.22080145439522617 0.5446774060851395 -2.852841046155177
Ni 5.79899288081255 0.3054867913173843 11.928501991452361 -0.42641000310009786 1.3425182278359784 0.02619105657307102
Ni 2.5229075756498234 3.7503375656265305 2.122783997045278 0.1608800954492455 0.09214190954258325 0.3504141071897578
Ni 3.0863602475643996 5.808449870903875 3.1528295106316175 0.6444094692701547 0.8815397427323916 0.7986386350617859
Ni 8.160704295298677 8.810217434999128 5.368030038940652 1.6945169059040366 -1.1544847119003925 -1.0444864909026785
Ni 8.772389474633833 7.054171426194743 0.4765106045612496 0.8246075483217218 0.1674407793858987 0.7667782960180795
Ni 2.4580277929407837 1.763310612194773 6.945063028726576 -1.844851621737268 -0.8715036986526281 -0.07963477821450801
Ni 1.1124411654674724 7.018368636595567 7.3618375985292435 0.37344527797760846 -1.6684101815146555 0.19243138789296535
Ni 1.693915999245671 0.26558070847328025 2.8639992843768494 -0.5896321164189587 0.9771315584967881 0.49030140243742015
Ni 3.8691630668624026 2.8507994442778695 12.56669554134311 -0.6365154112340585 0.49440925395820656 0.6815925060783551
Ni 8.406233026255139 6.148864355094891 5.0694910697149185 -0.7135412910708098 0.07051867484585274 0.6642884675822688
Ni 0.24589474805822775 5.960922934134612 10.9725034097127 0.47085923455240847 -1.7706102466241895 -0.14886918703129848
Ni 6.603292237508709 5.4780962121243535 0.23400848202497795 2.352414125247981 0.5457097040043957 -0.5167446842306133
Ni 4.443772757538943 2.092939668590086 8.6147169248077 -2.064215315244703 0.22274366572326154 -0.28205490188906907
Ni 2.926223120654544 0.1841772044720625 12.899170984539975 0.9694146494685046 0.7640675819551358 -0.3304664604232373
Ni 7.184971446318351 1.4032854147593714 5.947391449098245 -0.08872362788965364 3.1203666440798195 2.024879236649242
Ni 1.0500138831357502 9.108029014908405 6.64674236919352 -0.9941892853100233 1.6064838763235043 0.8105325582858944
Ni 3.1460191771974833 4.488084980265478 9.239367841933092 -0.01137044662047074 0.25638603636805524 3.702357441903436
Ni 4.235263776596159 2.0591063111120897 5.780928914965225 1.5510907442651802 0.36601967493749865 -1.028223234966281
P 0.0006781535134249596 1.0932577818342868 8.348428335543694 2.432098268643186 -1.8191979257249058 0.447342639487707
Ni 4.333289473495613 8.827710079735828 3.1353312920304224 1.9383132785325392 -0.7521001251806144 3.8469238877943233
P 5.309496100957921 8.581345269105283 0.3137426136102715 -1.1674255883317766 0.7020145213781329 0.5395074318484258
Ni 7.110421008712388 6.868171568033174 10.648660953639476 0.5106912789476817 -0.46140117446330214 -0.6822298825520379
P 6.261437838323435 7.685857489288858 3.719478793833448 -0.5095682210868321 0.21454596040381757 1.2695824589082008
P 7.741280281906574 4.241172072959698 6.386069448407123 1.800223184394616 -0.5752056565809835 0.8161591604440525
P 2.0342747447917486 6.515624638793759 9.409256444775032 -0.5876505672125557 0.6515123988635232 0.2542126828658202
Ni 4.776699683759816 6.925619531417008 1.7646381209217379 0.10110117561840008 -1.5576593986216334 -0.4704118626023447
Ni 3.5786160903435116 6.046351697277844 7.827777369077804 0.10211521870521124 2.3521027646551493 -2.7503075089656246
Ni 0.8906691739614445 0.5088362316936444 10.710715716027522 0.1497582745044711 -0.6840265694411446 -0.44646229376528274
Ni 1.5223710296716255 2.2272233540223842 0.6852527588353617 -0.29447615837155733 -0.19379535812002754 0.12238013960183439
Ni 2.8026412550505406 -0.041633980837214264 5.092183201047016 0.850203394512955 2.3518022026955947 -0.29921290172559434
Ni 5.307647435900777 5.23520577702834 12.08546015764586 -1.2979831215380808 -1.1147300577102737 -1.3546656618317896
Ni 0.9043957442550982 4.280802249511353 6.80995441134918 -0.17564259847040076 0.40824515926561306 -0.11198645507233618
Ni 6.100325285127146 0.7395858609445201 2.2413057226662323 -0.9937015470403272 -0.1260370196281313 1.6967748487002778
Ni 6.554650980025243 4.387829737568462 9.467041626960748 0.7657840504256102 -0.7998542526364418 1.078392142511188
Ni 6.14737799122985 5.464393795243507 7.415475825531495 -0.9770765368891365 1.4893109919542222 0.5765986802737683
Ni 2.69997996084699 8.233731209942974 10.740070473384666 -0.4827387595988137 -0.8386817670266008 -0.2037884647769974
Ni 9.137068848921645 5.049911941702666 1.7512320478364836 -1.1065305526186169 -0.928932373083742 1.5948360076719308
Ni 5.0831786229571145 8.816004964298632 9.75409193248713 0.1167702496142247 -0.33532224585364184 -0.3531155652813209
Ni 8.905781341747108 8.597193623816281 2.8457931849849283 -0.5555385171693594 -1.6217521153364842 0.12844562906962398
Ni 1.853235626029754 3.7315815116045443 11.082458105606525 -0.5208859600924965 -0.33994534644795005 1.2545543609304846
Ni 3.607999646000541 1.2235933132500703 10.648281001876477 0.2389513858313756 0.7111697055148397 2.066109446943622
Ni 3.743203019074334 8.747595067410119 7.260706330129269 -0.7239357469312565 -0.509146045947749 0.16984218973853976
Ni 6.828476363062421 7.6694796174509365 12.742539818396784 1.2838834489119049 -0.1565084487441111 0.8061699104418244
Ni 3.168110260141655 8.605127090945938 1.513619133438781 -2.152077880685642 -0.9274192788733253 -4.0182819999567565
Ni 7.946732927151867 3.842835846902864 3.916016042820742 1.5617849907542327 -0.8434120826227346 0.44185950488594866
Ni 6.119768782436713 2.02278329416015 10.141850821689367 0.41360179559183613 -0.152131402722338 0.8894975641268875
Ni 7.154185134763689 0.7564886050222833 0.45264889066284747 -0.46590806119472017 -0.48203993375957627 -2.7670345919123185
Ni 2.490941462777285 0.46638196379841074 8.930128910833895 -0.9248780005087104 -1.332797915224421 -1.517866949215044
Ni 1.2913436361734705 7.694441240609469 4.6870347836012165 -2.071939423361838 0.14319141992023082 -1.325870334866652
Ni 5.694984569356306 3.2501761250402317 7.183302073902427 1.022294785296988 -0.10969303105246915 -0.6341944764103659
P 4.576662976847765 4.062278892027855 3.3938963630607093 -1.5149420622587653 1.318236215360162 -0.3394085001078735
Ni 7.725348319228166 8.669663152011188 7.8269199229231585 1.5540554833204592 0.6026565537030846 -1.2225207295337073
P 7.550737724182474 4.857873730339368 11.7725907828063 0.20102684287146022 -0.20349253080313343 -0.19256097149229418
Ni 4.632986877558664 7.49341981763683 11.898494162972014 -0.10458553462257474 0.4662921840070163 0.5619171670021935
P 1.63507456973836 1.7989740551816005 12.216109683428133 -0.3021483302048345 0.917545471403039 -0.25173671052150187
P 0.5801436091415711 2.4935797586377326 3.4855093288599273 0.42633826932189806 0.7006554362470772 -0.3152262464347152
P 4.40703170074996 3.399648591218418 10.567747949713722 1.1190423119323825 0.04512363181151584 0.5189548045080546
Ni 6.961468769886966 7.603159919747638 1.7475207830609594 0.28424856710627816 1.0024893205352865 -0.5383234388426534
Ni 6.39357558592558 7.521131213945687 6.029609666292989 0.09279111309080793 -1.294724762501783 -0.8334693695877259
Ni 9.152805726342766 7.874885813825447 11.963595042305979 -0.02469493164351876 1.3443516815002912 0.18956537919907998
Ni 1.6914077602234143 2.6624214039322345 8.975106281390037 -1.2084501103732541 -0.38361013432575225 -0.09379307199276105
Ni 3.495546929836032 1.6277356481547203 3.3700755241685956 0.28399094256951735 1.3375575413965932 1.3542301169562678
Ni 6.963698315684527 5.328001331077681 2.4023151593693837 -1.2959038704115489 0.8809095653475604 1.9646372611390486
Ni 7.7308943143996 2.3406329169250135 8.325437073483755 -1.352964877090599 1.2947592152841443 -0.3976604417712313
Ni 0.6689603529196809 9.305566772572357 0.39035723903381014 -0.26154418353022696 -0.40149961301166337 -0.12691916512276852
Ni 5.834749221540943 2.508619902997116 3.6752622557807246 0.7168672701202493 -0.5299053899822874 1.0198722918984244
Ni 7.94558099515646 1.2886310221197708 3.7843204884684463 -1.3682737395335276 -0.20083375302404766 1.223129309651984
Ni 8.65056337634541 2.903621100131764 13.370630738892332 0.5407559595435462 0.34029913024294295 -0.6400815313187622
Ni 5.694557239745107 0.4713315554689973 7.478754051175954 0.47183471109180025 1.1705121976769004 0.8439700120087337
Ni 5.588486598426119 9.5753418140773 5.188025801019691 -1.779863132681025 -1.6851745454571878 -2.6821161967013682
Ni 9.05864457549242 2.502776635052674 10.542921028280459 -1.1955125763759797 -0.2897923797426429 0.9127393082636475
Ni 4.084890202324792 7.404154377766961 5.317641374938346 0.2570727780224347 -1.3037009978584644 -0.6036741963343216
Ni 0.8562691402599018 5.296267462559056 3.7678961677597433 0.5407035090390558 -0.7953555934351398 1.2127867900753952
Ni 6.369273536732159 2.958310000591117 12.658988518610583 0.1512960513052362 -0.06160054642061649 -0.3658376408336796
Ni 1.897770803336045 7.380706987795939 13.210463884705176 0.27459484606659806 -0.9705587903752768 0.26039387197586766
Ni 0.7178050564571754 5.177181847646802 13.476194158542377 2.188035529727174 -0.7765050363875401 -3.1751630230944095
Ni 3.9962843364200347 4.645342277186816 5.643930757524394 -1.6023479997782597 0.4005935562576262 -0.14421343342684198
Ni 7.051282306432069 3.190535774955461 1.4948017669073619 0.35244476446654144 -0.8781129764390296 0.3187142049833156
Ni 8.171954211802205 6.325267876552789 8.206752776815062 -0.4021408461400881 -1.2950021845328858 -0.7025739934260288
Ni 2.8943034566527883 5.928761736004787 11.477872697691138 -0.322213990606458 -0.8598015797243515 -0.13396758732911765
Ni 8.670071902074074 1.4088778588015882 1.8205607033890743 2.5323898038760966 1.5827327966504934 -1.3421965828305016
Ni 3.8213764686013345 1.727331316886624 1.1889034385948445 1.0615118218160815 -0.1669664108526415 -0.80185405667529
P 3.0869269237879466 3.740583302762199 7.409072384205415 0.17524253481850463 -1.1018753132347927 -2.5995200218656906
Ni -0.14767210794665536 7.844210979560664 9.504962485067606 2.5343101608272613 -0.26684117026310816 0.3387407846168876
P 3.033659358774539 5.178185143255704 0.024301120216004817 0.01353017327595089 -0.3071393556615227 -0.05339949866706287
Ni 0.013402357175591633 1.8697528444800222 5.51900559057736 2.161494803124168 0.6803792024965444 1.067149222607517
P 2.2734678497734726 6.1576989303177285 5.527163870241605 0.40606974888084907 -1.9476597527444457 1.1934289543740737
P 1.1457357160443908 6.9649338556473435 2.3288395486333284 -0.16722994892667326 0.4054128320231405 -0.3509794927749246
P 5.89168624734617 7.607851255696675 8.08709026692769 -1.2417718644538356 -1.0383801208946246 1.6035471622926836
Ni 5.059025210150198 6.118951282310941 9.779272794315757 -0.9786713921800824 0.998741680567396 -0.5670359762859977
