# total energy = -340862.75658277026 ev
CRYSTAL
PRIMVEC
9.39291923142324 0.00000000000000 0.00000000000000
0.00000000000000 9.39291923142324 0.00000000000000
0.00000000000000 0.00000000000000 13.74748674601498
PRIMCOORD
 96 1
Ni 7.861694956200063 0.7956328617757155 6.558458405335225 -0.2867062846181514 1.741965072083671 0.2561060432337912
Ni 0.5815503852652376 7.742498810774804 1.5327205970879874 0.39444373460614646 -0.036597339508059545 -0.25335573418216367
Ni 1.2553918380238107 3.1068113677702236 11.075525488865262 0.5684259146549888 1.5049546120287502 0.3945956868029785
Ni 8.636798653638392 3.822251242061093 10.135719770056697 -0.7432884404262553 -0.2827799529805517 -0.8460299798615559
Ni 6.227599399401186 2.5350737652572133 10.130797880363803 -0.3094885726199896 1.061878461126881 -0.6913393010524739
Ni 5.802062585189528 0.13316717353444196 8.333795289065515 1.2265599326000876 0.127355995549871 -2.2598307572926046
Ni 3.821274378457923 3.8002812039090297 9.299996050290117 0.6971409953359156 -0.543730725901154 0.22075723142085205
Ni 2.875501338042687 8.218165635083752 0.2781994826796946 -0.16825479064676185 -0.3825366987559154 2.1521295598591843
Ni 7.015167500699192 7.130305905003592 8.312954279808654 -1.5581826181149552 -0.6280631667016474 -1.3608262821165467
Ni 4.283490542384761 7.4807932943178646 9.143632123348093 0.6588510986167814 -1.1546556902606178 0.5145638745292106
Ni 2.246692358098324 1.5899394433517424 0.2848036442122793 -2.113214113740909 -0.40263552638831945 -0.040092497145511594
Ni 0.4876982145906826 6.972655148122776 13.072044956775608 -0.7834117908097025 -1.1085133873766007 -0.5083276638115116
Ni 0.7517904718319062 3.5781386633804737 7.350368853207708 -0.07291134344774539 0.2818283877005598 0.9756112651975198
Ni 5.964813697229202 6.601353049725574 5.3565160350756305 0.39564906776815734 -1.244749716135237 0.7282755119571909
Ni 3.3554513335347647 0.8826817410293474 3.808342207219034 -0.8984187778759172 -0.4009118588289934 -0.5778513217339468
Ni 3.919251919272019 2.874956548725535 1.4740054587859153 0.0024690303657828446 0.9784713603541342 -0.8201533692051101
Ni 3.1006026481385374 3.1312141720109503 12.694085157206032 -0.32025892376261617 -0.4240358464409665 -0.948881048291527
Ni 2.513009797912537 1.3490110643006867 11.003736346243455 0.39618154323285965 -0.976011328849416 0.5006138401070217
Ni 2.189254656815782 8.111321178487037 11.944379913450122 0.4331915447983056 2.0946438069378894 -3.1033382278426234
Ni 4.1947180624466895 0.5923879355088676 1.1458149812139975 0.8097468291598053 -0.09077382555046301 1.8438046685299925
Ni 0.7350447753729501 1.9696012398914566 9.217071601884099 -0.6823206424936313 -1.4500371340552638 -0.9491250459815331
Ni 1.5453982202148964 7.341599623785405 4.947885536242295 -0.3303528176635085 1.402299461659669 -0.31898005705019256
Ni 7.591131916879765 0.7223361556124793 11.098456422657751 0.09692107609878146 0.34744319748689195 0.4675499676735174
Ni 3.198655332306723 5.735297715080565 10.615946856666982 -0.5792525729568475 -0.4730333593855918 -0.2621944155197162
P 7.070303936762729 4.625186159270504 4.578943878455445 -1.0251715926241505 -0.7447079464816012 0.056065475535000214
P 3.4785267546149203 8.61882999909162 5.188039938746225 0.21676610798358797 -0.9343514872167845 0.30580675289302817
P 8.32352601043719 0.3679995479849466 9.190799606710383 -0.616573420894493 0.6106164319801097 -0.15147474297494556
P 8.010582119410133 5.422128393991238 12.880694284169282 1.7385154229721735 -0.060690375901521286 0.09912271173579058
P 2.658290080126287 9.17093640034862 9.643036733214071 0.2496199212888153 -1.1421804406117426 -0.6738719975056459
P 6.1130433560909845 8.367682123884325 12.442547475849395 1.2385021925636284 1.3115094381592898 -0.16388494371384033
P 8.288659494139432 1.1156627710934597 4.152716684678086 0.0018211123691387991 0.4300589127065948 0.45736711360324456
P 4.394120345443761 5.219044086643757 2.962940962737587 -0.2591057492920634 0.22984633820631387 -0.5297776061551714
Ni 2.353057775812716 3.8089132967101182 2.9683710093625155 0.5990888909564844 2.4689930847870056 0.42261736882688505
Ni 7.7098490234226995 7.533403035100124 0.30440666671050753 -0.6627622607457295 0.7629254979308926 -0.45710280419826443
Ni 6.463089278199979 8.265768949899766 10.155488107933923 0.35584247729418067 -0.677603182413304 1.8671860235684101
Ni 7.934659153021451 6.143429449901127 10.508276762467203 -2.923601404698191 -0.20288112247137963 0.7696872421347584
Ni -0.2915458816580044 1.831468969235518 12.486842604501597 0.7072369461193369 1.1481202031349453 -1.2851263201800704
Ni 1.4515723497142727 4.971033446469719 5.518956241487757 0.09050617371137315 0.31562631008661124 -0.39352533655693517
Ni 3.5916175025203674 6.352929121104041 4.661057717929216 1.5454554003562737 -0.15861109690941072 0.647554956877672
Ni 8.044809917198128 3.1519537377397895 0.6286089107640989 0.3161053066055588 -0.137349359317157 0.18527472224352606
Ni 5.060153464420456 7.042820255004312 14.068490918021432 -0.5588503551514117 0.7834639842038765 0.44492760228831113
Ni 7.446170993920898 2.6311915080575816 8.108941012746236 0.24522821997902283 0.4812099816591132 -0.6083937132971781
Ni 4.640656297293782 8.164851425356899 2.523090278863711 -0.6362927537002913 -1.0435848050240155 0.8009593127751625
Ni 3.1406728417070284 5.212290577694919 1.1353099403122158 -0.4860439127126468 0.7428089296866756 0.2429268255393558
Ni 0.21210338842213247 8.887242059901093 7.817851626964329 1.2545556464820653 0.6679983123336883 -0.7113964768136651
Ni 7.164740347015334 1.345592041689592 2.2554813126510753 -0.6689948719190028 0.9127979294157248 0.07258301357404918
Ni 3.631293193479886 8.78921755449069 7.495088378141561 -1.8209776433331477 -0.07026233586067254 -0.3885664498897631
Ni 4.851057688745776 0.643265621979353 10.283821685216527 -1.6432822760987764 -0.43796119827280705 1.0079236041769803
Ni 7.053406075011741 3.326990788173178 12.105487264619079 0.3893850891363165 1.8740133309028886 0.2733362910691486
Ni 4.226569451661588 0.5502118494420041 12.676447133417257 -0.1771091557135982 -1.1655692518493281 -0.8236333573339105
Ni 6.016831684098003 3.7041634611086613 2.402881576742089 -0.6496421784240037 0.8239778851575229 0.9317549301342019
Ni 3.9768399072627414 3.0809056964476964 4.675272961939192 1.381781287101659 0.8458451175442594 -0.19902755305324432
Ni 6.49030995821908 6.557459938017754 2.1347644535974197 -0.35811353271654456 -0.5125090488827109 1.8941216716169895
Ni 4.382294660093847 1.0395425534002918 6.165843773134248 1.4019775595438757 1.3492290641972504 -0.41636316038705706
Ni 2.1915465291155267 6.267603842534848 7.936135719929321 0.9030678466121544 -0.48255929659815594 0.25787521931907204
Ni 8.747512992970742 0.7427009438627948 0.5916440163033766 0.3785787425494319 -1.5898272416034298 1.649883583465378
P 1.963401913179032 2.914895241424369 5.116677234658879 -1.5397385524771547 -1.0359928516093706 0.7816066192801635
P 5.110800085077115 1.8363626801706294 2.965607612515856 -0.4160284027554577 -0.16899552546752827 0.4525493804996271
P 4.504017500800383 5.822924258868764 7.504381732458641 -0.40995057199249396 0.3856564753318197 -0.28749098530297584
P 0.5486178710433699 6.975247593838882 6.717283277123697 -0.08585864763703277 -0.3302656572663409 0.5390240644541039
P 5.1359731086972635 2.212549096583681 8.188127079286275 -0.1739634109957649 0.6473526110588786 -0.7265312755725746
P 2.5893272669101917 6.224866059896162 12.64202396290863 -0.2949908932244468 -1.285638998150431 1.303044081000756
P 6.274169493098462 9.03896588472806 1.3139040892698397 -0.44603986151588343 -0.8973124321856158 -0.32116369496507274
P 0.5087111142700244 9.168888743949667 12.703943025970712 -0.8342517562797052 0.3583752710183635 0.18578817154483487
Ni 8.653950124209434 8.347337060764458 5.447331474953023 -0.6005899009820431 -1.7932722069980793 -0.44399737716455795
Ni 0.6940033539528456 5.830748560613385 10.696823648674046 1.7256331676928665 0.16314035223833195 1.5606267087800734
Ni 3.2867797008157678 4.004408125294509 7.005224156369233 -0.4194204591561422 -0.22312367477049957 -0.3964538230576398
Ni 8.601133739203426 3.09348281533851 5.569382128541776 0.20024754150327448 -0.38093747258959554 0.035334156524919794
Ni 6.076739723146254 8.643439447556096 4.450611240464768 -0.07810625738512354 1.3854934458459236 -0.042299017878527155
Ni 0.36315092306228947 8.400322518317168 10.531605956036369 -0.6444310665367096 0.8473396998119149 -0.7493336181790707
Ni 5.623437439598342 4.263446052681254 6.37351370366507 0.6945701492849456 -0.028718450980615054 0.4087074436140123
Ni 2.0941137776185834 6.323463533381501 2.916488280531077 -1.1624790429597787 -0.20543731323433004 -0.6348171975960294
Ni -0.22534364741279012 6.719102685584601 8.752158730837357 1.4640740717643044 -0.44498545210944 -1.142565077644671
Ni 7.9005628561031145 8.546006696059152 2.72266257369941 -1.4510804877181136 -1.4635845337223954 -0.08016391124510065
Ni 4.27799568461693 4.95194703453086 13.025867487103453 0.8663758905077595 -0.20386791186468117 -1.3395455183608993
Ni 6.304687087778262 2.436109967920686 4.814960700024793 0.5401090699881665 -0.7733163542469134 -0.3310375024353589
Ni 6.594233216925547 1.3999676512929666 13.195415315520567 -0.3977316613287989 -1.6789103097150313 1.345020682542858
Ni 4.417076640118255 7.517237821051514 11.603882833062116 -0.5148814057696295 0.6301930685604565 -0.14682001781175358
Ni 0.7040575347300873 0.8212595633961831 5.346026022844667 1.2652100408721179 1.792023679302959 1.114636212444887
Ni 8.71345426772945 5.517532274927751 1.4707611444730797 0.39595914280940836 -0.8779479116160751 -0.6981923194185653
Ni 2.223952100566838 1.5675842955099681 7.159429590465023 -0.19798342805944613 0.12635377953760177 0.006334169748143929
Ni 6.103556507637123 6.010904752044154 12.240706791012103 1.5388880315514013 1.0450889003733679 -1.0488375687825229
Ni 8.44678928990257 5.5283341320781885 5.932068102100633 -0.09356501514235499 0.5002490005684352 1.1030963301260874
Ni 0.47943714210041344 8.976268148659218 3.440652625569709 2.260074497872295 0.6875263550642869 0.04612173405872702
Ni 8.099955746180925 3.2996855718807256 3.1581549430360667 2.1439920183537136 0.44741411615559074 -0.10565485642735352
Ni 0.5675352104355269 4.281987675302961 12.854312391840208 -0.3829208215682115 0.5712613272212549 1.5375921955581133
Ni 6.358189155890341 4.876972752987564 0.530136363104935 -0.03857400361845615 -0.06428760633447637 -0.45616383732376276
Ni 1.0940966284696303 2.0736278207097976 2.93603682409759 -1.8626431413927338 -1.7835572937031605 0.17435241890406747
P 7.71525934491718 5.010239491466176 8.301021515179162 0.5827847544798221 -1.2136136568520646 0.09570237320033195
P 1.9406710485668075 9.690486943446125 1.9634714207815653 0.5355931843956842 -1.494773043510058 -0.04994445023892689
P 9.016723451917422 6.388744322247187 3.4203338626237736 0.9653479355982987 1.664330097908011 0.19434197465211692
P 6.666295693497855 8.461075920098931 6.5768938879692795 -0.8100751590335016 -0.9447865665071792 -0.47114616966520795
P 0.7105799778650991 3.5729913436253087 1.291628781241786 0.3302684854798183 0.09650147206285961 0.4878220876589921
P 1.6582353593002892 4.4513138308255105 9.422830073345258 0.13197523948943723 -0.5928930465584176 -1.6285683669273694
P 5.290984455265669 5.138612519009676 10.539854817731598 -0.2606643520284349 -0.4696932392687652 -0.8708894621073969
P 4.9750724017520565 2.3365732025092227 11.905708325559631 0.11383327847308781 0.6674455251540118 -0.09859640691867536
