# total energy = -381164.59513162146 ev
CRYSTAL
PRIMVEC
9.32323574540464 0.00000000000000 0.00000000000000
0.00000000000000 9.32323574540464 0.00000000000000
0.00000000000000 0.00000000000000 13.64549792051861
PRIMCOORD
 96 1
Ni 3.2219424116583424 6.383171912966264 12.316754096299057 -0.45306617223504553 -0.11504246828984056 -0.428931483970371
Ni 8.03277860720025 1.8434927021650889 6.261373162840665 0.5037600990454872 -0.4731187200105465 0.37596778728914604
Ni 6.116601960150043 4.1064377748254834 10.849316899793878 0.41029869936053204 -0.12479826212502378 -0.72877764840459
Ni 6.687295858855504 2.168864302029852 9.241235897006572 1.1850427871929075 0.4014371352048441 0.28326049216139604
Ni 2.9417232418960193 3.356784368414813 1.0310277250661781 -0.5216138393974565 0.9068386265084963 -1.762721587904732
Ni 5.100415893865628 2.04865050195947 2.825164150188255 -0.15249778492282123 0.2880095768106072 0.5426328648512848
Ni 2.818106460824731 7.794756401849168 0.3105784219082192 -0.21886772770762306 0.9032267407875217 0.0533403632943533
Ni 6.578279264763447 3.2089364979699466 5.085458626962191 -0.2791233300645709 -0.565189152885246 -0.3610620738219072
Ni 4.446651965795571 2.2390775894759543 9.379478037793264 -1.3887680028321372 -0.023348959138585593 0.35076146322684754
Ni 5.747094162865302 8.864168820282009 9.550265729478488 -0.4791129899207684 0.3872009370008041 1.4583983615357659
Ni 5.04797269350919 0.9703716864530328 6.247809719662258 1.0567262275019802 1.260677700219403 -1.6914308107795448
Ni 1.2429551262434586 5.1117622716138555 10.622938483407268 0.21672085656794934 0.08974564139626479 -0.4062294143871649
Ni 7.028852595754715 4.6859794241333015 3.280568781877249 -0.5665058148141404 1.689985079471954 0.45800397585629504
Ni 4.631149475458421 1.8958240236940986 0.3814406065533986 1.0777030868639632 -1.2389912163849048 0.4868630661798325
Ni 3.798761676165435 5.119258153051469 10.738406756547617 0.7658061619127973 -1.037794937815116 -3.327254830828063
Ni 4.875287723375515 8.131949864478724 6.179131969122593 -0.3071411554337356 -2.3452906268293225 0.7005276524199613
Ni 4.344413363998471 8.824013644471313 11.752266675545114 0.9465138336109311 -0.5298056311796294 0.691901344203531
Ni 5.452852846732121 1.7567399947310187 11.465534293379411 0.2584855992095613 -0.31927084881773404 0.34331272025828613
Ni 4.4542037866468975 -0.019304691672540134 3.6615917074749196 0.4589473136061708 0.6260813603849282 0.8359633396541732
Ni 5.525285064255527 7.240079821937015 4.053354068182027 1.287320499617912 -0.006974374435304118 -0.011050601387206774
Ni 5.380532508036143 7.371537444163817 13.25208440167837 0.19526114403227662 0.3875400655077777 -0.2997507765069354
Ni 0.09557994691806575 4.951561113973916 3.3033016272868667 0.7790673977980777 -0.7498750925048376 -0.22730428851075046
Ni 9.044965005404148 3.266031992900225 9.992461200942593 -0.005832033300744795 -1.2335420203448757 1.637550772931638
Ni 0.9860067525859652 5.278788037726844 8.17593222851099 0.7876068027276564 -0.35807522327944136 0.5729148036642778
P 2.766576937558949 3.1077700682690224 10.982456433726332 0.16053248230183967 -0.24052824340019222 -0.5572724691413307
Ni 4.172157262703266 5.354399478596304 0.5610574023697427 -0.09970763770498312 1.2682241451080931 2.1625417563314433
P 1.1710263634434743 8.361338753646683 6.492541857688278 -1.3209060488828412 0.4823839473625563 1.0760840632033017
Ni 7.829979586017455 8.145617727896063 0.7373644495413694 2.5480010280507925 -1.4977912615110915 -0.6417051829651141
P 7.670859923709312 1.7709299593430181 11.783324238038865 0.4331434651691895 1.690960813121662 0.05342289570583058
P 9.60050864622886 3.2305477581346076 1.522100259262482 0.06965838372808648 0.5357839602502514 0.6187449746245149
P 4.741573878128934 5.171608121051716 6.9996084025888425 -2.4135590721884177 -0.7731844566547394 1.3750305986413869
Ni 0.6998225766746556 6.292671264813388 12.770466560723216 -0.20740240738050086 0.08077146292211251 -0.3431155166458156
Ni 2.769140827354152 5.023377997946474 2.924189032667513 0.18974278531720867 -0.5882475773666064 0.30326933118315513
Ni 3.1064368455755167 1.4403932869453722 7.435499502127432 0.5454991306554863 -0.536550663212947 -0.39530582549612564
Ni 1.8930084065371842 2.3439266972463524 9.092663611154114 -1.5143309110373275 0.2433608277529809 1.1218800384914938
Ni 8.401960091238326 6.01837234966908 7.232004967567467 -1.1533107461969492 1.9386482932744546 0.393041197831665
Ni 9.60628905231259 7.908341381394496 11.015396357491547 -1.868803761677491 -1.494757102670458 1.2000767987078946
Ni 2.501731783332228 6.9043407840640105 7.162930979513996 1.1461995890734646 -0.19395965161203368 -0.8848428389636954
Ni 8.41301744868237 5.4137139036038855 0.934258133283138 -0.8954219000311224 -0.8913418164244777 -0.2613225544377241
Ni 6.229897919391185 5.720709406063753 5.830120373022489 2.0777632291324664 0.44441569564889916 -1.4126098424467415
Ni 8.614744297768986 3.894977467752711 12.285028057811427 0.9423622733364029 1.8657626608583222 -0.9429909080593373
Ni 3.0017275863394026 0.1775945860105998 10.032743172757707 1.1067375264231003 -0.09428698091004406 -2.1102923121084234
Ni 2.9657305736147443 1.3608567638803477 12.437680191570724 -0.5527221307664868 0.9246918526398333 -0.7849390260875062
Ni 1.0307116673786967 0.8726529892839863 10.83635387298933 -1.0723050557768434 1.3572809879674497 1.2557270410823471
Ni 5.193872007709702 3.0023429198902507 7.25079408431028 0.13246606308292672 0.3085130960805977 -0.49441131084073564
Ni 4.673281177220329 6.568359342064914 8.75806294035018 1.2346576220065575 -0.244284882229147 -1.5948648040273372
Ni 7.414284479476574 1.035224113418255 0.8424671493206021 -0.8345345776274465 2.03326463249946 0.0501460247267717
Ni 0.8611770185606551 9.31273765561521 13.1815914171637 -0.12716419125403905 -2.3529676837586058 -1.2131596000337816
Ni 6.291515183596641 5.337160815936917 12.798726220207731 0.9795545661159839 1.1912527726583615 0.07910718784581214
Ni 6.406517294956045 6.661013657645762 1.5663669819811241 -1.261557531721195 -1.1528955130364016 1.2552855826695544
Ni 4.312733009365374 3.888572404882512 12.549368824991165 0.6292633576573355 -2.032751697418783 0.09641225478316298
Ni 0.012291753839986918 1.9879002986665735 13.360907072469553 0.1409566170524411 1.350857858049925 0.1434521297807852
Ni 7.274305419894078 9.138933897207263 2.7663513152569705 -1.1574736193253872 1.4486271410816147 1.4034924535265052
Ni 0.2137333119166657 0.8191860976565917 2.0527331468369963 -1.416074403956574 0.464510152405929 0.2063811652048381
Ni 7.316744788431412 8.586662712084793 5.829684045595525 0.05039362196120353 -0.5270985166611115 -1.6299986716159929
Ni 8.444240964770138 3.75001980034971 7.96167028913473 0.9375075163472628 -0.7558295103160596 -1.9023561437116396
P 8.38074040696966 6.725707589605463 5.0177365080734635 -0.41048124768498334 -0.4276986400045344 0.21724664716443232
Ni 0.5266099114049493 1.9353452194827094 4.638063586993413 -0.04993853670165593 1.8770958264829543 -1.0764658720227527
P 8.032834546613962 6.779670477367785 12.089051780454561 -1.6203326092811385 -0.4578149997739406 -0.1516621763954033
Ni 9.661762304245178 9.091767648211135 4.608043700624046 -0.7512166941343965 -1.6935177752155608 -0.007745191163057629
P 6.454364140152354 1.024315927744116 4.349884238659654 -0.0159053583763468 0.5555629426493915 0.7593706907000987
P 4.841658812498062 5.624307149764099 2.840405775778069 0.974523945670612 -1.6119330723635334 0.08365701200002368
P 4.699125186355982 9.00204082861463 0.7117311455307049 -0.45894422828237735 1.1536971830020903 0.5458369736108794
Ni 1.0509337654361388 5.925587508789567 5.649740936532519 1.0111925047362391 0.6251367370834718 0.1268073221352526
Ni 3.4835244334184403 6.060317586718611 5.154572704928822 0.7903234303278711 0.07664355679666801 -0.2116293009776549
Ni 2.543882131565375 2.477081148355798 2.903884890136624 -1.0276933306047398 -0.5743669627297721 1.3163973623792102
Ni 2.704735915698638 8.32591045829478 5.103811416278038 1.130196271666673 1.061444458913256 -0.10176683422685699
Ni 7.030829121705927 9.230282959801462 12.627120880758728 -1.087851231041559 -1.0413870260417484 -2.311665225465393
Ni 7.666645821209559 2.4831039585656214 2.7755897094317605 0.481003779185578 -0.37491800586839297 0.3720178015024625
Ni 5.899985903780006 6.850219401296168 10.63807102714034 1.1957498891977665 -0.8460667466367623 1.6386535190775133
Ni 3.858728727666342 7.485318211657142 2.3542027675455284 -0.20173749578523967 -0.2970104947576369 -0.3256158171991554
Ni 1.3696299285977536 5.721800224631167 1.2176872930690559 1.0382515657365603 0.302769251618285 0.3560306820455868
Ni 2.3195371128672524 0.8601151020236598 1.054166131225219 1.9892175215815742 2.1467220156903672 -2.1591445577244364
Ni 0.8002039899364662 8.613914529798903 9.096375191254007 0.7625676003708416 1.276466073401911 -3.8025049953593157
Ni 1.877466572760441 4.107901522817654 12.662039195122274 -0.3470906992434797 -0.3321955272992021 0.7897490458816399
Ni 6.944570545759659 0.31741608291113665 7.783378325099835 0.16859314782278706 1.0658130202945968 0.17266577523026394
Ni 5.832140718181111 3.747521173203839 1.5049212653110562 -0.7644229084120254 1.3628772511083045 0.5978532187771703
Ni 7.99705196830854 0.2690984143160728 10.325889008705666 0.3603676188580439 0.9561292452135082 -0.5454160840233767
Ni 6.769396271715732 3.1942524018701444 13.28978663419773 -0.5881143942228516 -1.9607381831949584 -0.8731659168463994
Ni 8.77169164617792 4.456208282304966 5.672378684938823 -1.5863058587137324 -2.6976356324932054 -1.2807526165924072
Ni 2.6213488963229987 6.918400223377346 9.267353076945858 -1.9542939702315116 0.14056400959971277 3.68119417756226
Ni 4.2176639757592245 3.8584303841265366 4.7189818135771615 0.12868705565646868 -0.4722093208223997 -0.07358240137284103
Ni 2.9931035933918992 1.6329833651254464 4.953601970250899 0.10136882745748993 -0.6868051606275462 0.7544580838898297
Ni 8.3693287665721 7.28336760491567 2.909438741594816 1.5386648597970018 -1.9977846944252946 0.4078643788874266
Ni 8.234412223930677 5.59869622151892 9.920071870303035 -0.3482708355945099 0.41132534085283357 0.2685990334944794
Ni 7.9233890836834355 7.89014242546636 8.834941408940251 -0.5261361527478423 -1.9831815998001392 -0.2003383014448679
Ni 1.5093292911116825 2.7596590967297083 6.623743090935559 -1.4193803284013555 1.403515850565273 0.052406281515858126
Ni 3.1427788180180745 3.9972533624922866 8.142390956048354 0.7531781887361416 1.6036420359993349 -0.3221209166720194
P 2.2544702514827946 8.17419344506806 11.617148751014323 0.32281254342240534 0.5466995787214908 0.26968378191822584
Ni 1.5153241316146493 6.981947397355918 3.634737991921738 -0.3179873541196201 0.27793959416911485 -1.565146451027298
P 4.321748578208871 9.206639234271876 8.101100210139272 0.11293416369758615 -0.9597367600591084 -0.21149123273789386
Ni 2.1417430096144074 9.209053952297177 2.8696210669135236 0.3971829879141805 -1.1197501366326845 3.0293051120856087
P 9.182566639903818 1.6479191885869595 8.285219196435994 -0.33620824800302096 -0.2526054862797005 0.037276367852955156
P 1.8444716419050757 3.890800658195434 4.663949550689351 0.015126057008161045 -0.16352190394746677 0.23725265797271403
P 0.9062455395425245 8.055639180937845 1.2976023395002088 -0.9710138756348243 -0.8560930205245127 1.4720887145386647
Ni 6.491974072639086 4.517070364425289 8.390152213326962 -1.4745137790403895 1.8904671055835376 0.8620052722438897
