# total energy = -340887.5713536623 ev
CRYSTAL
PRIMVEC
9.05894163428196 0.00000000000000 0.00000000000000
0.00000000000000 9.05894163428196 0.00000000000000
0.00000000000000 0.00000000000000 13.25867677362387
PRIMCOORD
 96 1
Ni 6.459179481489163 2.1879880869672315 11.764371171752215 -0.7412073895275105 -0.4101801715047968 -0.07262877921032009
Ni 4.875178218916479 0.5360221137917532 5.949738114628528 -0.5524128270561841 -1.0913317333909915 -0.33411896957416004
Ni 2.756400447044928 1.5522496716812757 4.5753444584363265 -0.37780509760820097 -0.42940456695204754 1.5920072799738838
Ni 3.514380222527366 4.5793765934165735 4.841259729154536 0.7720230893567864 0.42158764201079 -0.8191336696913442
Ni 4.803295515999695 4.814546721673626 2.292239294709719 1.0238683004316949 -0.8419745788452596 0.4583629018576106
Ni 7.114168148028826 6.0338531066125505 2.587881482834535 1.7326795330166869 -2.448426573489564 0.23243003977309004
Ni 4.757212679233762 4.46742619106678 11.104632902044402 0.5288000727332506 -1.0818402489607883 -0.07258969844226854
Ni 5.685545854634299 7.700037088890473 12.469547281572192 -0.31734020745392444 1.0394599842223646 0.24331737610955512
Ni 2.0991832808307183 6.568403142367256 0.4048567900611413 -0.3386351122769587 0.1261527192703892 -1.1495610493465298
Ni 2.975871429220722 1.6031609244087266 0.5867748350382915 -0.22289587503040967 -1.608724592728565 -0.06893667507071354
Ni 0.4586351978576741 0.18232297967411062 5.025953433888926 1.2565461945495326 0.6692856636865441 -1.6557346429295163
Ni 8.79808047934369 2.6289320774492047 1.3545862800198578 -0.33524639831038394 -0.13286586962450667 1.6797006668268106
Ni 7.078258502866617 0.6990178412071419 4.665330550579185 -0.335906400491886 0.05566438344183962 0.8183443410208293
Ni 0.7249753329447288 7.523007248890499 2.322496160209664 0.047156088860512334 -0.4555395734762026 0.702440553171958
Ni 7.5814464822258705 3.7638815966589427 4.051772048314207 0.07057472489476878 -0.5340366385418416 -1.1318304648359863
Ni 7.85898528112461 4.133187475651826 12.697318066194407 0.06307455986298169 -1.1143158529909907 -0.03515135109015237
Ni 8.119013145588804 8.742096219227028 6.983835341046551 -1.3110196430070649 1.4724417270027093 0.4537703973909217
Ni 6.747869837702404 0.7240585680379641 0.570685248566899 1.0073466486275877 0.48266882559282687 -3.5341160209931135
Ni 1.4969357732553294 6.404255117559174 9.290461141175571 1.1409421973292673 -0.1931762364787899 0.36250857646044665
Ni 0.25776584670510955 5.111027767806014 1.306542182361488 0.06728396995863896 -0.7790949086019034 0.8867490548474728
Ni 6.353108332345796 2.035136562541914 7.114910981253676 0.4370176034126151 0.5311243499910531 0.1659402835809723
Ni 3.4339821143501186 4.444008826600506 0.220955742731315 0.5253884759485403 -0.586413609481661 0.7944901601110511
Ni 5.819011243679412 5.570388586899182 4.656009805395684 1.2898183263391012 -0.4599135341741821 0.29484562589583413
Ni 5.197558779559149 2.5197174755128784 9.492456518789703 -0.3102128523805238 1.1283566473547728 -0.1529101898698915
P 0.3643769087777577 5.731719280817897 12.408729170128948 0.43704048623075054 -1.367401364230903 -0.2778465202346763
P 4.220189552376816 6.038491284796973 12.388841169374883 -0.4140756499044611 2.169558811079225 0.3544869917075508
P 2.4992080313536347 8.433684546788225 1.4757306023684222 -0.08770469970683605 1.1823055907674025 -1.668212977902185
P 6.489191755561413 7.823256814797731 5.789573306515155 -1.6402334619701235 0.2731169759694909 0.3426537465180486
P 4.762512160167135 0.9090104526126986 12.682494919781963 1.281834022582044 0.31881962021292837 0.004796392947378836
P 4.001379872949973 5.948291401628427 8.17223714614923 0.00531704133753923 0.7094871756060942 0.3629752316842201
P 4.822409883126904 0.9680385171628895 3.7810165850101836 -0.6240010808171318 -0.28311059684709305 1.4646047474567936
P 0.12965882171485124 5.834194030079983 3.5437656178293775 0.1422704507678582 -0.9817988820654705 -0.7864343796861101
Ni 1.4124067876325808 1.0282714209680182 2.486771010202475 0.19662897091408071 0.5136115379182703 0.32114364036041465
Ni 1.756628456874163 6.725630135665769 4.816519759190359 0.6743111419255936 0.4026954330919774 -1.2750051725856686
Ni 5.984282577266534 5.814291535019092 9.228463555514338 -0.4647857746648189 -0.02549994404331737 1.2274952999301636
Ni 8.354563749400047 2.0904776377931595 10.32392152398741 0.70278842342968 1.1543235037321795 -0.0812517449926407
Ni 2.3541653147309978 5.632188687629906 6.7554548896434525 0.10994757026543646 -2.3619110089948223 1.2312426827877376
Ni 0.5278908076621874 8.64988525098633 8.95130432627561 -1.05407439170143 0.9772439157049364 1.1692053059400185
Ni 1.250985504296201 1.0434904431356549 11.524866339859917 -0.31042805371512344 -0.40245940582177137 -0.9571949674738611
Ni 4.171316561546815 7.024892276920457 1.5794926272555219 0.9892584236673093 0.080000646194359 -1.109498634108005
Ni 5.697766367077241 8.026376407085083 7.837773768978467 -0.8602553794323184 0.10981413001136571 0.5564425170408674
Ni 5.237535889574494 2.9151674604437376 4.934441815952597 0.8626447056001013 -0.15166963259457103 0.36948269378543463
Ni 0.8563064353096669 7.313636986784298 7.041272655422553 -0.39172993521940924 1.632808373150646 -0.9612894492582089
Ni 5.352983043446139 4.452786941172196 7.414437643607944 -0.6716335950934303 -0.7204932969086107 -0.4342644661475102
Ni 8.107073460340622 6.7544556883666145 9.374666722577256 0.8585247698944569 1.4777867933647064 0.01003810096229239
Ni 4.250518889410891 0.4026418787992441 10.45255759117683 2.2839713590945503 -0.8619610492695154 -1.6308795315590492
Ni 8.303063665457776 7.367302157808749 4.952327790576277 0.07155200120637353 -1.3540249429239972 -1.3423351652908948
Ni 7.336202810724526 6.340996527204051 7.2678630599326 -0.02644328179319317 -1.128442779310676 -1.8963392480935988
Ni 2.3819581480704675 5.299915762578272 2.6313037084036615 -0.07143758711569631 0.6787974598317212 -0.4362326456174745
Ni 2.345985090315893 5.064202097815232 11.537501751835762 -1.3461751078622752 0.3099459718723824 -1.3840451434351713
Ni 1.1087691775046964 3.568597988999571 3.6572605697503513 0.036587055095414406 -0.5456641954784409 0.16442461826739424
Ni 3.9390090588879616 2.7063679116688224 2.868063680940726 -0.666550267033252 0.43131978169688945 -0.9852426176396967
Ni 1.1193771983132097 3.343963410016901 7.804680548811447 0.15722450097452925 0.3569971597239142 0.3742811436153425
Ni 3.7270751162618545 2.676699877383698 7.008404097011341 -0.3872431030926492 -0.12361118379545806 0.39107378969264905
Ni 4.406414218269736 6.719406642672217 6.174738674858563 -0.35751986499660365 1.1914654028897997 -0.4079497395123813
Ni 0.7905602595454765 7.557884174691332 11.407898189665687 -0.08794535496273241 0.4057609593911787 -0.20678997060748258
P 0.3062003847536133 5.4901625986154965 7.775272506155019 -0.7607660283857285 -1.7250484988339903 1.3209692980206087
P 8.66062915592134 1.5682387038990604 8.246286747936548 -0.5344693552038859 0.04237126587735929 -0.7237837947344244
P 1.6032605727681577 2.998102072315591 10.558427631812982 -0.5348249387710918 1.4194327789058458 -1.151194471184895
P 4.103881799037358 6.353325746948189 3.65395858547648 -0.8722518896725623 -0.28534848503867627 0.7475099347067706
P 6.803709154750804 3.9453140823574113 10.506441082697854 0.660929835522681 0.648636877087941 -0.5003281905458028
P 6.269231590530231 7.904433991966893 10.166727142879257 -0.9347286680505449 -1.8879211992332325 -0.018757226002845115
P 2.544403091826456 8.42182639201594 6.032274133062658 0.22205923806172725 0.21526381240644862 -2.703598792055176
P 6.8014715961344905 3.720625149724142 1.6507321453068877 0.30640530570897556 1.5951396549552788 -0.17246522918368362
Ni 5.153224318554141 2.887265919803071 0.5098173129439422 0.4202871780318117 -0.4094993433876883 0.1967331005921128
Ni 1.3558699320681638 0.8405909831332287 6.9939387787986735 0.7286287815315516 1.4554966145079387 0.6178605151370327
Ni 6.728139462535076 0.6478185141315176 9.161083146655479 0.47195246761658716 0.6856761892294255 -0.2564009487663907
Ni 2.3205475818357004 1.343622242799923 9.17499133994951 0.5331719765487011 1.4951666794040508 -0.09019378467727691
Ni 6.411574742506466 1.8061808683366467 2.672154100405293 1.7394551611776234 2.2043993157971777 0.12228552300549907
Ni 3.8054711983087164 6.696867995557288 10.216990681270408 0.3694749804759508 0.6984792545313648 0.2890274765521603
Ni 8.227041026153724 7.013722601722424 0.34682702089361334 -0.5362120489266055 1.6941430675043854 0.6511899825270979
Ni 7.671682601161483 4.021626607797989 8.328981297851591 0.2939058876903841 -0.8289514271127142 -0.001346486725565423
Ni 3.340584424738015 8.370507486908998 12.238170132232751 -1.6631476475641356 -0.9718021758640748 1.3598060683821482
Ni -0.06286271459992925 4.833769796102034 10.35454980609978 0.5192486815993896 -1.5917126315516006 0.4986477175195864
Ni 8.653880244305334 2.3639308539552313 6.168957258223215 -0.4060000719851782 0.5996110820085416 -1.0831702806261216
Ni 3.313634072982825 2.146099540239165 11.528446433646018 1.0834042510137987 2.0417821830521676 0.29713365059906244
Ni 1.3430062347598042 3.2573236909625694 12.89293594880496 -1.0400397679852347 -0.05310073647972145 -1.1081773441934204
Ni 3.0255869016350014 8.274654824078187 8.109311924851111 1.5790250087816031 -1.2137887489773482 -0.5660820970131606
Ni 5.972197948950089 7.745277444072126 3.54338151869848 -1.4221920868185378 1.911764324399417 1.2994890166596458
Ni 3.1444764533778966 8.295925219345813 3.4689469118860874 0.45702669954469033 0.8127797024488582 1.5411297763977265
Ni 2.957219068123601 4.322039234657018 9.134114677016756 0.414247399595635 -0.8286313247691343 0.30604200883228583
Ni 7.292629300827898 6.231039092042876 11.554870460884576 -0.16826301817687797 -0.5833547680506792 -1.0260879337908329
Ni 0.7398473976427106 8.96614196699488 0.17747372814652973 -0.11932464060496226 -0.23190296362502638 1.1023203711920113
Ni 4.962153118816169 0.332653400605825 1.7465259250162175 -2.9605281025212107 -1.3657645999584285 -0.04707149956650603
Ni 6.066039526708749 5.543682826571685 0.33942495957624674 -0.49314452831317007 -0.30926180132116415 0.15919062356196453
Ni 7.613632902322069 8.926128621212468 11.349904656265224 1.8145660833798491 0.3529415015973018 1.4237586599747092
Ni -0.020571044963255562 5.061846772955956 5.556459558039087 0.41560725605763904 -0.8561344152854095 1.0979957756747283
Ni 8.068446132648477 9.090104526126987 2.1762794047340943 0.8078802082647119 -0.18948027568444142 1.7487805523436077
P 8.789528838316162 1.7847745889425244 3.6856603521881732 -0.74720448765121 -0.3695382296137184 0.25414609129394294
P 2.1951808867297933 3.3169043509605136 1.5674940588858581 -1.1102128865662106 0.38143832348541407 2.270404161933077
P 4.541021033977423 0.9352089122012731 8.137327608158037 0.2708387214582755 0.4615891221043921 0.33870710316547475
P 8.543904691260627 1.7094041934456572 12.728926525805905 -0.6908255946408489 -0.6438435694643557 -1.0207007013369906
P 6.423297013152253 7.64833770822934 1.4579243464322873 -0.025613072582413958 0.8226761356269637 -1.7847168612289004
P 2.1059412513884905 3.468650684490324 5.8106679583125125 -1.9152880212819594 -1.2725875642831117 0.21490951439082345
P 6.956243616214296 4.279969509093622 6.088543749844964 0.5175435259828247 -1.343345865943596 -0.20450374567646715
P 2.355795924248959 8.43430961377011 10.095766640234299 -1.158124879756141 -0.405081931046283 2.4388121903282514
