# total energy = -381163.02774788346 ev
CRYSTAL
PRIMVEC
9.25868992629641 0.00000000000000 0.00000000000000
0.00000000000000 9.25868992629641 0.00000000000000
0.00000000000000 0.00000000000000 13.55102858986269
PRIMCOORD
 96 1
Ni 6.047331732889323 0.44791874485581656 1.5307373259704407 0.28124911815832204 -1.5341042370095128 -0.6294237944945998
Ni 6.226431827570211 9.043564101580705 10.437029315590474 -2.084038006397585 -0.33415959300410836 1.6251441717371689
Ni 6.613037677109869 2.720166016173803 3.366847535149806 -0.5131528531142968 0.7955707947697395 -0.6438093737923106
Ni 5.981835761540451 2.207558657716021 13.534902654577415 -0.04936518069668918 0.959608204901044 0.2467487703886073
Ni 3.706679409900466 5.9632257951266485 2.1996165536415138 -1.1595299876337837 0.39624350681904663 -2.297783068166662
Ni 2.074066868783585 8.597813741866238 12.401033509874521 0.017169826911067203 -0.12779076909444442 -0.17229733614725165
Ni 4.304031555714233 6.938563950315273 7.43944702993236 -2.696651928423697 1.0633730433945363 0.967425644062934
Ni 1.6784800901785601 7.7158587315779155 5.448651890964244 0.1596120273700993 0.49227446700339095 -0.4709569364725373
Ni 1.9653605923336106 8.379456802610962 1.2239645288700898 2.569704224055839 1.4055801892934696 1.8585586869107151
Ni 6.473694396250307 1.780964527111084 9.084446772076616 -2.0466749923680947 -0.457016158021729 -2.524183871026537
Ni 8.019099338535547 1.2500712563810337 1.9475403921561756 2.2577011125441118 0.007090845408510369 0.3343172016278952
Ni 3.2079508273900914 8.495051544240969 3.420875693364284 -0.33374873071893485 -1.5229073398524289 -0.053085824081386
Ni 8.8662138992641 6.681098305521739 10.173583483082176 0.7697816016207775 1.6995038175956665 -1.4396588761447335
Ni 9.02070439656793 9.221117995071987 4.895335925378002 -0.3815743348426461 -0.9442553765940577 -1.137714434420589
Ni 7.692378694351348 5.023996529994656 11.246892463946246 -0.1644071347658975 -0.6629995735675163 2.128587510873186
Ni 4.051528568631046 7.215528395739388 13.287243813975671 -0.8300600867958607 -0.9070407152169734 -0.04239620557802375
Ni 6.153501128345575 5.917154554890292 7.393481338759245 1.3872685354684753 -1.0043934795365348 0.23043589216119667
Ni 2.6002474664267567 6.396606545324281 11.51851001603505 0.6066870150187165 0.8718274005406339 -1.1581822153566377
Ni 2.339207967386592 4.10501601936365 11.469617653029397 -0.3796251815360753 -0.25015419652573045 -0.38528289404248484
Ni 7.720451041697938 0.5500791276468067 12.852391857975476 -1.2022869189853358 0.7008616387206124 0.7003155364091551
Ni 7.882413301636563 7.786400688844958 1.8174909840758053 0.13426866350930422 0.6171208087575308 2.179786145234188
Ni 4.561478683128251 8.087595125366049 1.7530967968081475 0.1369122717797384 0.1804770437445666 0.050008984928275164
Ni 0.5089909142382644 4.87306136955794 4.285336409354656 -0.5540465060048652 -0.7803984579046753 0.47194141187299365
Ni 0.021360723140936504 9.169565610498829 11.180221564867066 -0.9631167322749347 -1.6411428611582706 0.08408972866206808
P 4.9958223370607255 2.0939823104532804 2.0691338388804636 0.49799928530231 1.3143469076080847 0.6215053109784715
Ni 0.48236847770779373 4.64399212625253 9.724692575801757 1.0995489790944613 0.21188975372789318 1.6163509989255713
P 4.309420113153453 5.940949387568635 5.144607629735608 0.7247772689959453 -0.048129251407059044 0.9266304644234429
Ni 5.783505368231968 8.652782582960139 7.938449669659575 0.2730753240982781 1.6309643779633718 0.21954778449378315
P 5.027885179693062 3.73772379665941 9.65888829008394 -1.0089039658123786 -0.16525277059564444 1.0257228371419305
P 3.3609321582633496 0.4825860569171093 11.247298920426624 1.3669640195831683 1.0971280283577944 -0.6516795205690067
P 7.829296198494284 3.1056237881834554 12.902367487682827 1.0121546115391924 0.6944863313218879 -0.23045183300079666
Ni 8.149683898883936 0.8081595494402792 7.305291392944268 0.3707283932670776 0.6830312954074108 -0.8981560111328337
Ni 2.9645213562698522 1.7349025455644846 2.658549435833578 2.462564812663159 1.564000510348313 0.9509194188777944
Ni 0.5795810166920498 1.5268134932509536 12.611034481623102 -1.6764160825382677 0.675887485273778 -0.1326889777270102
Ni 3.561160582972245 3.3260731913240638 0.9936212898539645 -0.041532314915831696 2.409901420831172 -0.07816590697846539
Ni 8.139971533327678 7.290218246018064 7.440151616222952 -0.7174534816410225 0.8780988353716426 2.714552205742886
Ni 7.057926978676831 4.261432324137167 9.221461492462014 -1.1421858399283813 0.7945942897890831 1.8457574213809889
Ni 7.1541710587123895 4.606827745563476 5.3477914282152925 0.09782610441155411 -0.8426826606558777 -0.21092199049798516
Ni 5.563537416958781 6.2056645864427695 3.3848297623980086 1.6300480367966894 1.0071129353502268 1.1666717408848877
Ni 4.917753065020339 3.8025624010354573 5.661876738486599 0.010244817656459775 0.4058594326422559 -3.449367575701124
Ni 2.3904270391284594 0.8114315704007954 4.723278915996109 -0.42898856246055145 -0.5894056022304495 1.6913066264968548
Ni 4.630965149762869 1.8884949499617782 4.445902458877758 0.011122592275722779 -1.3399774636919957 0.2809079327688194
Ni 0.8418898820980513 4.03274268711184 13.452851220072064 0.6557719454708254 0.0054867341461841 -1.3462581544943848
Ni 1.1456239772197903 7.43517229287104 7.669773603306921 0.03926100238315174 -0.845062473741964 1.991532799978312
Ni 0.7264330949454387 1.6399176473360302 6.02108797676996 0.07535646255412828 1.3962360290744082 1.1729963975513347
Ni 0.5529104349748368 7.225898128268471 3.2181659398002145 0.1479289346052162 0.43513452745728937 -0.18987159758558914
Ni 3.520903799903981 1.091006966336697 0.5577416192906189 3.243688064549001 -4.900615185124722 2.108423377220485
Ni 3.832560555851735 1.9037995641319347 9.432071685996679 -0.8458877978567367 -0.6639465108618179 -0.7679203800423227
Ni 2.22779815352725 3.1353349236172314 4.205073753710574 -0.45701204425667097 1.2631163915678827 1.226594899603081
Ni 2.752293669634446 2.1860784974772045 12.655020664925933 -0.9361283766115491 1.8669160577364754 -4.5708907450738305
Ni 6.606399196553304 8.098909244250459 5.9337924203856165 0.7789573545827745 -0.20712138580497233 -0.7123611547197796
Ni 9.013834448767412 3.4395847277584974 1.7108169900277364 -1.9291575801752003 -0.12054205795183111 1.1295403832502289
Ni 1.3977195819536203 1.7870567449719206 1.0400712105014285 -1.6427204900580354 0.17897474816742726 1.3778408143966723
Ni 1.4122649835636116 6.283576460757269 0.9301816735003677 -0.34158828136801167 0.06032296525977354 -1.6432483375370472
Ni 4.522295908071928 4.082165573040633 3.1895464038889196 -0.2437871166571221 -0.8165219431001098 0.6827322761097532
Ni 7.0311230718271025 1.4700577250337368 5.310363174868131 -1.2645320409684866 -0.25406792975783987 0.7640830085741034
P 6.87253097496043 7.009105907582316 9.708837069590993 -0.9884886353808202 -0.1650653371751867 -0.4287584487276164
Ni 5.219595609824496 4.670360874683629 12.836374324693946 -0.6952201241641188 0.2967446426907599 -0.5059745901983028
P 1.4175979888642833 0.51962544529443 2.8559067408484835 -3.558522731972252 -2.4246197008779533 0.006756859107859331
Ni 7.730441167946939 5.169070939814487 2.919935209870696 0.2977057210524486 0.6010753252588938 0.16043298060949787
P 7.365491393751501 7.784734124688498 13.325607194988402 -0.7987867306038758 -0.7162715455177793 -1.2079371752925776
P 7.71941406844503 7.5814318149799105 4.028300367765898 -0.7865801612353551 0.1443072786922289 -1.39648362630884
P 5.05822590603039 1.342417428028427 6.836995197799825 0.11496147854026008 -0.303575035349032 -0.32847642657640197
Ni 5.220919602459905 0.09365905385509318 12.717192766651644 -0.22645865268100357 -1.2056429799417623 -0.5225875161646354
Ni 1.2133049993515772 2.0619194678209443 10.448764704858878 0.7863994126831165 0.9110259251169666 -0.27139767928553904
Ni 5.994353510093416 6.99923614430017 11.816849072634739 0.2565708986853517 -0.33620336290701447 0.3565233054112892
Ni 8.503004758743186 4.9468901616891126 7.759968981323505 0.4286530334980037 0.9508777670065817 -2.0053558219043337
Ni 1.165807920892471 3.603917212275199 7.431573440162063 0.8598974818722674 0.3249802404976855 -0.715623113300503
Ni 4.185501809430904 8.186913090401298 5.563117072443763 0.09193904950315779 0.3867162840549017 -0.784246628006172
Ni 3.0818104381255953 2.292507136246684 6.385434084393169 0.5144903409787978 0.245804404197467 1.0549285121716092
Ni 1.626631427533142 9.09900513585227 9.653576579769712 1.1562986251806795 -1.640935887353787 -0.43332318528016345
Ni 1.641574952802732 4.688915288958882 2.3075099171307256 0.7108341765522919 -1.9812319322729361 0.662916784045723
Ni 8.131453538750216 5.621811610296327 0.3718363876375202 0.40864188048339944 -0.8857064725155714 -0.0236070978959787
Ni 8.787042843142498 2.8137991456975735 8.967135469365454 -0.9539353228859829 -1.9719191395124425 -0.9526083765444431
Ni 2.473616366605081 6.028573627439392 4.125976767107036 0.24391824291834766 -0.5490092006912739 -0.027678439751874916
Ni 8.688465573287896 2.6657989899141787 4.149203116234232 1.7083288720864644 0.20479685143685375 0.025051286541672983
Ni 5.938264367538784 8.861612330454319 3.9159350571235194 -0.42559059252259607 0.38798460924436406 -1.6860806022112254
Ni 7.887885187283607 8.898924850179503 9.075937110319938 2.323269642473541 -0.41717537187570736 1.4985741624237028
Ni 4.01985459096855 8.484052220808335 9.456856272610164 -0.4057879559743721 0.5291880522002885 0.6252745482129166
Ni 4.795066167035618 6.125215831134549 9.826880734662023 0.45987033964107255 -1.2912861691338793 -0.16755365081467916
Ni 0.3907500390753881 6.24089390097238 12.256444255398014 0.328426290064757 0.35760856805566793 0.04199588481581155
Ni 2.7013616172750807 4.155401809027286 9.150453823100138 1.436556840180642 0.5633400154916492 0.36939604760889927
Ni 7.6378450116760765 1.5972443462408994 10.753607991013638 2.4283755683759596 1.2474591446466001 2.951320467880014
Ni 8.585462649728917 6.427974986224759 5.554241692441638 -2.0396772208940224 1.0301926999878257 -1.8739410829040568
Ni 5.74610952029896 3.4194933709833975 7.579442122550892 0.006747603136478702 -0.7248965681826289 0.03440984493843751
Ni 5.085400160470444 2.123850843612945 11.422636283589817 0.024573832684622196 0.4491138724555168 -0.8825247323534802
Ni 3.647701556141303 4.798408554038296 7.070329919476796 -1.5794721236213507 0.19374882115280823 0.5929346984296304
Ni 6.256892916874395 4.188436814084224 1.3172050899481165 0.2331139532139921 -0.7196666872422574 0.5982350275966213
P 2.9572903195687683 5.056642670081754 13.327531150720135 0.28436041009379415 0.7817508581675118 0.15914537214632593
Ni 0.13076510479867223 8.330589438067655 0.15699404701442318 -1.087195856845747 0.11067210713628683 -1.439848109337404
P 7.9462982609675255 3.037507607633037 6.699804562309025 0.3991897339315641 -0.4331915447983056 -0.34309263382768007
Ni 2.6033491274957243 9.040453181821979 7.226139780071158 0.9021106249052078 1.942191787651339 0.3711896491742124
P 2.7366464839432396 6.706013439660814 9.239727961485789 -0.8283757571149024 -0.36333955700217424 -0.5298699087586616
P 0.9391274195446541 5.696640340921376 6.419298668052433 3.025314502868977 -2.015332730611387 0.6618289502981828
P 1.0530463383284445 1.3467227187659483 8.330833867477269 0.07157282714197995 0.13986004155415266 -1.6302385555409409
Ni 6.131956157278453 6.514812237466076 1.036477913006306 -1.9118288590887653 -0.457701871234844 -0.5679268635313832
