# total energy = -340872.1247641271 ev
CRYSTAL
PRIMVEC
9.20302386630039 0.00000000000000 0.00000000000000
0.00000000000000 9.20302386630039 0.00000000000000
0.00000000000000 0.00000000000000 13.46955568423910
PRIMCOORD
 96 1
Ni 4.476249650079376 3.990237951581483 10.381162024190099 -0.406951380154854 1.0986578347387594 0.22509802488805103
Ni 1.154096024208101 7.2229105749059865 0.701437925363608 1.5371126848185335 0.6964205722301232 -1.0456298604785024
Ni 6.998596067441725 6.147859324005941 2.8361492897925977 -2.1582271881164896 -1.9029369559157745 -0.5872304489560016
Ni 7.963137405909226 2.589390447348282 3.9177816231693687 0.4731166631280175 -0.6983177892528359 0.19759133482735006
Ni 5.223038237208899 2.9145240829519947 0.48651786481899517 -0.7159031064347671 0.7912451708111922 -0.6205056660693636
Ni 3.193909486152129 5.479949855752113 8.729242220154394 0.47518665828316864 -0.7584456077826679 -1.788441104158023
Ni 3.2424646408818174 6.680677602669717 12.890364682647037 -0.11069601839568677 -0.23995977249123188 0.6851293155870201
Ni 3.81425772627043 9.190047756163821 3.0598656006955576 -1.0425663910618304 0.6402532810099361 0.4209919174083201
Ni 4.644048387036621 7.060458794904381 3.578860937281246 2.1562654364044285 -0.0897924354738002 -0.07944785901468253
Ni 5.861856946535404 0.6638886670594751 4.385741590051969 -0.3988022686851584 -0.4445920733257633 -0.3540990122405127
Ni 4.242925382099504 1.8379267240165837 6.2224231449186425 -0.24115250724775242 -0.5947799791684852 1.203507164545682
Ni 4.587293337905083 7.150455166796274 6.09452964041466 0.04235943880281737 -0.9101756613015293 0.05652750277308329
Ni 7.87849719399699 1.1089091762697438 10.810665314600191 0.3606159874234241 0.6037287037213409 1.0362422486160152
Ni 1.0296987485293279 4.861368596245659 0.3620497258552675 -0.3489825169495538 1.1036522026295574 -0.48846949143500384
Ni 2.734798226864789 1.7623422877400605 10.271317490394201 1.8598352396302937 1.055836368697859 2.688966643964298
Ni 0.989039788408826 6.778625387314919 8.71682273923936 0.7165821347796627 1.698990111184042 -0.7998429397825323
Ni 7.738298326075823 4.8166050874122215 4.6234658238158195 -0.9464444138255764 -0.5422096612709372 1.1521547782156352
Ni 7.664158764570445 7.854615346665008 8.016985219752835 0.6638362105361987 -0.051417949460659834 -0.6414935811749404
Ni 5.187210864698914 4.265086263939741 2.669935313571603 -0.7368529692135568 -0.5227870337699512 1.1523195859282735
Ni 3.995557299465062 8.79918612300904 11.168053708789312 -1.394468395651024 1.428856900433223 -0.6760522929864163
Ni 8.40665874250663 3.6441950454042575 12.952728974918786 -0.1897957500423312 -1.8205791223431482 0.7113435120885426
Ni 6.952930662254325 6.197049487393013 12.412977137958316 0.39564546822373153 0.03281473253717574 0.6731628872537632
Ni 2.4257330712000518 7.444114460251477 4.702868594758254 1.5681402435482994 -0.23751773870864254 1.3830683813441986
Ni 2.7462651947937484 8.257956280390953 7.338631239538674 0.2832720621256218 -0.7112872049293105 -0.3763647656172486
P 2.0005717675226107 4.497168123676909 2.7003761561226627 -0.6593689187934645 -2.0614490653534756 0.7498157000218119
P 1.7261652003173145 2.075852504006473 7.095896879498318 -0.00945291788278372 0.5585557067291284 0.24886247429750044
P 3.88020659639798 1.7946080899542929 12.369726606273773 0.5344822107196924 -0.03388662544511584 0.008164795198979486
P 3.6044195755896786 8.042918421138884 1.1539828270126546 0.4481198839733637 -0.1849044833883009 -0.26011156484875847
P 0.7225156112766874 1.4005069923444597 3.73106699064135 -0.05177456146913019 1.4053379913756765 -1.4494771477867359
P 1.9161616312108765 4.003205012425708 9.974946986062697 0.6348678483283067 -0.7926911592290993 -0.07026233586067254
P 8.786633198245715 8.019726800608403 6.19080983710743 0.31970896479641714 0.053600816044591555 -0.6185102329058896
P 0.282993908918388 6.622578912031256 12.032677815471324 0.3543586936598026 0.9817230345222125 1.1619169998087218
Ni 3.325144608677786 2.1742604398526755 4.1870786714387425 0.052329919751967935 0.89450555886444 0.12819906027645664
Ni 1.0958961003054184 0.5311359658729147 1.5666169743940286 -1.5180883211972307 -1.7521235006739115 -0.034250436542437784
Ni 5.628311805979051 9.048330389279347 7.04286721449009 0.4667488119284606 0.3283941512752409 -0.8601689903660992
Ni 1.8999366998635598 2.2597197209026936 13.273681676710197 -0.6331994594869482 0.055579279927201054 0.46469630027480613
Ni 7.136107652349044 7.0454854748237885 10.217250644578915 0.23532535904301408 -0.24985106346301486 0.2844570835726585
Ni 7.294114371748975 3.442271495380734 1.6111338421837276 -0.406727437069506 0.09535218894976481 0.7344433313307995
Ni -0.04503959955403693 5.523701031943346 2.905867718558753 1.8200085945516589 -1.2777151153176638 -2.292822638837593
Ni 0.46611384026418207 0.24083853709222913 7.543732593756314 -1.351969088836233 0.14689792223754056 -1.0420352011487086
Ni 0.8745817786716873 3.9292219023286705 4.7471968005555425 0.4071866360941116 -0.9693529429926339 -1.0506046879852746
Ni 6.705838670340484 1.215443382325635 13.354027757614686 0.26556564598479426 -0.29218479123421937 -1.5224908211403003
Ni 7.324659208471461 5.733456355407917 6.896817063896984 -0.8303171971119895 -0.6032543351880837 0.08875396690695683
Ni 5.530336412261789 3.3173128352367383 5.02295897319899 1.3573074703300108 -0.24728664516994833 -0.8636944870208546
Ni 2.515149652578683 2.1122780730777597 2.118343786209363 1.9393190940892346 0.9498506112936479 -0.03415042062946377
Ni 0.3007152519713618 4.523415148182041 7.14630000145123 0.3141764650139621 -0.48972341844676304 -0.9631339586661153
Ni 2.7694384092761895 3.81706464859654 6.310797023675804 -1.3249894749235955 -0.6167629111974797 0.5313611485922075
Ni 1.7971205155117618 0.6450767656601276 5.472842360301443 -0.9456887666064745 0.10353883852561523 0.028881973141672842
Ni 6.501080588918792 3.9354707556382724 11.629830163832855 0.393533049866419 -0.008169937405302058 0.04308243301177096
Ni 7.173987299215496 7.277576537584976 4.998821281799249 -1.4611041905027031 0.3543062431553124 0.3589666247454592
Ni 2.6567749892229573 9.279409119398332 13.089256756558363 0.03580441129311898 -1.0542533404814554 0.39230303411405987
Ni 6.258571702966926 7.965714252634835 0.5858783136512713 -0.23531790284384632 1.02052406654981 0.5146844592674749
Ni 5.6020555784498995 1.8972494168497105 10.796562600591894 -1.165062744526555 -0.6611278104661 -0.08376294145026864
Ni 2.6021090265439666 4.133565847669463 12.126869846013951 0.6967949248504064 -0.20396458534354547 -0.9537897984470542
Ni 3.36929151490188 3.0259174856904627 8.528249095859294 -0.23547576857794927 -0.24851049027472039 -1.7801701223984825
Ni 8.674365508225343 8.764693188981958 3.8285868346696197 1.086725859187864 1.066809579879911 1.6184531328702387
P 4.797600842810856 1.3533599002898353 8.22849740050283 1.1246974533356309 0.582734617968177 2.2192739189161648
P 7.74914869139544 3.073248638225488 6.072169973255589 -0.021448913902395318 0.2842493384372266 0.8303094838025056
P 3.199468112660228 7.464131037495047 9.437795003387889 -0.894835431400033 2.189379702459894 0.5965018469555985
P 6.0282476208175835 8.525267316076805 11.528687089247898 1.4966656325470804 -0.005103125554520244 1.5042709556981644
P 4.763503638816638 5.033336303083978 12.57132528954939 -0.2528762234425838 -0.8595413840844294 -0.49657360859937705
P 8.816027656965698 1.2599768155585702 13.469461287897946 1.3756216952581664 0.9478616058880772 -0.1035717486460797
P 2.2883411256049935 6.002166250744813 6.537691138772881 -0.3464818620148872 -0.2821711157519592 -0.007649289015141666
P 5.734772387842781 2.095758644961802 2.7214694871765763 -0.44313142961983687 0.6380986965607784 -0.5383458074401567
Ni 0.5321621030511482 2.5745919847240706 8.88453220686361 0.6626000241362523 0.23358806463693318 -0.11197539932874265
Ni 3.2728254171239035 4.310245502806039 0.8887010581232205 0.7289990203867768 -0.7203333742919789 0.2120548185508477
Ni 1.7964763038303593 0.16294874329868775 9.239320746767072 0.23785352478150648 -2.263562199310579 1.1499186897962648
Ni 0.6819965371212903 2.2125174107039487 11.244142470782133 -0.7115610274159874 2.8521980132545397 0.38985971477988984
Ni 6.384781974377646 -0.030064438868640752 9.454415664768065 -1.5517152652230568 0.7956265877083394 -0.3487454612380832
Ni 4.815390288241579 4.694600597978657 6.808563744754485 0.3892007410396523 1.096435887386776 0.6928763065222906
Ni 7.689669547153973 1.0719222227332348 2.1113531691637464 -0.12589098096857027 -1.1015446693682514 -0.4142767101716736
Ni 8.522497205846776 7.596093198918287 1.835981204738749 -0.43989415362946177 0.2767615147006136 -1.1571486318858006
Ni 3.485083963121923 5.030510974709827 4.563054413241123 -0.62988402196047 0.22870451129238678 -1.29852511008448
Ni 5.211690908592199 7.268990116174287 8.557006705317091 -0.9632578858384895 0.5759754448674725 -0.8632576565937521
Ni 7.5935899763848385 1.7054768023202824 8.098247001547318 -0.046025831910811055 -0.358460374533002 -0.028059477240377485
Ni 3.032184745048105 6.262777484944081 2.1965612076580174 -0.4468263619729208 0.6567589919744431 -0.15990179069637625
Ni 0.4065371439681025 6.244141361303516 4.99724572408702 -0.09885094613164266 1.1532405550806462 2.2488765722739466
Ni 6.013292706785032 3.4163465767163035 8.379046909539328 0.21867643763242336 -0.7958826695832034 0.33003811463656707
Ni 0.082366144676885 4.712371637361339 11.149155298964176 -0.26358101145459767 -0.14503927176224699 -1.228800391894832
Ni 4.642263000376735 0.6559740664022475 0.9405591781736992 0.05880087218829228 1.023874728189598 0.3379334582242438
Ni 0.9023123306488479 9.302416679448411 11.58872117583777 0.19318960621522857 -1.9664596590597683 -0.21827945930432083
Ni 0.4962574251393951 3.0061401870714146 1.6022575255164069 -1.4603220609210397 -0.31799069655372975 1.1187250378022797
Ni 4.766752306295709 6.63005176753552 11.002835499767285 0.29669939127512124 -1.401173832695658 -0.606152225561169
Ni 8.275129123212333 8.429583475340532 12.795525679515803 -0.4739162762111773 -0.5954284113857616 -0.2439619516720895
Ni 2.13809255545395 5.989438468525108 10.753622210816825 -0.27184556545623506 1.6790077545248439 0.9921858817267493
Ni 7.690921158420697 0.8279426935429687 5.86390369907746 0.8686387184000073 -0.2809187314020969 -0.015027069536451538
Ni 5.448374280339384 5.826480522202401 0.9738271897037131 -0.36946392473235723 -0.15810484669695352 -0.5568919458734602
Ni 8.404698498390365 5.555718352509038 8.98047649317965 -1.4556192561287318 -1.9128462446096863 0.4672661178845114
P 6.760237745322894 8.170187040311907 2.94748931499175 -1.7289977132897256 2.110909376867132 -0.17176203246907193
P 1.219170607053748 7.520784853362365 3.117636663678907 -1.7469617539673141 -0.31164572817230846 -2.3521971241411683
P 5.59370843566373 5.515694401045918 4.814611712409484 0.9830936896174941 0.06820751021417285 0.16807944141116213
P 8.760892340061686 8.634884535179406 9.803196470591251 1.0096045914238292 -0.4242104243456178 -0.8942348217015565
P 5.825900731689139 5.404659916244231 9.036132701243197 0.5461244229443111 -0.6882588623549373 0.4944820161776709
P 7.842182061213944 5.352239491426129 0.8020343403217746 0.27528570148603554 0.7564244635875812 0.3683904891625204
P 3.743974231829445 9.049977730578933 5.305348243439261 2.3252460494736216 0.49412077618351036 -0.08068841629000297
P 7.82100590294385 3.185028567972797 9.912501707179574 -0.4225613187779691 0.05109707578613136 0.16884948680796724
