# total energy = -340896.08614955784 ev
CRYSTAL
PRIMVEC
9.00301527357715 0.00000000000000 0.00000000000000

0.00000000000000 9.00301527357715 0.00000000000000

0.00000000000000 0.00000000000000 13.17682289161674

PRIMCOORD
 96 1
Ni 6.266188570381248 2.0291085561717446 11.31721767923783 1.0513909313319958 -1.0270495263731538 1.1324590995589205
Ni 4.550925122129634 0.39367664380508166 6.022268980783116 -0.18465045839596583 -0.6563159908997537 -0.13277999477891972
Ni 2.8659298107921765 1.7041177155033316 4.813717732374151 0.1089633519752962 -1.0109801316151168 0.46075608468013546
Ni 3.290683062271346 4.363689416179692 4.748676349767777 0.7770691364211262 -0.3709420519397805 0.2249548144419674
Ni 5.034116944908561 4.4918293307243635 2.624242968949758 -0.178420418325854 0.0374674008178387 -0.3253293963069881
Ni 7.059444234719823 6.028346916306835 2.559071042623796 1.3397550632685442 -1.6177427370667752 -0.433620404805608
Ni 4.949182500039988 4.416231012560125 11.479279154242095 1.2811904754607741 1.1049336404451422 -0.6429699086101507
Ni 5.521270094350853 7.916360219141681 12.364537530638806 -0.48171726031283485 0.06709062300091026 0.9373563354813793
Ni 1.9082160688180005 6.427108463065252 0.2517270043310165 0.2866438068113321 0.6765042929221704 1.392118664471925
Ni 2.835562640711436 1.4603880895247374 0.3805088338554551 -1.2723469090272153 0.670110987801317 0.19001197981819534
Ni 0.6708434680285226 8.843778815156268 4.427979047021542 -0.3190283937896248 -0.32636015156434767 1.7002787480884785
Ni 8.604802781173712 2.277384704798063 1.446209240974439 0.406121685164707 1.1510116657501275 0.2901896151810615
Ni 6.744500758952123 0.5965136746980753 4.759494372764817 0.37602512288964274 0.3735568638548083 -0.16732585107458925
Ni 0.7104036168728096 7.475293504221568 2.4595066981462077 -0.16438939415408463 -0.7486005966677882 -0.06096934059452081
Ni 7.802328029327672 3.711799095632336 3.7426659330535688 -0.4981702636625356 0.4223319763759823 -0.2838294772909886
Ni 7.412344422334662 3.846295138868677 12.454179652126182 1.147507509251611 -0.012491704709107519 0.3203931353476353
Ni 7.739874113273685 8.89279122960025 6.82265593341726 1.1743112597080165 -0.5557521758420623 0.16643856337362947
Ni 6.899955821443715 0.8504788285938922 0.42872898296676376 -1.115120608280473 -0.7011586011357409 -1.1683452719325684
Ni 2.018917143028727 6.364987658571595 9.38826226473409 -0.0733034366798415 0.6795009136566491 -0.6885676518446077
Ni 0.2709430398543879 4.884135715624526 1.3817476525433392 -0.6096386414478727 -0.8542449115721804 0.16917910223324412
Ni 6.2583379411756725 2.035059549181934 6.827979416271911 0.39165640166899646 0.3380383592332243 0.42768449893714733
Ni 3.329756147996342 4.399566431528566 0.5048953913865887 0.6307255440251588 -0.5672480922968037 -0.3588468113381432
Ni 5.781250162664382 5.465118288897673 4.77007561646357 0.6831513659250429 -0.13261595839722964 0.874168904189617
Ni 5.181019143013346 2.7347288710985427 9.43241755250788 0.05044504402442926 -0.0718034550955473 -1.617950225091891
P 0.21053730974566393 5.589990108945068 12.477423636624982 -0.8765137502727097 -0.5984214325758146 -1.2362241951627289
P 3.9534580281278084 6.116324380294085 12.420288701918077 -0.18428639018832776 0.4900517483204592 0.4867918466222649
P 2.352829971704853 8.366195870812058 1.4175094292983692 0.2652933661600141 0.7021842141867778 -1.1485578048929963
P 6.267890140243465 7.662871324746982 5.8738713818629105 -0.7866778631554839 -0.690927667436352 -0.028246910660835223
P 4.7213071837299925 1.0520383316379511 12.54451950728722 -0.08090593161744775 -0.059812087061626024 -0.13796025342827856
P 4.055354153527695 5.8909879142547 8.341903935350496 0.07664767056172606 1.376518753151139 -0.9795517379025065
P 4.8556321696785965 0.809263025264622 3.658294176631495 -0.6121691211792102 0.6119783453246429 1.0426435241566687
P 0.18563857106339443 5.578349210363866 3.430968044245284 0.3839587759144226 -0.07910873050770892 1.4542267466565792
Ni 1.482643542960726 1.0214100741180347 2.600893649173772 0.310445022995988 1.0480289568382983 -1.0190917049786579
Ni 1.9072347401673038 6.470007830226453 4.77825845692796 0.24576018122309287 0.2951335894498982 -1.2003048555583007
Ni 6.157171060002451 5.686898563955174 9.3888942763972 -0.7772380578988227 -0.6568813764849203 -0.9307007778380746
Ni 8.463788554973108 2.3341307092507475 9.956631613790481 0.2649650362863179 0.01880916228670309 0.38335559511278494
Ni 2.2847131591252854 5.45462077323976 6.986654857280516 0.2039998094568551 -0.020053319106449335 0.8203048071813098
Ni 0.5253475408892325 -0.005645790796807633 9.10561890639855 0.6192746218757399 0.2170674412740907 -0.45589798525688574
Ni 1.2269038947800253 1.110152794392525 11.325347401912868 0.7546339473460617 0.42419962571234043 0.032269658666983135
Ni 4.081868033126799 6.92211224171312 1.53798597735246 0.24813742320601778 -0.6208913315435565 -0.22792083904882682
Ni 5.601477956268824 7.658216765917531 8.074045328484445 -0.5258826419761394 0.4666079154752222 -0.23885419813187894
Ni 5.1429633979996225 2.8301608316250313 4.682067542224831 0.859906737843648 -0.002979908563930352 0.5021534166799996
Ni 0.6361215395226255 7.236605566723619 6.541976132684627 -0.45148057291548055 0.843528810706257 1.3994529933498092
Ni 5.267862227092451 4.457095698298779 7.147543239411517 -0.08426147835324198 0.661421430447119 0.4286334931139779
Ni 7.974942838683744 7.283736351002503 9.137151066638925 0.16247829317430082 0.16178795197549556 0.014728307349110119
Ni 4.691237113149004 0.33148291488875764 10.381663058437601 -0.9610480226713641 0.5155054125068735 -0.2788250820978617
Ni 8.042861584930142 7.011944326820035 4.725116359437421 -0.08202461860292326 0.2340323512632034 -0.41555840509757463
Ni 7.375666138637972 5.980702960164743 6.970315285095655 -0.3063014331412596 0.9952100132650539 0.00801489988467652
Ni 2.4624866961588743 5.27412832563268 2.6030948863764825 -0.9581637591450337 -0.23711613239484974 -0.16294212018459678
Ni 2.220602688284802 5.110597558556913 11.414751843800444 0.08916097253738837 -0.3159489835333526 0.05831056281543506
Ni 1.2184140514992254 3.1023129764132595 3.9603993528038384 -0.40661276586851264 1.068404692281173 -0.6302066954072114
Ni 3.681116820021556 2.473398350513412 2.6820891418530404 0.14239129261643865 0.25651202042295823 -0.2843239004289038
Ni 1.0211219776334264 3.6116405521552433 8.069525814882152 0.43135294892767 -0.5755100751952797 1.000375359516077
Ni 3.7887928811438956 2.7421383525620615 7.112295534821209 -0.47745591393331965 -0.11560991075753638 -0.4618593450466432
Ni 4.070398191833332 6.87557565643374 6.154630409128811 0.6930963929528967 -0.11758760330919749 -0.7080437582913484
Ni 0.8316679287520012 7.4112640605173805 11.330710498034154 -0.4273196593985608 -0.13528527769927667 -0.14698302575217911
P 0.285037260062333 5.8409941711600215 8.247228228096104 -0.12369808708230953 -0.9128958884461699 -1.5512992607315605
P 8.676196691265698 1.5811455316513214 7.839827388005495 -0.2836039915437439 0.5423508148344918 1.0300235213998132
P 1.7493218545413973 3.173166705596605 10.403549388252685 -1.8397101867456447 0.6580334878114925 0.5325636535407409
P 3.9849685811318376 6.235542306831044 3.8371300694520762 -0.420993717180533 0.0723097053080045 -0.4625090628155002
P 6.799419151330573 3.8807856898853728 10.27225571750307 1.0241094699082234 0.46263427553945485 0.00790717066221864
P 6.226296210278147 7.820757201327456 10.330048772617001 1.016050861269805 -0.4783617135770406 -0.9606111922442617
P 2.3471850812095596 8.542303850044005 5.810280384996237 0.4229613824298651 -0.25406381599278177 -0.10439938675369762
P 6.912938169281374 3.9074346147116374 1.5235307362372401 -0.033802293261425656 0.17209884698320038 0.45029580857875995
Ni 5.1833419209205 2.790943697657731 0.6272400650830613 -0.009202235324558347 0.44195694969576144 -0.4899087949846917
Ni 1.7668867370873578 1.2841900801413502 7.012389075768149 -0.8581982397929736 0.13843539329248417 0.09287030306817555
Ni 6.892978484707109 0.6058308950706095 8.929616262443787 -0.6081350603191528 0.5568875749980859 0.8498002455372655
Ni 2.753383118476928 1.7649060737556757 9.235015641857325 0.17413798890041624 -1.958543489536485 -0.46286798881681573
Ni 6.42186870825144 1.8795504685994782 2.629645678337677 0.10026993796635636 1.113951013452404 -0.09801868003833442
Ni 4.182683796709405 6.903809111925351 10.331511762577902 -0.28041093852774285 0.07784940417931109 0.36800070992326944
Ni 8.133008775567097 7.220463160570412 0.44758939939194686 -0.18627976646927275 -0.6328024811588457 -0.3076242657177412
Ni 7.670866002194862 3.8619153701435316 8.067377695468792 -0.4610198798644834 -0.5609069805701243 0.5621061430845481
Ni 2.8754369947842493 8.304165096469841 12.32482252993404 1.1795341986698524 0.2931882927980693 -0.23467307017099584
Ni 0.0006878303570022375 4.812966880911142 10.156392314408768 -0.1283702957469983 -0.14099621204112492 0.730593104346774
Ni 8.610420662623573 2.288386389304041 5.816526676903151 -0.007016797637465335 0.41871134890425954 -0.32235051618432226
Ni 3.6185548677858415 2.704955900017307 11.449077639640004 -1.0710570423023553 -1.54831472418194 0.6661216641362657
Ni 0.992564413596632 3.259973777615133 12.655072932049585 0.26443538903509295 0.3803479186347127 -0.019105610481199353
Ni 3.0969291733571427 8.245627492003498 7.914777489079365 -0.24018268713531538 0.4548867703835521 1.0464456715115786
Ni 5.787543270250044 7.591360375458124 3.656792473705474 -1.5665027079448761 1.4302062153722659 -0.23974559959789676
Ni 3.079985498856119 8.393520021774124 3.5046658259126215 0.9276486212753121 -0.3710942612469286 0.7795150268584575
Ni 3.381424451907806 4.1662532940715895 9.370526324900394 -0.10082812446267152 0.6401581501929685 -0.6060876908718207
Ni 7.288030789226195 6.196514236181767 11.458604630265395 0.48119455504014547 -0.04158707941316709 0.180775805931908
Ni 0.4339480308457454 0.11957714684120442 0.3638559567435828 0.8509844956533538 0.20515577743816926 -0.14752887095332012
Ni 4.614351363819173 0.3420344486375354 1.5096417847745782 0.2889254037566572 -0.7836169648419731 0.2136584155925417
Ni 5.9288275869049665 5.526410815998083 0.2121191395064662 -0.393204977103039 0.7914657714624305 1.3646356285603078
Ni 7.961618376270611 8.857778503705202 11.228023007603111 -0.434466040635355 0.36379181404824446 0.33404029381742467
Ni 0.14583804171476236 4.85350745810461 5.689725510710393 0.14270496720211553 -0.4326063617187969 -0.33546005698308673
Ni 7.701089124033298 8.873677828449521 2.3955591818798307 0.7688955994713983 -0.8684852235412786 0.8871398625279884
P 8.55673568331985 1.5263171694243105 3.6737901662973615 -0.7249803861456869 0.4769334657709463 -0.26662288360471503
P 1.925744939303385 3.200950010331015 1.682192672723128 -1.1111289706225767 -0.3936016983208253 -0.36022620818417317
P 4.687815967394281 1.031457439018748 8.164464410178748 0.6543727511304537 -0.6816112751314326 -0.30361565877898034
P 8.388469330278335 1.7511854786762069 12.350609866211023 -0.18139364202156502 -0.22500829338772216 -0.11089245067720901
P 6.1994042040429935 7.590919227716068 1.3334815880547959 0.07671374791297111 0.5395657958901869 -0.0961569442392473
P 1.9531591204168903 3.47603713805619 6.1459992185102506 -0.47747648275861 -1.3905724030307276 -1.0842259755841457
P 6.987195038189156 4.02625640858226 5.922006902631867 0.23405343430912595 -0.8292800140967267 -0.671934671273617
P 2.4034269168141793 8.630776479864176 10.14350449823012 0.37333934852736345 -0.7546594012673583 -0.20529153168508515
