# total energy = -381181.8034929528 ev
CRYSTAL
PRIMVEC
9.10302071410396 0.00000000000000 0.00000000000000

0.00000000000000 9.10302071410396 0.00000000000000

0.00000000000000 0.00000000000000 13.32319096253611

PRIMCOORD
 96 1
Ni 6.651131133910358 0.4290208112705357 8.006212248248907 -0.059566289599407095 0.6432969529322664 -1.9433852937388079
Ni 1.1965465480740423 7.924343321817635 1.3469084224076222 -1.2514471827600706 -0.9723431359692092 -0.03070771349650195
Ni 2.3653835013187843 2.5470615872593805 6.448890234645218 0.2942339604537642 0.2158366541907831 0.15436646270044382
Ni 2.6456928158978394 6.677092948776706 5.554970876854239 -0.277286019745516 -0.36970586553983426 -1.0324503856737508
Ni 1.1524242070301463 5.263293710099483 12.168390016855653 -2.039536067330468 -1.583051613442493 -0.2740556857336764
Ni 7.481244689126759 4.308942129183248 2.095337842511751 0.26812055119616407 -0.9013529208035768 0.8810879999069535
Ni 8.223395755895222 6.941981746390967 2.3557397612523707 1.1565786183149436 -0.3756492276074627 -0.8423741282765235
Ni 8.579515026367318 7.799759381333468 7.855779370354334 -0.20732758827850745 0.3836021639059523 -0.06111666480566248
Ni 3.103110500056024 8.9464759944221 1.1379494939098866 0.9757961275148164 0.7161041667019796 -2.286298978786462
Ni 4.567558945576291 3.5845146436015956 6.128388353032717 -0.8931197342605071 -0.7552229870803122 0.5211386995332509
Ni 3.9375570930972446 2.4836954605817327 0.9287757341250384 0.6221187761927544 -0.9629591236511479 0.8815171170245721
Ni 7.0936471732802495 1.4290559012704906 12.226812293023514 2.0243871275041716 1.0136545931234866 1.2191862658438357
Ni 6.778564319854962 8.350956384128791 3.5980344498566796 -0.4072583698723115 1.5127663947636851 0.6096448120954597
Ni 3.3316509362532694 5.386694257900402 12.052970997552215 2.837420597835049 -0.8082357918319176 0.7463534525048243
Ni 6.538080720577545 1.3298329762904073 2.0271771548628177 0.8113643101585705 0.9722004397437579 0.6690720050138412
Ni 6.177737648528316 5.009037240593179 8.474268632629498 0.8894988496784682 -1.3042378441985407 -0.2765753668317366
Ni 3.7278326005636533 1.594084562459842 9.691875018955047 0.46057353635568415 0.9992620718472403 0.42398519570868914
Ni 8.375334273403714 3.045251700865803 8.573366846226808 -1.1538812739884385 0.03875706616353971 -1.2183917949669982
Ni 7.726261592683083 6.012508720884876 10.341433800977875 -1.0961867474904476 0.2650498826906403 0.5966854237213144
Ni 4.054239611665566 6.033518492522861 8.629857461414781 -0.5522019965969587 0.10250859748888798 -0.036218358902086016
Ni 1.7284451471117717 6.864487731679458 8.006478056451607 0.49248992544830666 1.3771281046003638 -0.0930381961046075
Ni 2.448484976744764 8.726383161379122 3.5816198830379564 -1.198242316602317 -1.0363224670346476 -0.16121485308084493
Ni 4.834277450339267 5.807372150754034 6.3932662270222105 -0.2188731270242618 0.2565017360103131 0.5016811050292715
Ni 4.4771841566586525 0.4076177891408869 2.7789373702192592 0.9986455213091641 -0.29655926615283124 0.4539424041924117
P 2.9320556392027446 1.1869701703603681 12.375059535662334 0.9860440304950694 0.6637768180531729 1.8600362998975064
Ni 1.949867021168244 3.367799031216197 0.432915993802552 -0.702348507678784 0.4628849580976802 -0.28430564559645877
P 3.493966897291789 3.7024078639150875 8.217078259570803 1.790576148223155 -0.639021465485364 -0.06628792459395681
Ni 3.8901758706640948 7.982893950576525 7.0817021895959495 0.23472783466833125 0.21843758214873996 -1.4100130282538426
P 8.826507285402602 7.304254658815956 4.465187285756702 -0.006652986540143382 1.4934586955740086 0.3663595747754207
P 0.4234069784416167 1.7262240100755202 7.053696746595837 -0.28037571441443326 -1.0245373014742614 -0.3583958398436537
P 7.67004133720813 4.538902636600392 6.932868712427888 -1.7446459613499437 0.684901258736614 0.002142500264299536
Ni 3.9758170888487387 8.707549011674185 11.390741721100051 1.200535483511868 0.4989073989388763 0.3191158112971085
Ni 2.2630018281764905 4.918917336253471 7.027290704322238 -0.2126834532737821 -1.1274539330348454 -0.853440156282698
Ni 2.230230953871142 7.434291308663707 12.22683869178337 -1.0670903443451234 0.6581034218174796 0.0468023050655194
Ni 3.63711189686168 6.809978844084895 2.332050970639924 1.377572905447266 0.853778513458723 1.0758074125031472
Ni 1.516981977635869 6.252027399974413 3.3347150130008196 -0.48515199702599665 -0.0774943348327375 0.8786554792060609
Ni 6.6260067969429235 2.375151042465906 6.49482862830687 1.5842129807404457 0.20693112417103715 -1.1095816807401147
Ni 4.747844269358911 7.195946919236779 13.173438140322263 -1.141197250762867 -0.8204531598337161 1.0668517459717561
Ni 8.801046136671474 6.939041470724127 12.621458277751866 -0.03413473690017992 0.4129703326554243 0.683981318025506
Ni 7.210894079128274 5.4122009217347316 0.14818170089021018 -0.6711437999412054 1.0744056470596144 -1.2339531397403651
Ni 9.10082681240029 2.2836383759682195 10.840254753914676 -0.2006154663656545 -0.227667328277124 1.1909887203636973
Ni 3.2043998107214726 2.4172798219895593 3.5878290534167556 -0.012193713852714484 0.02889585709874378 1.2633015109954955
Ni 5.419064599297574 6.477372675926887 10.724995037472445 -0.4445887308916537 0.08792812857155179 0.10665990065310017
Ni 4.454909065151655 4.152370174168804 10.152005403264063 -0.4472061139098428 -0.7121462104954961 -0.5401952019440697
Ni 7.9717154412301445 8.811605640614308 0.9103912736397378 -0.2939503677750744 0.3597078737868579 -0.9057646767180271
Ni 4.619300514896181 8.337156204837983 9.197211415544706 0.6302442335133662 0.9824917943674369 0.4944766168610323
Ni 4.739751684009618 4.828861153058245 0.8583456634304599 -0.6434260223109628 1.140653719554571 -0.17311109029779864
Ni 4.969994385066613 2.316500280479972 11.883473663530504 -1.5720133533504603 1.028645410105364 -0.6677689699317015
Ni 0.21199660648542842 0.8495020788783361 9.037133887281653 -1.4812225585191328 -1.0295823200973364 -0.8699862335668371
Ni 6.472147542079312 4.318163489091948 4.816919810582201 -0.07583391641117908 -0.3652288036050871 0.532853673977334
Ni 5.345330132110539 0.6869594526258709 0.1524919811634276 -1.0335747290861812 -1.4753686708415172 0.6103035287253812
Ni 2.392355751476214 0.156705769417857 8.526042972823692 -0.3652714839175645 -0.040625743941162286 -1.0561464437391102
Ni 5.6973803523563875 2.7038611177898333 8.55410121334352 -0.8418640214093244 0.15338558684441325 0.23722257606572691
Ni 0.5079813226072093 5.301936032717873 1.297215032731817 0.6178479167315424 0.2950078625053113 -1.0501683717788044
Ni 2.42773919270535 3.068455300478118 11.42278435375417 -0.27029878979440547 -0.19011508105496291 -0.2889230897638121
Ni 6.260247427612671 7.131197133421794 8.070749023380907 0.2899980679955457 1.1588090503073591 0.27049676473782447
P 2.668250101044688 7.521434525254014 9.835152922626287 0.27554461157437704 -0.25805365387846524 1.0360985239492992
Ni 0.6110020277984568 3.5327275591785043 2.9328603462273537 1.704255216237723 0.8308147055736982 0.028688626183944143
P 6.008385052534787 7.867258279381845 1.4880270895829657 -0.026081013357767985 1.3628993625954917 -0.25895842508092176
Ni 8.037157056613797 2.4158870598315825 3.8122713097217042 -1.835052890479291 -1.0476941992066988 1.3102436840729885
P 8.695878939213227 1.9360577388567957 1.7420468805526192 -0.35958008995974206 -0.08050998173060972 -1.0284322656532934
P 5.588471813414945 -0.0634089108746575 5.935827605916553 0.6841417548627702 -0.1568311221908525 -0.466859369364396
P 8.934268843743357 4.314913710723334 10.517606380035174 1.2086180034096865 0.6306173005820688 -0.2520609266301401
Ni 6.517052742898279 8.117900849693921 12.23166147211864 1.2145485099615083 0.0063261993283439425 -1.14048376963561
Ni 4.240915255937729 5.065876501471679 4.19074304737624 -0.8444364101221908 -0.04758880552255676 0.08365161268338497
Ni 1.6425308383079158 0.4429120207677474 10.863982687515875 1.0569493992563797 0.011092767479051864 -0.6017600100307443
Ni 6.121071345041983 6.246966120498365 2.839585334933691 -1.3289787985886468 -1.8389979911699683 0.35767927339260336
Ni 0.150679569753929 5.997816445571311 6.239090187040312 0.1372722262223184 1.625564547104039 -0.9036358033004824
Ni 4.62901343791946 7.503082835643019 4.459151983072134 -0.1781687073263641 0.9512585473847681 0.6657977051379437
Ni 2.3188124477226273 5.060715088768587 9.983999144023246 -1.9457332251456945 1.0010775277894242 -0.8054625999621547
Ni 0.40931186128206065 7.405462042295642 10.05619793162825 1.0269518244530251 0.3369471830515745 0.16079036394891663
Ni 8.822993519435418 3.2876742435396196 13.210209792199056 -1.3396769017324412 0.14699433860608876 0.23562540678193614
Ni 6.7677681373754774 3.4833800842870333 10.347322545030133 1.2402333163221222 0.2449754805382684 2.2095980863892977
Ni 6.17954914963575 1.0338937752718285 10.256205859930303 -2.2128222497535504 1.7552090815777708 0.10125312781523206
Ni 1.7018097087180355 1.479286369164078 2.1332291659273097 0.08948724552855557 -0.19791940759073012 -0.6118197082595915
Ni 1.6256538380406613 2.978526559571857 8.857843523655028 -0.20534552485147214 -0.921036258165117 0.500480399852951
Ni -0.031161460256130404 0.13735092693229248 3.1480038669481596 -0.25504597740039303 -0.7098939241262097 0.33645430257555603
Ni 4.4602525382675555 1.3861351589511244 7.221915106217576 -0.4443966694855056 -0.8331420681552942 0.43800670679876175
Ni 0.09606053560961723 3.6643208255557598 5.805221106976714 0.8556577327593069 -1.6149348353043347 -0.6164129840572288
Ni 5.4909511532946125 2.0899898178855305 4.265339570617918 0.2759680722650409 0.01696490998911272 -0.10315908658869331
Ni 6.700087178914293 6.832190214447409 5.6605440690330475 1.5117405246023319 0.6141879513814519 -0.4627070377589192
Ni 1.061803636555217 1.4067808097634942 4.864416641377484 -0.21536742786384847 0.3082924954293594 -0.5477210780074696
Ni 2.852440620682028 4.330925924029753 2.380574622163441 -0.01506152231881277 1.1426836055004064 -0.7880186934540945
Ni 9.097058161855177 5.426793063821252 8.440894228055692 -0.42939685364256375 -1.0679089835916769 1.3306638996005535
Ni 6.285899739777246 3.2026702367998015 0.37507722125773973 0.2478188635243345 -1.085292726285763 -0.47610865587680584
Ni 0.7777639041177357 1.057625350081285 13.084972254832909 0.45414346445962434 0.26622050595997376 0.9776869167796258
Ni 8.039960786971033 0.16127730638345314 5.655281612800847 -0.3869065456888369 0.12342375037500032 0.3021079638852023
Ni 8.375825836518295 5.233399390316492 4.100145234452912 0.6970193821563866 0.18254241091402754 -0.5262971038057388
P 7.2555079832867495 8.593551884194776 9.761382043356692 2.5686061058956535 -3.9689885530382676 0.0933474998149102
Ni 1.369139819415545 8.517396013517402 6.244978931092571 -0.48189029555558943 0.5595782344563718 -0.0871269728264951
P 2.0295275547921623 4.165423905767102 4.633246342517234 0.6745888210670125 0.53363760333121 0.09066352522484385
Ni 8.649580976236281 8.959484210917195 11.58199618475432 -0.8504661612560386 -0.16391116896608546 -0.89590089655007
P 5.5502300237047315 4.590289188115307 11.87059015841818 0.8734423104362377 0.5118783572772474 2.48444901433076
P 5.424535514702439 3.909091947554793 2.736650198136463 -0.3007393656724498 -1.0268122135513673 0.30383523098895415
P 2.6011972510076884 6.185010962019975 0.737385635463226 -1.3549358847740407 -1.0717175587044898 -1.634614058900817
Ni 3.391812799665505 0.7176357218818693 5.320216718767874 1.0525183600682195 -0.9373686767765534 -0.3804314794874545
