# total energy = -381163.76684362773 ev
CRYSTAL
PRIMVEC
9.28405435953390 0.00000000000000 0.00000000000000

0.00000000000000 9.28405435953390 0.00000000000000

0.00000000000000 0.00000000000000 13.58815200177867

PRIMCOORD
 96 1
Ni 3.704105556387418 8.50567916922087 9.927394678208898 -1.000661009077296 0.6084165961153135 0.45126460024993253
Ni 3.477258974108403 0.7742678452268321 0.0257121883286295 -1.3077697686111993 1.8358941554336639 0.6505410360891893
Ni 8.410359783927483 2.0667418913929843 9.547022332327652 -0.45262137138814307 -0.448354368581673 -0.4582315184860689
Ni 7.170251517522587 6.615891352405853 8.92670917401079 -0.15770658281727032 -0.05145137380175656 1.7094449879687783
Ni 4.291711919881052 1.4303292545490691 8.753392591899752 1.2273155798191897 -0.6136886431475302 1.3047492366173206
Ni 4.7697478747614035 1.3190877161653758 2.0520693720087757 0.17296608007950212 0.45652044933223307 -2.206271850229542
Ni 0.8524386538595193 5.727741583758078 12.815678819222788 -0.3423837806861135 -1.0071689853991428 0.5154989847489703
Ni 7.355143458510006 7.753615068210233 11.473047669808604 -2.3273165588494047 -2.5539109657773245 0.7148687516329818
Ni 7.760132474314837 3.5159084920762975 7.263016859483531 -0.4491444685831361 0.1252230083672682 0.9431888830027563
Ni 2.169349259296221 7.672936636516501 13.133587119502355 1.0584486095097254 -0.84247131597602 1.153564514078968
Ni 2.783897948310592 4.279781910131173 11.918372187838587 -1.4298758286160407 -2.378223373001601 0.6509853227154595
Ni 0.48713339966938324 5.248127339650116 3.6462714686552045 -0.19203003868948865 -0.39330422168506457 -1.8622939855834313
Ni 3.2807712493251873 2.4709324785297286 7.065553380595481 -0.14952019035173603 2.452885637702182 -0.07362533879563449
Ni 4.5788305825462245 8.359204644844345 1.0454040084488794 2.0114966446947484 -0.6573040658446357 0.8432812134718252
Ni 4.636289594485523 4.529885048381741 7.484653230500576 -0.12417759782188935 -0.10033344421444011 -1.0775681039479958
Ni 6.0668509503915935 6.439243651619129 7.071423688116764 -1.6554253392192138 0.8489330124409636 -0.8565643037339764
Ni 2.904377120702946 1.2325974664923254 3.120369715123142 -1.9201499773599509 -1.2178924867330767 -0.5620467506015223
Ni 5.701421289874105 6.664948295221696 13.265868181695524 -0.7902624951829487 0.7892260834986343 -1.436748644476474
Ni 3.5479756155596287 3.8148457558399884 9.656854551271632 0.4302831129022589 0.475717333975658 0.21118012925537824
Ni 5.057757806637461 5.837395548859881 2.026468592331507 -0.03414527842314119 0.07114448135530972 1.0229103073937995
Ni 0.3128939825629066 9.059463722972241 7.557050285776493 1.0228737977289093 0.6649042467893969 1.0623901106559768
Ni 3.2778374881726884 6.347071560726681 11.440748444968271 0.5064258188031084 1.6668765184789487 0.9548763466430137
Ni 1.7402124183089518 1.9147433547198223 5.498159919088156 -2.0760773567896114 -0.8556261081904232 -0.918142995777722
Ni 5.064711563293227 4.431576197610173 11.748588188381113 0.1788755035854016 2.25917692575869 0.3975642825129992
P 2.782291806920141 7.7750705176514545 1.7356957259017018 -1.9909861834462226 -1.1645261552967943 1.3816023383216334
Ni 4.325970080174478 8.513440638599002 12.288472656064377 0.3049899134186876 -1.6155295314655405 -1.538815269331937
P 7.551157696524939 8.297465683881939 0.3219654319999544 -0.2877594084730141 0.22054485829972983 -0.30455976785980454
Ni 1.2441189778538813 0.3552274132691297 9.83947932620386 0.20786520594953234 -0.9040345814007978 -1.270232948008006
P -0.09090574588864726 4.895946024590275 1.334776839493251 0.8718757372800663 0.4988477493455344 -0.5862649997189386
P 0.9679833514020211 8.715805169741495 5.428833100562656 -0.38260483298968945 0.6834275024045648 -0.03593425200276392
P 1.7681017173662557 7.720573119027495 9.01295339624542 1.3623674013514215 -0.31889366798397334 -0.2557172924358047
Ni 1.886631238359797 5.544177262532709 1.7562004881846451 -0.2268101224831513 0.7081018652227935 -0.3175047580562467
Ni 0.7305937970825682 1.9721188101706004 11.227333104016221 1.1091708184549414 4.306761831535564 0.37195712346785614
Ni 3.5708515253057 5.603038166668297 0.31098425259749807 0.30096176609590103 -0.09730982689676788 -1.561871122710136
Ni 7.924413814800519 7.05377377252494 4.495477414814407 -0.42134313010015173 -0.26069134861162846 0.07085523224966507
Ni 8.124949387249842 3.3877606908486126 2.2682838553262648 0.3428848886922482 -2.6469586749636287 -1.5895930141054364
Ni 3.278775177654974 3.3961070556463877 1.6710982046264642 0.35112013211784693 0.0012935220004429335 0.6236460114705582
Ni 1.296248942636425 6.473975298680838 5.243110236717172 -0.5441991808971403 2.8532997309591503 1.989238861737813
Ni 8.28546140169782 7.539478356240621 6.6600156771827 -0.29849247861980205 -2.0025386641705123 -0.40047554262252316
Ni 7.337754424843451 5.218390513791081 3.204371838249136 -0.9287791353353294 1.34654071873181 0.036121171202589404
Ni 3.1364877617587563 5.933810452558317 3.683720558404688 0.4453541483027685 -0.15894508321006176 0.4098351294605523
Ni 0.5404628642649107 7.297266664128105 11.066884221137347 -0.5327816830888179 1.496830697370035 -0.3789844626282828
Ni 2.8123442906247 8.293947027309795 4.245577597352571 -0.13274142823150042 -0.1928119111608357 -0.3250702291083305
Ni 7.666976273668701 2.458371153088806 12.030038935908307 -0.9059875913621107 0.8767567195214513 -2.665806146687435
Ni 8.511082488811866 0.28592473328475687 11.55823165304445 -0.3952533749916354 0.7669551879155758 -0.1405416410022096
Ni 7.533313744198661 4.944074561978112 11.906074529539218 0.3767468315470157 0.37933207577568867 -0.3455439235816501
Ni 2.731136667837004 0.281542659664568 7.205063007451105 -0.6520813839931157 -1.2552555007625672 -0.04310351605769351
Ni 6.672087732963064 7.500615305024286 2.3956044473175964 0.7274681855645472 1.1369487598991581 -0.7716723908855871
Ni 8.78628970983572 3.488344134918796 4.6235992206901075 -0.7516370695012669 -0.7662383643542094 1.6529280267186566
Ni 5.8205635584501305 4.446802046629474 9.497560604745198 1.5066368848271794 -0.3913964631393904 -0.2164290363591434
Ni 8.417415665180329 1.499356198121324 6.453462180749042 -0.7924836712039836 -0.8909728631208335 -1.286230866098159
Ni 8.561104973272837 4.492869523967138 9.264687742832994 -1.0327897712910405 -1.4697261278437592 1.2560959943859915
Ni 4.572582414015743 8.765939062853827 5.771906758373757 -0.1811162199904623 -0.6823844058520312 0.25611401365359115
Ni 3.8559091279206985 2.1978605899902885 4.730470754724177 1.7254637319945378 -0.18554854473020302 1.013195394098881
Ni 5.534001939041762 6.781583869142105 4.286002226498814 -0.7743378535328923 -0.5381519462617957 1.0387436748816303
Ni 8.794218292190893 1.2823692814877337 3.9643301706141094 1.1383458973570009 -1.2240662196439565 1.5438584881827992
P 6.435734279101266 2.027108263671403 8.749302037583957 -0.603416828907877 0.6421078177201716 -0.749972023094018
Ni 5.956667794195828 4.442744914909087 0.3397527515951237 0.135969705360811 -1.517263254192774 -0.018385958706355433
P 2.2260562628388345 2.2920658887700696 9.260026219178975 -0.18712205986491 -1.0904925253191478 0.14880645211416307
Ni 6.881944495909567 8.962974546839567 7.929202529998175 0.7377657108358133 1.153440072685962 -0.08201176308711682
P 6.998385104690095 2.4211420954257603 0.3589577462788583 0.09531490795392616 0.0622705759044476 2.28756498998308
P 5.180613696925511 7.101484527470174 10.793476249832967 1.3643654056180567 -0.5095414816139547 0.016568960102274693
P 1.9832875274695143 3.498389481649822 3.6096653710343514 0.3230884227916113 -0.3176163439334465 0.14310734484685675
Ni 7.063475609247604 9.169535470516648 5.2430424631209265 -0.1286780567954042 -0.39231460407828567 -0.2902839746670807
Ni 5.592129402889224 1.4444688692176022 6.334048817788039 0.6447845932213863 1.3546404650208088 0.9315266161734795
Ni 0.7003612027249769 2.450052640453871 7.790957391335495 1.2966973128471218 0.5918792605819225 0.023797359529913853
Ni 8.350004147052804 0.304605178901668 1.9426707183996743 1.098725197641585 -1.2277590951145114 -1.7621472034585008
Ni 4.645378683625703 4.256776023625181 4.908964125501777 0.6224974996884118 1.6100592523795885 0.023986335612268365
Ni 2.1714567396177946 4.483706162392718 5.605805743249182 0.4617665282225209 -1.96377182781496 -0.29553853819780074
Ni 3.528311988594459 1.2141964709092443 11.321158684975947 -2.6187595868215934 0.10527279049758645 -0.8281754681786382
Ni 1.3817179463386684 3.3649590535367824 0.16876646710838053 0.9248422621747685 1.9054761773978601 0.20414404834420324
Ni 6.422114571472416 0.6670630136441094 10.4808951398993 0.3643764829071209 -1.736522818022177 -1.0770914214218934
Ni 6.768010581784656 1.3986984816169006 2.9373642939654316 -0.5849095141323087 0.3703429849032009 1.3521251547981228
Ni 3.8993770700599453 6.219907869252682 9.106752053447734 0.3794323487989788 0.07685233037336442 -0.5011218900916918
Ni 5.316987170245331 2.3468232409138707 11.247307746799773 0.5652678286419813 1.0038535478726647 0.07374386665136978
Ni 4.705075152646496 8.325373551047802 7.928632489065379 -0.0032444750792266705 -0.5701359553675601 0.051080363615583
Ni 1.5970801534732484 5.53830045617343 10.12606786936964 1.6348747687613714 -1.6811366279423885 0.3802211632488613
Ni 1.534273526268634 0.3111875733862314 1.3279836969765304 0.6955957623359827 -2.6106487847890008 -1.4848832952001718
Ni 7.723414039637194 6.1847398716398105 0.5002044196902815 0.431430853353457 -1.2931862143700694 0.0775868945465438
Ni 0.9101585477240879 2.0593703522946156 2.2262010940856034 -0.8849523679583663 2.925003684362356 1.2916103852425176
Ni 2.235126783870454 4.864547353015108 7.877812504341752 -0.5315778925887039 -0.367272059287361 0.13004742633910504
Ni 3.4212482746367936 6.6441148774172385 6.473273424177266 0.7362091649819708 -0.252338605771559 -0.1510960194792882
Ni 1.2917183241477552 0.07712728093160844 12.169752811958093 1.8677483238297832 0.14175005948801395 1.6258571386437934
Ni 9.23062454767945 1.8299335188714632 13.453656747618322 -0.6803298373158476 -2.1952068506646327 1.806633973016966
Ni 5.755008851178618 3.4931996953072675 2.5626440803298856 -1.7289650602795774 0.7470815889201003 -1.0580282341428553
Ni 6.074398886521283 0.4750613438890197 13.116126598617845 1.0601805045991677 1.0141698421970085 0.3679420887711921
Ni 6.973847349227893 4.9843580734992985 5.674887462741689 0.1805804020916503 -0.03414913507788312 -1.2760081599288862
Ni 5.185255724065542 9.059463722972241 3.7124732745100375 0.09035576417643792 0.15059285459062452 -1.3393334023500933
P 8.2857027871091 8.37189594704519 9.574129914014573 0.24234241379079555 0.6134760129160919 -0.011007149743781043
Ni 0.2906800258870042 7.5327567009418575 1.1216558030618782 -0.06997360097566015 -0.1566812268765495 -0.9461487369620285
P 4.180015462837636 2.822770283581208 13.327517087331413 -0.24975130466035697 0.8273622282487236 -0.8985259928777428
Ni 0.2454555406779701 6.251120859742248 8.588011090981881 -0.4561052161716854 2.3406083908623043 -3.151743358618888
P 9.202855941327787 5.0442866438770935 6.2657005385836575 -0.05465291145818975 0.22205101053161114 0.7871239495539669
P 6.453011904116459 3.078675955756815 4.441110921355796 0.9281034494245436 -0.2630395371288309 1.9751877829613855
P 0.30521978329500804 4.241708003528642 11.182545897763777 -0.7834778681609474 -0.7154968721352839 1.2237921400469631
Ni 0.43650745168020955 7.7155504456619814 3.3691275939085297 0.9451161819324563 1.3914314085969133 0.2543929171974264
