# total energy = -340865.0162647948 ev
CRYSTAL
PRIMVEC
9.29979033253572 0.00000000000000 0.00000000000000
0.00000000000000 9.29979033253572 0.00000000000000
0.00000000000000 0.00000000000000 13.61118318888044
PRIMCOORD
 96 1
Ni 3.1970168529849134 8.974269858540032 7.519865404563574 -1.9732635693554788 0.6963023014847041 1.2196804318714347
Ni 8.468537955562857 8.4552857542105 10.167539917363074 0.3197287622907591 -0.618884842636489 0.34170732344437926
Ni 1.0745907833436794 7.058522331253016 0.5122938350994369 0.49691505109919587 -0.1349258374773289 1.4195160826482713
Ni 3.388657634225616 7.8818327773751795 5.659625536372564 2.2549528603750133 -0.9808699424932978 0.32703069526881096
Ni 3.347943151755009 0.8442200949085753 12.25412087479903 -0.1536077301575484 0.07148103875912207 0.1941871942418075
Ni 2.004421028967517 7.955096526325257 9.912575933155125 -0.5111967578291905 -0.9797342862269578 -0.35776103447313223
Ni 4.504595285788646 1.5800436926081738 1.9185374644138273 -0.9335881266881986 -1.1954953499847993 0.35714191283189456
Ni 2.473204864595282 6.429586804755832 4.1239567237453745 -0.4866635485745166 0.6200762918414289 -0.46302714010249935
Ni 7.025870767078896 6.742794446402148 9.000421799187723 0.6289219151575169 -1.202765401283651 0.35528583345976233
Ni 2.4939898961900298 6.443145899192137 7.915624495855123 -0.17652757217851534 2.373690518128254 2.282562651672482
Ni 6.198682308350464 3.3614464474487784 1.9924187194479728 1.7953874535688692 0.27651391746618187 -1.4568158475399944
Ni 4.349009792016775 8.127988930073785 9.295077288919783 0.2981687767317962 0.2660024764118967 1.0367520983728984
Ni 1.0188757389212477 -0.1946250839873491 11.805836567200037 0.2353829517538269 0.5740831129407662 0.24476850673378492
Ni 4.670708142319021 3.4574481839823727 12.136452486538614 0.39963504899909885 0.1523507178219957 -0.31323929791167343
Ni 0.6415776615978114 3.234364811322501 8.47828320594681 1.4912393193251865 -0.28119152544750925 -2.66620158235364
Ni 2.97554234406817 5.322735048435785 10.727776962028688 1.2326043390219545 -0.6036222600504636 -0.13399715501547244
Ni 6.457793069107899 7.043493869929923 12.737331475309539 0.868862147264723 -1.3756242663613276 0.07367804641044085
Ni 8.727844011919167 5.317210972924698 7.187956814356239 1.169329747333025 0.17368624607497832 0.3464201555390163
Ni 4.6080182550795605 5.32000091005151 2.5321432163782234 -1.2864779491119587 1.3402813680856596 -0.04114253567658076
Ni 7.680120323106686 8.704213244455072 3.1192882746528943 1.045711364448715 0.6149649387567926 1.4774857171845197
Ni 8.344078860335781 2.3620816688343678 6.825232438604225 -1.0262699678946519 1.3375452001014192 -0.6184202442952447
Ni 6.420528808884116 4.9271591630155624 6.973607804861372 0.24532232235472587 0.9464014764027829 -1.8360311952321604
Ni 0.6963106481516054 0.8745030024620328 9.55830413691831 0.8197347936104528 0.7307741100093286 -0.344532194487684
Ni 4.862823212871282 0.9542328956930184 6.734119601895847 1.035248003023546 0.6142229183844453 -4.404849674248936
P 0.4549848065985534 4.373012551097779 5.427132635762998 0.11107499900166032 -0.40866656307374777 1.0000668271367228
P 2.8379426449738117 0.6070958986685019 9.589990382846551 0.4940014769968266 0.5887036910674184 0.3544851919353379
P 8.772603903223652 7.583923290974216 12.319318915515495 -0.6191203556860627 1.0423784434207404 -0.5335046772977715
P 6.526574319074233 0.0758184013791953 10.101893626748234 -1.0764257628134366 0.23523074244667877 0.4982072875480581
P 3.276269666967214 2.8693480372312896 13.559569655595963 0.19331713293202835 -3.529898640477656 -0.971846655948765
P 2.4759669023508257 0.9227865843576802 2.7009083731371537 -1.766336816059816 0.23985152904814175 -0.22757836810774354
P 9.126088937190708 4.1472787381674365 1.185811626904032 -1.1229802135342077 0.9784492488669471 -0.11940948700928466
P 9.252063898256683 7.556554007760192 4.4505979126572885 -0.7613833502547532 0.09156135444876488 -1.2135290675580583
Ni 3.8307510713402144 8.50995922210559 3.202058269373062 -2.072154624696438 -0.9267903870400749 -0.14059486283764816
Ni 4.742270029621744 3.6705249821474126 9.598375073891663 -0.5290242729289147 0.7985573882018893 1.1616061534365218
Ni 6.466386075458479 1.94597184616081 4.892607651658083 0.018245319363433096 0.6401694630468783 -0.16077519444026506
Ni 0.8231095706490327 5.160909395290278 9.767603360213643 -0.6056459753487119 1.462355546411301 -0.2723623571916535
Ni 9.123987184555176 3.12971426969579 10.439396040894827 -0.5140157153352244 -0.19871567823978034 3.210245468619839
Ni 1.059106632289874 2.1478423968664893 4.212633945342045 0.31774901285656887 -1.615886914804959 0.5700045719960183
Ni 0.6935718598721183 8.691705026336534 2.3735724898806634 0.4870322447678452 -0.14120215740434394 1.226312849586288
Ni 2.3599799161988364 4.687912754601027 0.01939936282176474 -0.9261293564173083 2.8381639037589768 0.03167856205020351
Ni 0.9287654196204379 7.141374164128904 6.4138617891300775 -0.5940189326327447 0.3436302514987049 -0.10443718197016852
Ni 2.517657862815817 -0.3650772227289585 0.8248216620658527 0.13677394642966123 1.5821072472513529 -0.17012269709343605
Ni 7.754397749212839 1.5011628702427815 9.030816304226253 -1.1271777965553234 0.9092150971604729 0.2678819528227967
Ni -0.04205272231243431 -0.08210226976781775 0.31434593599405497 0.8763237457490908 0.36692161792647776 -1.0411759384722068
Ni 4.436725415283738 5.598194840756337 5.40532741715888 1.0615894691315524 -0.6509580690219499 -0.45190943292278296
Ni 3.7535349114604863 1.251277501584671 4.397310113535183 -0.06295088980092384 0.6841101302938863 1.2877282765792921
Ni 4.752062708936854 6.013263086902552 8.304931392551401 0.3925583446579755 -0.30637419536072397 0.4093440487567466
Ni 3.668302332236386 6.920997030482041 0.5428436466380262 -0.191830778194489 1.8706618979321523 1.7866570156744066
Ni 8.467570777358894 0.591771704009967 5.1633747697313375 0.6080579272243142 -0.7091930414044431 -0.059931900468941944
Ni 4.375988484033045 3.717488923782078 7.367338611861731 -0.005633544136693524 0.0045379970796696045 -1.1276894460844191
Ni 7.233330491828622 9.25418425047306 12.438770073599942 0.9640641837898688 0.8572225061432657 -0.07371558451659563
Ni 0.9653368454577294 2.2408496008839722 12.862418306390145 -0.0301163597694062 -0.7809327331415905 -0.19330967673286062
Ni 8.654905755633886 9.151691260224418 7.6075494085430995 0.9267034837532232 -1.0268142704338963 -0.2559090967316367
Ni 1.380339993070985 6.60736159847628 11.921817973477772 -0.5251010266151085 -1.108822176866271 -0.678840911475147
Ni 4.558999059761477 5.946313895649491 12.574705110208637 1.202569226112445 -3.895612611249278 -3.2824991238789276
Ni 6.605204047098212 6.636014252768637 2.937647558053727 0.4437580074602422 -3.1660983417889796 0.3523681455923351
P 5.691034648546211 8.332296025870214 2.4684694113120402 -0.004174443092663779 1.787059650429464 -1.8075701116779903
P 6.4146978402890795 4.258494931832577 4.580980044404585 0.27104569526275896 0.4187447732453562 0.40049431167560057
P 5.632678463643732 5.283889823840142 0.7268204705913769 1.6536687615394228 -0.1058075799551339 -0.43624087314759064
P 1.2378951031663972 4.155927543260553 11.959765768297624 -0.5383380941306729 1.3827097124531995 -2.858260160288219
P 2.732324925143139 4.457333750860455 8.644176587423209 -0.38300129709715974 -0.994810720944106 0.8367159015494816
P 5.846285349862865 5.297179224354189 10.58517211572883 0.1892337068912741 -0.12222715896373788 -0.05656786909271548
P 3.35633156271629 7.4678991056605355 11.849338196860328 -0.9218358712482768 1.923924099690403 -1.0305642243946316
P 2.4520199420123574 6.141172404376451 1.9834760409774987 -1.1287155733560885 -1.3153910326018832 1.4987528540934123
Ni 7.540539768652292 4.118179693934789 8.967537740253036 0.1389979506641735 0.8056839719443416 0.7110995143985366
Ni -0.27918156844771896 6.121363850776087 2.54910231419307 0.6700441391191235 0.49128587783787653 -0.5400519914979861
Ni 5.048660924888217 8.918917505944085 0.20851897087887192 0.3636162077023286 0.7486659026880849 1.2115678300666297
Ni 6.298961948478503 8.739087458540219 8.108277094293818 0.12131261756926848 0.1957483680813403 -1.889608357127668
Ni 5.495190362034446 8.878156524521366 4.885176189131298 1.267180020114295 -0.5850542672402892 -0.21011569254660586
Ni 7.911489809033188 1.52119461881329 1.1318579627876608 -0.7853786847280861 0.8544706544297412 -0.46976420171601674
Ni 4.7415911449208865 3.3878020535067273 3.6178119100734305 -1.252784156403939 -0.9832109319216485 1.5306085651514283
Ni 3.0109838453691022 3.4837758906690532 1.8791733115125973 0.6141496419443488 -0.23612085836111593 1.2238129659825698
Ni 7.370548899515648 3.7073614520117513 13.085016229989952 -0.5069842624097397 -1.0803325540670103 1.8874267760953172
Ni 8.332500621259513 6.051792118623823 -0.014835955661342898 0.5781179451317721 -2.468270090578052 2.7467629861474756
Ni 5.292873421388475 8.43861122998259 11.53346337532078 -2.3872934536236694 0.6135012097270726 -1.2375868798382104
Ni 7.843861733079271 5.287507442314575 11.549714759084459 0.2906683545896929 0.38551403621668445 -2.7658860801301723
Ni 8.087702237962622 5.595897792521929 4.66926202490829 -0.4633487851079762 0.8919038595755349 1.1994890445252244
Ni 2.5999424084759193 2.2392593367216893 7.179463315763182 0.1477517855974036 -0.40736301377097583 0.015167965989690006
Ni 6.590203485146388 2.923444918120171 10.874464416324114 1.1256865567217773 -0.5884836046368124 0.2553051445990506
Ni 0.8353964537555117 2.3645833124580755 1.6343628384881574 0.5970320084274556 -0.6709725644706639 0.9351307885849702
Ni 8.876473262454855 3.844710056764696 3.5524920421024277 -1.6917018050527446 -1.980182922183132 -2.392456485881848
Ni 4.726990473957239 1.405579624278209 8.702214719493233 0.28536571142985695 0.6464925770514286 4.194477642717151
Ni 7.6372947882101245 7.515634929900284 5.911990229157367 -1.0740109827243567 0.6854705009765227 1.0611117581641856
Ni 1.8477474597161891 4.281502613338352 3.6347579881816854 0.8945004166581176 0.45150602683677726 0.7934293229467045
Ni 2.3812950358476783 4.914278953280115 6.402632292194661 -1.2151874290970879 -1.7635592533146789 -1.8314584882598135
Ni 2.3896648472281137 2.5929489660780445 10.650764467559217 0.3350381389543197 0.32610689790296093 -0.592155911282077
Ni 7.383977796886036 8.003064845325575 0.9568786860682782 -0.2768527888628393 0.02234160091999378 0.7458040077592576
Ni 1.6449655295490846 8.74451853614708 4.704841163107479 -0.381254232499066 2.040729830528253 -0.7993287191502749
P 8.354541124561326 1.6617237518908008 11.767275916191329 -0.0052406795736490396 0.19412471643498824 0.4643312036259036
P 5.41492387089607 7.263564110492839 6.496931237101857 0.4237597099614444 0.1452570442000079 0.5568526079950926
P 5.874891505203109 1.828069103181743 13.936899352206837 0.2882342912269036 0.39719147255461273 -1.4354929176925018
P 0.8169354397873981 1.222364453160478 6.767126418064115 -0.07476922259209058 -0.7939463717924391 -0.6869733107742944
P 3.610336738531659 3.288415193259268 5.403503728256987 -0.9676421309491141 -0.33749148559081876 -0.22832398802451648
P 7.86286120491286 1.5490102919676039 3.2147571331952673 0.5304725753396671 1.030629016194296 1.3882872065409768
P 0.14576677504357854 7.197879690737266 8.628864482492224 0.1295728006955317 -0.6210934202520336 -0.6479840739952905
P 6.339248640589665 2.9305964569552314 7.718248533860739 -0.35025829833818384 -1.8678701941196283 0.1421192699019746
