# total energy = -340890.43279516854 ev
CRYSTAL
PRIMVEC
9.08214521703161 0.00000000000000 0.00000000000000
0.00000000000000 9.08214521703161 0.00000000000000
0.00000000000000 0.00000000000000 13.29263756243258
PRIMCOORD
 96 1
Ni 6.476068994732546 2.1430865395797722 11.355515040133003 0.6028391020275359 -0.012364177992307738 1.4712263665383694
Ni 4.704542094512294 0.4499576243248192 6.025592779920879 -1.3152802180556316 -1.250068557244989 0.6314853050093188
Ni 2.724698031475457 1.444714989909748 4.795930271655147 -0.04759960415583415 0.4558216234929956 -0.04411010294533694
Ni 3.188586758213162 4.551989302785818 5.058114545444459 1.3544854275001834 -0.7190596497858778 -2.987754799447648
Ni 4.891770516340079 4.696586135379568 2.7249904765486006 1.084370728692126 0.057694526497990964 -0.07259972574459754
Ni 7.315540751121778 6.075791612476131 2.7841424877717085 -0.43509981756461197 -1.0442527776253177 -1.8776277877270244
Ni 5.207029938046898 4.719037198137671 11.825249943690041 0.6382493632060299 0.10384762801528567 -0.953363766653229
Ni 5.703623469392989 7.948093995044241 12.58476431079538 0.1916106917638829 0.20776698980877123 -0.63783361582485
Ni 1.7493392196708806 6.542759186412459 0.306447016288459 0.23345590993444307 -0.3130456938436286 -0.35587795851780646
Ni 2.6740469080927958 1.334030887226497 0.49928093808966695 1.0881155404465388 1.0424609758322176 -0.6801053800098674
Ni 0.7303515990971402 -0.0015494139589531976 4.745630627288966 0.16672241316263545 -0.4204645841499403 -0.12190654239952552
Ni 8.616603451531157 2.5126117784304687 1.3264472960440477 0.4597039892665373 -0.6089966369884996 1.3580134952581
Ni 6.54875340219739 1.1175942866648696 4.802710092993708 1.079201782896677 -0.8246880238506701 0.0949662663652558
Ni 0.6289403665902739 7.242665618609231 2.3031484488986433 0.5151135763850935 -0.4477290762928483 0.9660526749748071
Ni 7.5975776859478765 3.725868299735749 3.6723835470729385 0.293815641969423 -0.018542538888877743 0.1423714951220967
Ni 7.560113837292063 4.093041262998116 12.838866383634679 -0.5481465955806624 -0.6208815613515435 -0.8187870849852028
Ni 8.321915088540804 8.760609944691545 6.587312557555724 -1.3002325796938896 0.5722383464225436 0.6689516773858931
Ni 7.101737972647468 0.6249260584433963 0.6072158754424659 -0.2149619648953137 -0.7398783863034419 -1.9726709300768026
Ni 1.7567865786764 6.395592106747292 9.185770588171522 1.1197537361771102 0.6196590017983522 -0.3586408659749243
Ni 9.082962521743864 4.834162469788848 1.3669745522517662 0.7264477147198327 0.6617371619153248 0.4959154061900878
Ni 6.152245110169378 2.0259904424356714 7.1843646043846805 0.38947122109221954 -0.21456344390531437 -0.5615942364451361
Ni 3.353246049396172 4.571779297021216 0.4188222143946706 0.7386272875051603 -0.6715536337851145 0.3662515884426466
Ni 5.979893242062375 5.825215228375787 4.7447542002840475 0.21022702131348955 0.2639106268798745 -0.36653826644513
Ni 5.513343446801966 2.9981614213000807 9.314151250638012 0.06925137809765493 -0.3491478388828245 -0.25261885601613915
P 0.2410601124345109 5.241251460891774 12.29151546780792 0.7507580093304231 1.9457381102417006 1.158414900192734
P 4.0679563781526955 6.410895521289122 12.625665751382401 -0.923835418176809 -1.2211966114056452 -0.07565471052083744
P 2.2043092798922195 8.484022296942653 1.5144567823528996 1.7073749928136275 -1.0957599443656743 -1.2223811186320495
P 6.452101213737953 7.950709652841302 5.704229248473071 -0.3032636747562003 0.6941572301172432 0.22112927004829014
P 4.794854945671911 0.9018751755684081 12.60357343335688 0.02370685669863659 1.1836595336921356 1.2155201298461582
P 3.8801012883110313 6.005459480599615 8.485169371872406 0.5158147162171762 0.5397465444424252 -2.576184946684176
P 4.644836072436337 1.0364089913595786 3.730591923417176 0.6993909677123569 -0.27607400171528584 -0.0702646498535177
P 0.2286075832485746 5.625371706964263 3.6502113061702866 0.4697883700857329 -1.2000408032636365 0.21616524117479546
Ni 1.303106183063334 1.029170521692019 2.494855276489382 0.7587996486879771 1.6042493305660306 1.0366991336477758
Ni 1.9460857295935248 6.578815302573328 4.825067609656985 -0.4648374538383607 0.6531522484597913 -0.462132653312688
Ni 6.159056719015891 5.809167077933405 9.285891247855602 -1.3208978213527252 -0.17422077842220962 -0.5549132248805346
Ni 9.097403132498469 2.483748721211516 10.177003173232011 -1.1126901444621093 -0.3585408500619503 0.35976238117387715
Ni 2.472150821882189 5.181618095976846 6.916691082079592 -0.9616661158713375 0.7921070045908553 3.2659332491004465
Ni 0.3990013408658344 8.898931015001375 9.123042936411252 0.2559643754496043 0.6072588283617865 0.1464423227573607
Ni 1.2491128302733177 0.7389460330324124 11.437237998429913 0.8271298005229433 1.4156090342843812 -0.22062507671836198
Ni 4.028957646970134 7.112209685980838 1.3800546576660946 -0.6755866662039075 -0.3736052005942404 1.032890301424647
Ni 5.990782734071665 8.302978815947501 7.9728837101729795 -0.2107813511550628 -0.3145068517701874 0.15581733621435745
Ni 4.833662951806771 2.9948555204732403 5.176524828988681 0.9111519091718695 -0.8109110246712357 -0.5529702422215509
Ni 1.033057679807095 7.25776922595823 6.914710266227027 -0.6435013556335886 0.18708555020001974 0.620992375897795
Ni 4.953583596085891 4.503118279848379 7.232883240091127 1.0146488387159558 0.13481913669613554 -0.21862218735572025
Ni 8.254498325250596 6.978602248992794 9.138861308581879 -0.4620097545815785 0.8708789205844357 -0.06535512836704228
Ni 4.482783356905259 0.36150388827304386 10.646299409179333 0.4935127102858662 -0.5722771700802789 -1.8288542178677472
Ni 8.184901847129503 7.305795609398702 4.486517934982173 0.4077720762839364 0.6171966563007887 1.6092249294037508
Ni 7.148701745107885 6.2611037016817646 6.921144057836186 0.4722296325373738 -0.9999750387538647 -0.049919510538262414
Ni 2.5783483448718707 5.27642660897516 2.650392461105143 -1.245782014054493 0.35502949447458215 -0.013977288115698509
Ni 2.3405777854029686 5.043642147181905 11.510559972482788 -0.34855262850098684 0.11287579965582495 -0.1063649951205007
Ni 0.999780700055603 3.483747392750207 3.55473071443245 0.07374643775453106 -0.35141838008455606 0.9168954965238661
Ni 3.8253359531850766 2.5675224278784814 2.5234613090011924 0.08190969029161378 0.02750900405354617 0.15379670623990285
Ni 0.9955665847158944 3.386886314952811 8.068497809444208 0.9069026469772125 0.5196304904188407 -0.13356726656690546
Ni 3.4569187360400804 2.632078315453155 7.2818795966313425 0.45313584913071636 -0.32785139139789343 0.3217537631405878
Ni 4.512972407312999 6.875220190993003 6.261044667738428 -0.9704700873162125 0.38081920184417645 0.7124094914592118
Ni 0.7453843657141351 7.4141637650741385 11.473460317846635 -0.32982574151544486 -1.0470874188606354 -0.15955494887991875
P 0.07073083804766475 5.523506367200962 7.855496984384762 0.2722541137485634 -0.7227245002319747 -0.09769677792254142
P 8.693674535093157 1.6736758686038284 7.9845678898810295 -3.373362680929719 0.2114794056633519 1.7519964881777441
P 2.075851419192137 2.98183172435871 10.504679703758763 -0.6431786821868472 1.0495032273909795 1.019110216921419
P 4.006343105599715 6.349809013153605 4.056687252477027 -0.29907869014057525 0.4569853047837936 -1.4919060063749081
P 7.016983394306605 4.169776307190353 10.477762042026376 0.26522317504371096 -0.432130707633959 -0.13843616462343256
P 6.485369111344316 7.98008131018746 10.200357909430416 -0.12146148444230694 -0.599236215167626 0.3244811893740799
P 2.5008958112144684 8.581600864205218 5.997531676116789 0.6570454128666104 -0.11414078241117762 -1.0827681600916965
P 6.8073765668817465 3.835589695035359 1.5762671374551724 -0.5143041931099207 0.7275054665603858 0.8351598699162712
Ni 5.265482624095098 2.655319524837453 0.5376375616116308 -0.12926683941933864 0.6267048529015401 -0.32124648448686616
Ni 1.2516285844739627 1.0199793908217925 7.1365116899161665 3.154841795038554 -0.11319667333035344 -2.006632631734228
Ni 7.118921391230935 0.9333266441490348 9.38183684542403 -0.20907773820039477 -0.07620749770051391 -0.7117875416044968
Ni 2.6413602677746684 1.3788966841621875 9.289665787371083 0.031111119582507712 -0.7243813191091073 -0.30425406369392766
Ni 6.567925810564038 1.7263704746404431 2.512401072663483 -0.7694517290851846 0.8602116706785766 0.6580239747297958
Ni 4.038348585033192 6.7749714730626085 10.410594129512692 0.1908347328298068 1.208613632534312 1.0539103553197398
Ni 8.278057409714396 7.054365503656261 0.339861136431394 -0.29779185300835165 0.19556350576404385 -0.4841232986511662
Ni 7.607813263507903 3.6989215751389484 8.00612890241652 0.11115804563376985 1.1650779140352063 0.3696950669065569
Ni 3.0157262899789523 8.35971497656638 12.393603320126877 0.5521423470036169 -0.2858171971449787 0.11210009783206501
Ni 0.180689277335134 5.015605565169662 10.063297440864446 -0.9504435076826405 -1.6947886715081846 0.6764467002113576
Ni 8.264761149246006 2.373618629381115 5.900269167504704 0.7719104750383222 0.2985747539209632 -0.7584679763801712
Ni 3.911797974810132 2.831558551059533 11.752805304856594 -1.008623201347166 -1.081941550425343 -0.33425986602739854
Ni 1.0134129998937553 3.1563269787160824 12.808639188217397 1.545743363910338 0.7670354063342081 -0.6259777449275283
Ni 3.2183580299449823 8.329925540544302 8.045515441196077 0.38541582007592334 -0.4523658037339112 0.6075961570965471
Ni 5.674415290659146 7.962225812864471 3.4774071472358745 -0.493614268860737 0.6859836931675153 0.664932528924171
Ni 3.003919501311665 8.458192676196681 3.518827178309743 0.9921295745675172 -0.6087546961810225 0.4279876319998629
Ni 3.625628663950482 4.213688478887532 9.562776789964714 -0.5987453915741365 -0.0710704335842647 -0.0735795731593636
Ni 7.427723407751261 6.1958212424967956 11.379707150112273 -0.1520748384527897 0.26998562942936083 0.506210874578825
Ni 0.5817876855111812 0.1936449573611993 0.379313066655877 -1.4860929992375569 -1.3458902296320046 -0.5284156928106384
Ni 4.794564317027793 0.24620333122088367 1.4126350368862166 -0.16364865933331815 0.37621229919978433 0.7275476326522308
Ni 5.869209139379124 5.775272512313164 0.5935027445126684 0.6636744881473537 -1.3058913206415639 -0.10973365448241748
Ni 8.028071365047417 9.036362035088596 11.487390512045007 -0.6337895276624633 -0.5571012336707889 0.06636737168164053
Ni 0.1963069340984161 4.758517283012053 5.797663632913416 -0.11607862286383878 -0.127687924967993 -0.44781649380033195
Ni 8.149318002515326 8.857044161667893 2.574983410101694 -0.8963798930690176 0.10721448760498956 0.21805705888086963
P 8.709613699793993 1.5602217116563295 3.657190026487166 -1.8614640334829682 1.195049520696632 1.0623507727776091
P 2.0164541900505553 3.241871703683141 1.6654474451172425 -0.9909895474258028 0.02578173694979431 -1.230227611259662
P 4.719709276877194 1.0026869864967813 8.410225326699546 -0.24112062556855252 0.4441328743011577 -0.05267239069305123
P 8.543355951068335 1.7461786331660991 12.612931675697476 -1.5171295568283871 -0.2928964725892633 -1.6037798471287799
P 6.442238004128204 7.598667543363319 1.4801753173501753 0.28213074943232697 1.5007832542598798 -0.4604254408135941
P 1.8792411414464232 3.0886740796525283 5.9174834653816095 -1.4768766228456112 0.10434385092541384 0.2710652356467848
P 6.7146024543922564 4.113666814585353 5.629871001661011 0.5124946507050077 -1.5016168059047688 2.4343973490900073
P 2.253816052988667 8.311970139624897 10.183622240601792 0.6057575612259116 0.5831418807089247 0.11106240059617
