# total energy = -381170.52692527167 ev
CRYSTAL
PRIMVEC
9.22324663805438 0.00000000000000 0.00000000000000

0.00000000000000 9.22324663805438 0.00000000000000

0.00000000000000 0.00000000000000 13.49915375484653

PRIMCOORD
 96 1
Ni 3.2285052143283357 0.11862478520764452 13.657768700060155 -0.000341956720451024 0.23003454295771997 -2.534287535119442
Ni 5.279958153367694 1.714961235993019 1.1472824024736201 1.8420797154190858 -1.0737893536318537 0.2134748388268259
Ni 5.976719089007106 3.8567282050252443 11.747517209077351 -0.2705286464170244 -0.7627735457340605 0.583812167303072
Ni 3.271052050557614 4.531095098096981 10.366769534238491 1.068044994948909 0.16996765957281051 -0.3572609549082621
Ni 0.43382923526955425 1.800091801437684 10.108611786271036 -0.20603046673363867 -0.13905297227182503 -0.025098080619208388
Ni 8.336173122570749 0.4216434819580167 1.589417171240782 -2.2161533710093124 0.4038688845747883 1.708993759363973
Ni 0.284783416041743 0.4551450803182178 5.845430786317824 0.5930552831678947 0.656286937434031 0.531004279473421
Ni 5.528801344667484 1.1981366168498118 3.7993642232502616 -0.8895214753862876 0.44550250095517463 0.7957947378550876
Ni 3.374057267771701 2.594434685333278 0.4516181108462742 -0.5330087114979595 -0.21799175286057296 0.7742180401255763
Ni 2.337235232679981 2.075682407665917 4.80374164403378 -1.1806806535694698 -0.3650809651733132 -0.6970551204903286
Ni 8.196394821453318 7.915519294965085 11.143753345845527 0.14509815002464044 -1.9212072149798718 -0.3815979889917299
Ni 9.115537454106414 8.694173436518167 8.949804014937213 -0.42461691575541716 0.4784938682795308 -0.06131078309433958
Ni 1.0390817304908466 8.864868059994269 11.082939869869426 0.5068173978145722 -1.7351922721362119 0.20951019775212307
Ni 3.2476803438580713 0.31444629919738626 10.937445922879181 -0.2968683127528178 -0.7362564732801384 2.2470217784533943
Ni -0.026851637614198617 7.904986347431194 3.3057941755757034 -0.9699103581580005 1.016658927167449 -0.3509406691171892
Ni 8.877264103326624 5.61996391334084 3.4984272132410443 -0.5592403915009788 -0.2583958677092324 0.6749685730039344
Ni 7.067930608868836 2.432391467099549 5.146079963053616 0.6662566470522332 -0.9515686224260194 -0.5436322526500766
Ni 1.288699674498909 7.353795911728201 13.713250217218967 0.12245213049035042 0.5877976343133813 -2.422954654470705
Ni 2.5747153842584463 7.118049730496821 9.577635939981374 -2.942748152829971 0.42182341217068 0.7250827160515061
Ni 5.10823974952709 8.128751531423937 0.4579268114707759 0.8351840382859874 0.5996547907622833 -0.4538701561935796
Ni 5.317100167132122 3.2837616842718877 6.235178437135998 -1.3313591258953652 0.7739007659954736 -0.20793256885235803
Ni 6.135792421859126 1.3769015810370813 12.172740233012515 0.4263655230154077 -0.24062928775443074 0.7107511299201824
Ni 7.821414510649601 6.10939549029871 8.582802734704048 1.258430556056439 0.9144544911825412 0.14368532883751384
Ni 8.48208488262867 3.9959162183649455 7.618949492186426 2.5924497452824706 -1.4178862603543323 -0.09044112480139263
P 4.017747642894471 3.899330380733685 8.116163644563821 -1.0123250756787856 0.3652861392055838 -0.8499228871580589
Ni 2.7334474569889644 2.335353690388463 9.855840414275372 0.04159016473696063 0.6839268106384867 -2.091991971137339
P 8.91006196797681 1.7268131077802775 8.019253148654808 -0.8378052779589183 -0.8943878023396532 -0.12406164106931536
Ni 2.9570558457907477 4.191467491231444 5.719375753707988 -0.5361125472342638 0.6329048110646648 2.0751345332603686
P 3.5371980523421485 4.44044903122914 12.804703250176145 0.9433480342884398 -0.5421687807306727 -0.39734342475144474
P 3.43470011368705 7.588656661292985 2.4587090787398314 2.195359317082097 -0.20793951083089351 -0.3109435598989613
P 1.0166600181835899 1.233175730406072 12.355194495810604 -0.5673277964948036 0.39495409858366176 1.7155410735641874
Ni 4.04988143379471 1.619906457285249 7.681099416584295 -0.7450257348323363 -0.17622752443959327 -0.10039823601410451
Ni 1.697907453164505 6.503154331031499 2.308922632815898 -0.13088714863158105 -0.6442294920488647 0.9933853013514892
Ni 2.0250929004650517 3.071562451424065 11.98350872866635 -1.1865929052888466 1.0547631902383383 -0.8259576345917131
Ni 1.0659306011310872 4.9533998868309865 0.21155637256488782 -0.5009151733975243 0.983419448388029 0.6559897179085864
Ni 0.8664631377892028 6.9369881779243165 7.692479058149368 -0.14484849590767956 -0.2129585613120397 -0.16332470033499613
Ni 7.586821235234102 3.656888122523667 9.980774822432172 -0.6677257753985919 -0.4790109171252654 -0.1811820402313912
Ni 5.222386648545852 2.850103079063084 9.528377347254363 -0.07202251308488887 1.5923456371499092 1.5166510745300719
Ni 7.3896743407184236 9.249993941977738 7.3100076265163825 1.655892251553303 -0.9492057786207976 -0.3336965373247608
Ni 4.5340280904925825 8.005040125756626 4.462644773996484 0.022763776059076927 -0.319110926201102 -1.3951541088641393
Ni 7.3482250708258645 7.157119402785402 0.09217251416806715 0.04858382244597439 0.8404108339025655 0.5360562400750316
Ni 4.0754851661538 3.484487198440062 3.8967875316661775 0.22739119179760195 -1.712390700860664 -1.844952151870874
Ni 7.512675556403153 4.935654360512944 0.5650160822470399 0.2747933352306493 -0.046675549679668006 1.1411784817097894
Ni 4.6239178511452055 7.5856222131855855 10.48085094820691 0.935434692978634 0.9326447889383228 1.7349351618200828
Ni 0.3381666446156516 1.28181913258973 3.410074967784481 -0.4491596380917877 0.07006718913073093 0.6694676977903632
Ni 1.2922229546722417 0.10522525265314732 1.2727775840192637 -0.012667053944707216 1.575339589510216 1.2437271884079935
Ni 2.2027510750690755 0.29823644342609706 8.963154664285117 -0.22069269673150382 -0.6167330864008088 -1.8909623000524016
Ni 6.121570175714416 8.648859626330774 2.4560223470265017 1.0012672752027272 0.35140218213464 0.28157127738443116
Ni 4.3051347814308 6.094038784831174 8.764649185556005 1.230070002635875 -1.7070798301707115 -2.53675553704396
Ni 8.25277652747317 0.0640240880921654 12.960091896040607 0.8593372384934232 1.5104634576621212 -1.1541360703117218
Ni 8.583549817672738 7.452641444758588 5.834563957259654 0.19622042262175238 -0.8126228651560199 0.10349924353693142
Ni 8.991752262466886 3.6435974242781892 2.243896900150895 -0.30159502880452577 -0.5861927517201067 0.354129608368132
Ni 7.272336198401303 4.935645137266417 5.812073992928096 0.07649880368868761 -0.15917519694299684 -0.5025347112788184
Ni 5.211318752713393 0.6671432463917514 9.921918519369113 -0.6900133831521987 -0.945689795047739 -1.0135399219224932
Ni 2.079593064193386 8.70147824776759 3.877483276685063 0.1188808681993243 0.5899887284274291 1.0616421767463586
Ni 0.579812936650385 4.150147346790264 10.0196388163232 1.460442388548988 1.6304380731462564 -0.5762757497167107
P 1.964533063768446 2.311271793706337 2.4350855774100997 1.3777287142988401 0.021425259753311485 0.7916881718858817
Ni 6.381296797916124 7.131663242370746 6.641623853466743 -0.36867948115784893 0.2607229731805123 0.5502255895968781
P 0.3237977488511615 5.320937037687374 5.908255852361472 -1.1109111981848159 -1.7192159513126133 1.6905754047577854
Ni 3.659507524537349 0.4486362352440792 2.4088703438062677 0.07104317989075506 1.4334632888569827 0.07397552304620163
P 4.051587734402215 8.260081338722593 8.173548839805816 0.08772526853212632 0.3317080461398223 0.1558906126544541
P 3.138827588345835 7.552870464768034 12.096483353051527 -0.006123596399234615 1.6374199037807287 -0.09441167941336644
P 9.009101189184266 6.548892410559136 1.459029057412539 -2.179342629938866 -0.7389952123675402 -0.41119421459160793
Ni 6.391119555467431 4.398474036284539 8.057469670639637 -2.825771700742211 1.0531673065061282 -0.027049805028940513
Ni 8.948771933650836 3.609001026555227 12.066920080958374 -0.5060044149949737 -1.17667796016798 0.997295949259805
Ni 5.765100920690487 6.410165559545788 2.085376039765846 -0.7012506466289149 -1.051729545618337 -0.2859454951927269
Ni 6.1015465075041915 5.856696981950614 10.1820472751194 0.3977972244594117 -1.3330773941380525 -0.08458620868251238
Ni 1.7023069417579075 4.79510130668724 7.965405068455936 1.0823835230587682 -0.7124647701771795 -0.4047417740980449
Ni 3.6422416070387134 6.311246240543184 0.31828132510333335 -2.8899338372424164 0.45377528248692817 2.6126964113466484
Ni 4.133444047329777 2.303210676241696 11.67746941867837 1.0327882286291439 0.3514245507321431 0.5382697027865827
Ni 7.6372631704905345 5.426672335873468 11.83202151608283 1.042535537823895 1.2986922317899634 -0.7834866099116959
Ni 2.4088352954694647 8.430619167007734 6.627638644757778 0.6080916086757269 0.5875865467438397 -0.2579338404711493
Ni 7.397938369606659 1.0305871204394343 10.188972088611909 1.1084537377832586 0.4554596121678866 -0.35180121734527153
Ni 0.03375892693830584 3.1363742047696404 5.147632235444118 -0.017619255743659978 0.5370836528982815 1.125351284869546
Ni 1.9366419662706489 5.852638753478712 11.705925901188277 -1.0982639417344504 0.03638933726231152 -0.26920632806117506
Ni 5.145741469906073 4.19038837138778 1.2141251147044516 0.2735754036631482 0.12238733869068598 -0.8147548238973582
Ni 6.737258774381065 6.6677062723205855 4.2680674759632415 -0.04197454465957287 0.6281007048078022 -0.4270309245135484
Ni 7.537919582147686 2.6680085228795503 0.3808527518674885 -0.3548811418221759 -1.1787806083332797 0.12464219616313373
Ni 3.3760863820076517 5.850526630024018 3.8766596407701983 1.720577350436514 0.09565840733627397 -0.02674615774559265
Ni 6.72020499155255 8.082330931653297 9.451297753703159 -0.778878164605407 -0.1693945606781599 -1.3952042453757842
Ni 4.142575061391557 6.487557821154259 6.237418763717418 -0.6563077633696374 -0.4738193456219969 0.3151869085563475
Ni 5.363677562093721 0.2840335660990939 6.09169515788865 3.8966814188334244 -0.25419931312938154 2.349133654724496
Ni 1.0495685617921016 2.7972169834769836 0.6346008656703633 -1.2180261840974635 -2.6099527871632406 -1.4870191105962518
Ni 1.5193177306612495 4.1409609932493225 3.7174239787793026 0.5603552218317124 0.41217586177858695 0.36439345218798536
Ni 5.354694119976375 5.965208477341349 12.610410028135934 2.072700727007895 -0.02575782569039435 -1.1759217987282458
Ni 1.5270468112509166 2.3657258412020363 7.123544018452985 0.21769324778354765 0.10199154864315338 0.4363100358226292
Ni 7.613559426916018 -0.07225214631894608 4.593626864901069 -1.494958934268619 0.3962779596014078 -0.355337255522988
Ni 1.5638291184007893 6.616415798383664 5.021091137742307 0.5261829468253776 0.8005826461620341 0.029434503211033178
P 3.678193822001151 0.6173948992741528 5.276697735720383 -3.0450058106503173 0.21700856301169721 -1.3937592853991416
Ni 2.879110189390654 4.530154326951222 1.9398691802304635 0.3567151097071211 -1.0818757301844142 -1.2521449801580435
P 6.303867643321545 8.441493374663125 12.020901614736315 -0.713495525434539 -0.21280815177710447 -0.2382132221137704
Ni 6.87786716768593 4.029636407667837 2.9723110955464875 -1.2382283700769514 1.2858385157557468 1.0160495757182242
P 7.03669147288172 1.9876096265791232 2.5543098736420022 1.2057928752560654 -0.7820498774651693 -0.7813469378608737
P 0.4157323032588308 6.45464005429922 10.037471041158597 -0.2177284718968573 0.19281088271957117 -0.6392819182356022
P 5.357212066278259 4.948391663966799 4.461389490144153 1.264507358378138 1.3124589465567527 1.0235546258460178
Ni 6.516850852124167 1.9707310854346232 7.89622149625654 1.1126742036225095 0.4220144451355635 -0.2192690769110998
