# total energy = -340863.0347450193 ev
CRYSTAL
PRIMVEC
9.32960663260010 0.00000000000000 0.00000000000000
0.00000000000000 9.32960663260010 0.00000000000000
0.00000000000000 0.00000000000000 13.65482235790055
PRIMCOORD
 96 1
Ni 3.2566297225919185 4.58472718007859 1.267651870689692 0.26920607095085897 3.9556401567558193 -2.0564364426302326
Ni 4.490059664106905 3.3025966932426027 5.199469872046647 -1.9492692633234106 2.093616908335272 1.4921026957667463
Ni 5.767441381293776 8.899726110008626 8.406809418194138 -0.19116949046140624 -1.434389400215678 -0.09602170421296366
Ni 6.657075327582923 3.8928062522650455 4.399720152536449 0.17774293264285518 -0.011427782220967415 0.3877514101876354
Ni 1.46100703002364 7.013428973000729 5.261312100919211 0.8181404525401393 -1.3622815265058346 -0.843587174748018
Ni 4.2772140240775345 8.515448952685503 4.055331727305268 -0.2818042193308437 -0.810355923498714 0.5694893229224965
Ni 8.136928162500897 8.769774022695174 10.125050489497772 -0.0341211100534251 0.5951134512485041 -2.2217725169683025
Ni 4.075993073601799 1.0330579852201331 10.34741885876261 3.9018534499526667 -2.580660723067343 -0.008201047753553618
Ni 2.48638674919029 7.080396887620296 2.618639517437872 -0.20759575433822958 0.03222003637597031 0.18228427215663445
Ni 4.189049243755034 1.5452160572396079 7.983674450284431 2.4545100606794827 0.34266531648227433 0.3773908928889178
Ni 0.7301200681894651 7.811408866180008 12.489205400656816 0.660589678574443 0.012612803668004085 0.23855466461358915
Ni 6.616109025953706 8.74558235334319 3.523053426159496 0.22957405838153364 0.9546536891092463 2.3376770761481223
Ni 7.274518007638316 0.8926483421116026 1.8402191440412512 0.4820738723213052 -0.4383057260964194 -0.6727710511319833
Ni 0.08522035654792137 1.8856813829865968 1.604714688988679 0.15604127929970546 0.9865847334898881 0.11133236642810503
Ni 0.4784147516522343 0.6699441070169639 13.088911566016856 -1.4205838617911535 -0.8777334816124238 0.9731944282259111
Ni 2.909428421036163 6.398962437381618 12.996509278475044 -0.622915818172753 0.8512416059694823 1.4140676579391906
Ni 0.8625855514625872 6.172420935181516 0.8135584699181696 0.3632539392669034 -0.8644797019263111 0.16507870691162538
Ni 7.020220926447795 3.75741500443011 12.252799705627615 1.8156246065513504 0.8870455030419692 0.5782053626392558
Ni 8.280389519857415 6.342574296400752 12.232822219478985 -1.645778817268385 -0.340343096107001 1.366377550952079
Ni 2.9932642639967977 5.633104378980157 8.755813199703153 -0.2523800005324557 -0.27181162689450605 0.0003355289625478093
Ni 6.651617507848672 4.387769859720037 7.679048807459018 0.7396241042007907 0.5770478519960449 -1.1142631453761842
Ni 4.296927482365518 3.8214067746133944 2.995240274628788 1.610790217008342 0.014042079915362915 0.8662136538982823
Ni 4.347074116675937 6.9471701084662945 7.093693442637823 -0.5499854485616141 0.13514052459129627 0.506418619714257
Ni 8.744528107821873 6.709153190414691 7.0048961150025315 -0.4586130701952037 -1.1000914818614924 -1.080495819117752
P 6.637035333071522 7.52375844216907 13.258285905103083 -0.5785159519011392 -1.2564654619102684 0.5000993623644484
P 6.952413347253727 6.855394770473443 8.5396434209194 -0.5302902841255318 0.5219671089718172 -0.3634598846301224
P 7.510389116221753 2.696582781006793 6.313688902077312 0.03734424497641311 0.04648631648699736 -1.1329820619419262
P 0.8173024409598014 5.288412741541517 12.270469047157011 -0.4734349656993847 -0.45240462739164666 1.1864779769775373
P 0.942971305982665 5.124248987620382 7.9929732689667 0.24056501017539864 0.6680769880904236 0.2799900489402404
P 0.4707896643551358 0.8998377367905994 10.196396788393038 0.1507214097486888 -1.1428473847717802 -1.5154889359011707
P 0.9964112913463992 4.422466665859654 2.2229503855866555 0.0031354603051881483 -0.35303354709047585 -2.8224665476283777
P 3.746312772833943 8.77200379862079 1.962320367583128 0.07115579420921939 1.4671601668887957 0.028071818535551657
Ni 7.733124139017456 9.027009929896444 12.233122632804527 -0.2287111961606061 0.1379178302261173 0.8357255126117542
Ni 2.3763720307180214 2.92162221657918 7.532628098957705 -0.8447102326088678 1.5035191651338042 -1.2545790435208328
Ni 2.192336215200385 0.8850279196176958 11.42894974690799 -1.570043116997967 -1.9466127995371703 -0.541557629509235
Ni 3.4542681042164554 1.3765367738289387 3.598523411076196 1.6954882686783703 2.075381102053535 -0.9007723657097584
Ni 2.70368261146451 4.250008891863734 12.467494473642164 0.8412369293482866 -1.8399688397236698 -1.4991765718943924
Ni 1.717356624618494 6.4639618050543035 10.738821036480685 0.2559983140113333 0.7121228134567285 -0.5754272856734864
Ni 8.09265918021198 2.1076886964844004 10.486316172676403 -0.6413316016757793 0.7147615366311562 0.2330679304674051
Ni 7.3045033625543505 3.165871311694851 1.8879839298420036 -0.17209164789434878 0.06367336978924518 0.30209562259002815
Ni 9.107365829676096 1.0422569771141 7.9420681376573175 0.022423619110838802 -0.7476870837145833 1.3974318491547224
Ni 4.549349312672989 7.079603871077713 1.04173078731408 0.9023841902815686 -0.6958161058769049 -0.5338959991989192
Ni 4.202707787500233 6.121406647477448 4.668023771790268 0.8030313648128428 -0.1369390112526158 -1.1070383454929709
Ni 0.14147508415750726 1.8307020125696127 5.6286812125938175 0.887345293670575 0.021145780839679714 0.6192831065161722
Ni 5.722649941047392 1.987439399809615 11.969721721705149 0.7462233546848632 -1.7954812988342561 -0.575494391465996
Ni 9.123496719112879 7.216068023646732 3.278768878539569 0.47370904529637764 0.7857409531635113 0.3661420594479759
Ni 3.9899927619602304 0.9471882880679319 12.908831503605754 -1.494470681778291 -0.6456939924095331 1.1331332428078096
Ni 7.630377183917806 9.127060628751313 6.494738310591643 -0.42558802141943475 0.04201491097920506 -0.4846565454468169
Ni 6.567091274015672 5.3113822324572855 10.594161757664546 -1.3788389166438833 -0.6630185997309097 -0.2740690554701151
Ni 7.719139059048841 5.314451672957401 2.4621829513500075 0.08413780829118413 0.20798064848147407 0.7566450642388195
Ni 8.703421862096906 4.323880715206969 0.38929368667544123 0.2479433049173407 0.16321619978158985 -0.08151759705951768
Ni 5.301240950318601 1.3842430287015721 5.57011554148308 2.529373385647276 -2.769675629079591 0.1786757288697697
Ni 2.804209120244928 2.4654697716788565 9.788705117929663 -1.2602508970946296 3.88579536804854 -0.48958457887605356
Ni 6.725797208202557 1.65873870771201 8.036559324068357 0.397937863802334 0.7480262122215569 -1.1790685718873435
Ni 8.87871583643336 3.323868195796603 7.975125731955383 0.32241505087367056 1.2242677941318012 0.6838581621840802
Ni 2.103173166994867 0.7899526998470593 8.345049289857746 -1.253479382698751 -1.6350969120745067 1.0992273340889844
P 4.787394219543743 3.610455044679841 13.028557409362433 0.37005656401103365 0.9087314726558349 1.1897373644550995
P 4.041044368089832 4.640424930187091 10.46624352454266 0.02542898159606588 0.3710461816178126 0.020807680773970615
P 7.998476803772228 5.618858070032807 4.667258744066835 1.2123160210865638 0.8627028125315465 1.0784584769727492
P 2.08678104857935 2.1464905294326844 13.068674716810767 3.0366065308430286 -0.15372291557917395 3.500841832321016
P 2.765472594541327 8.338484978806433 7.228794539714237 -1.0087954652589723 -0.031842855542209676 0.22708523052140892
P 5.373722662310719 5.831134604072793 2.6783797859922713 0.24235321242407296 -0.5209492092302641 -0.17051864698027408
P 4.465812017116622 4.5524000939603395 7.392707327223661 1.3044612730632565 -0.25008451963005957 0.3212760521732209
P 5.6927298933760415 2.017732631736299 3.393400819210949 -0.35345777911208803 0.24703699105298746 -0.5433951969386062
Ni 5.272104589583451 8.559466035602071 11.431584427750645 0.6903589394170756 1.4119665524357876 1.1363399226705655
Ni 9.37877340897365 3.739007691035793 3.968733387894529 -2.5554171180092053 -1.568323820314015 -1.272662640495421
Ni 0.7558828432564021 8.785121225195757 6.443232352631175 -0.028132753680474132 0.9944736493196614 -0.15697664662978125
Ni 2.8295949792139785 4.9667279134441795 6.203795468488027 -0.05282100045577355 0.5943984274593506 0.4932129196572603
Ni 0.6146820495265648 7.6521151667909715 8.63062574236967 1.801900829207355 0.9247833839123751 0.797319144919414
Ni 7.761290220688741 1.6876511578939604 3.992901733230554 -0.11038157247906151 0.03933119349945484 0.490151250012801
Ni 2.0866224452708333 4.734933842850259 3.980489624898167 2.033671381019575 0.65802037518537 0.030795645224617932
Ni 1.315446511230871 4.1445656805193 10.220115446701385 -1.377004691648622 0.549405407688428 -0.7047404049497282
Ni 5.156137582238616 6.931459051316761 9.95469280989874 0.1770785595859789 -1.504022587132784 -2.334751160750579
Ni 5.8657847621804935 -0.013891783904783557 0.36255876662336084 -0.957506842287325 -0.3371520999735291 -0.34737403481185336
Ni 0.39950400790136137 2.8259191142989453 12.343030993764026 -2.347799509294105 2.5352401288406985 -2.0794550150125928
Ni 5.606141816532324 3.415550237725621 9.36024387773571 -1.6855229299355423 -1.1346602209752974 1.5919257760036714
Ni 3.0717915609253157 0.9510787339297819 6.052185632916305 -1.0877152196843267 -0.648021097880813 -0.09217276278051868
Ni 6.415205282095002 6.440619129883203 6.356606024401285 0.9081030950432166 -0.2254975743193149 -1.0890118270085631
Ni 5.230727785273367 2.254303460798486 1.1785298727522606 -0.8622605827878053 0.1314975285220703 -0.3395326843905636
Ni 7.186605126688165 7.506022860434353 1.8593495019302764 -0.12520552486577147 -0.4758651724074321 -2.4960313198517206
Ni 2.494848702179973 2.673575971665493 1.629662056457713 -1.3716367424684894 -2.5682970592956673 0.15163826513600337
Ni 3.3360340025204698 8.110310795489246 9.71750902569717 -1.4217601414874417 1.1249689618294627 -2.3591889820779692
Ni 6.148649098116782 5.194650197389016 0.5072749560384381 -0.10843293339312293 -0.4570038167265549 0.6052628809776802
Ni 1.8969795363168138 0.26168986128867416 1.208732607497026 0.9622582409293815 -0.02687471290365694 0.9970601790999153
Ni 1.9889881144692483 9.221224345978298 4.1346940240050944 -1.9490651177324048 -1.5355047169014653 -0.2576062819284015
Ni 0.6106367321987514 4.601874996611157 5.909328834053426 -1.2864159855257715 0.4246580534059977 1.220220106424989
Ni 5.206470808676699 6.316637990655084 12.217979748683739 -0.6340013865629532 -1.0557738908910397 0.6210836500600206
Ni 8.469565948492269 6.381907916912885 9.974082530845223 1.9113210662144116 1.3816403906484207 -1.068086646820122
P 0.23851325311119714 8.149233913320513 1.1235421056895312 -0.5273965075175046 0.870301707924727 -0.09798371303534092
P 9.222390546776214 9.42159630227315 4.104625635592249 -0.9172855328734331 -0.6176900509974393 0.7148055024952141
P 3.0834628985108656 8.032893721720345 11.757129846969406 0.024553520969648038 1.190038440635286 0.5360505836480768
P 8.298293034507033 4.333089036707319 10.088551203404894 1.0829064854417736 -2.9700576392782008 -0.36343263093661277
P 2.1836783404766513 2.71364663108191 5.046043562112089 -0.11841986940250573 0.828464974394599 0.14939163519367177
P 5.754370602750725 8.443545676289151 5.610138619906944 0.09604201592793782 -0.47906465318133623 0.5896534565751973
P 6.2369724817478005 1.0493754667845834 9.998784529666374 -0.5844711410433094 -0.9257064099472767 0.5363745426463988
P 7.815028753456742 1.67346082658491 13.169461521609282 -0.33413182508996647 1.183152255038414 1.0318140376413327
