# total energy = -381180.3832229357 ev
CRYSTAL
PRIMVEC
9.06439477578889 0.00000000000000 0.00000000000000

0.00000000000000 9.06439477578889 0.00000000000000

0.00000000000000 0.00000000000000 13.26665799744262

PRIMCOORD
 96 1
Ni 6.889085182881687 5.497764010727339 9.641610168570772 0.12945041618505446 -0.5601114812520225 0.2967652115160502
Ni 5.563245199756436 8.917778349467085 -0.15363696199455426 -0.5074712293484873 1.4196605786459358 0.3488040823901606
Ni 5.2125437596213695 1.4678337298224815 5.7683824280283575 0.30933302087873177 -0.838946076431581 0.8467043802207611
Ni 4.308007788800013 8.113413007100952 11.215712145322987 -0.3582294894691185 2.500213219143552 1.2607286080619966
Ni 8.954008736032602 4.7163406519482285 8.784730254133756 0.532623817354715 0.5472793624843607 -0.7784919849105818
Ni 4.904871002255007 7.811876845107334 1.9187837522092348 -0.5978483336811639 -0.5004158651636027 0.5206645881103097
Ni 8.942714499940374 7.780831292446114 6.266466397651047 0.31896488754154095 -0.35040485121837717 0.4862948523811883
Ni 5.366846954643836 3.9503902153275714 2.563555918667327 0.6443673031783096 -1.3912524598168876 -1.4849956524083199
Ni 7.585176327718396 8.195137591858195 9.146074200365037 -0.40688478858297666 0.42326991480921944 -0.6082461319757202
Ni 1.4197652434684815 3.8205336934517646 4.943289533758456 -0.7655583075680492 -1.0916243249307458 -0.19458340123896167
Ni 2.7409823851755664 5.071066683435581 3.3847891935728063 0.20891755847344665 0.36519717903620336 0.9158027776803196
Ni 3.854869621475327 1.5874384210238823 13.643564100940274 1.2993869438641428 -0.2914404568690271 0.11791310496941629
Ni 2.245268754829056 7.572658398309595 5.791453126023493 -1.792570038724732 -0.19945744150181133 -0.35852516633266646
Ni 3.2855802974204593 6.498010927694628 7.52244708899235 -0.04471636907076815 -0.009338503792106498 2.3024789309804343
Ni 1.0393688455178953 1.8896000262681945 1.113635246120496 0.26709005304912065 1.011324145218097 0.15389003728465755
Ni 3.7510007198855693 6.036016846515925 10.732315214817664 -1.068158894818954 -0.4319702707966947 0.35197013882296807
Ni 5.447710421882009 2.5296369528108933 12.03928040836439 -0.37232864787466197 -0.8029614308068559 -0.39261619447910445
Ni 6.367311417089627 2.2182568579150597 3.7986957531681407 0.4145307351640087 -1.0763671416613592 -0.26446881337618966
Ni 4.066659209191942 3.060067215768345 4.434221330350405 -0.8640570125665958 0.7036605416219881 -1.340938284943368
Ni 5.1545316320208405 6.543341966777478 12.957147384820448 0.6127555898102995 -1.0067457818187953 -1.309624562431751
Ni 1.88995353767076 0.2871156160874188 12.954414469746764 -0.3982520526086431 0.7379099497231614 -2.87066599015174
Ni 1.7012690926500431 6.719426902834956 1.994841277251502 0.37723379848576327 0.11224125139561959 0.56927592136011
Ni 0.26491600644578556 8.76695588210065 1.2647994411760777 -0.6067582345762841 -1.400564481246433 1.1806212610864442
Ni 0.804765988622373 1.0587666506843219 5.368711500682497 1.0304107295359026 0.5245513247592256 1.3107255088054135
P 7.9632159829852105 2.3288606049434413 5.373513817120428 0.45193617239566036 1.926147589704283 -0.02761004840778471
Ni 0.7606477655821715 4.0512044158233635 2.3488747889656234 0.39393517040084414 1.0490987928637092 0.3157795478350239
P 6.196220962642758 1.8970781520917 1.2795798435612997 -2.8880859854004006 1.4179731636411836 -0.7638516092895876
Ni 0.7837066798638876 7.638846610143822 8.710038733408581 0.911398735075353 -0.58683938416517 -0.8523759766842417
P 9.282212347932589 1.786157151240503 11.69032749001278 -0.5466299018258198 0.2054617387143623 0.39888454398631945
P 5.342137414043986 4.699344911440262 11.195653545765612 1.926603960515411 -0.5334447705941135 0.4813146255577775
P 8.148918242071463 8.156949295986161 3.5345955422667377 0.3424254325573264 -0.8911055320439557 0.43142982491219245
Ni 1.3015564690874684 5.059962799637043 11.399575238676405 0.15782073979763142 -0.09910831355808737 0.7919373117822103
Ni 5.5272958094339835 2.6944367171710804 9.601610806590207 1.7565280574995101 -0.26793825998202886 0.4336875105981176
Ni 7.013222071551879 0.16987673196472702 2.112449988687647 -0.4499561658511541 -0.5900100685836678 0.7672971446360269
Ni 8.849314974503525 6.615712095959137 10.4498677621231 0.15652567513529175 0.11667794701073453 -0.062291401840054016
Ni 2.9727952213093007 7.40623610725558 -0.044338487837184706 0.39435066067170793 -0.7628599348002798 0.7072659995850593
Ni 8.01035083666064 2.441957060579658 9.195864015317683 0.5455646937860991 -0.6466656122941831 -0.3013371471574488
Ni 7.984789242936658 4.171561451804584 3.913053972579669 -0.18564933197412542 0.1085504328075937 -0.39184332086882195
Ni 3.8532199015966873 5.621366100096214 1.3933706318497352 0.6003129931715726 0.9506713074227303 1.5882969210018323
Ni 7.67225796988375 3.536210817444615 11.151953191332034 -1.0353287356628105 -0.06707365372004577 -0.7868046185413353
Ni 8.720419278491102 8.573059409990822 11.929564972039891 1.2101298120685222 -1.2738782580700772 -1.0444440677005173
Ni 1.1176761533836703 3.10976729321111 10.07824207271412 -0.27793933705879875 -0.6200991746595643 0.5213839827748376
Ni 2.6457609163562625 0.1082442850261287 1.748359530790278 -0.7551707936861382 -1.6637816816037085 0.7708570940731433
Ni 7.58369883134357 5.730764282597897 11.984356520119094 -0.9716293977316361 -0.6984879962821131 1.4278001770339346
Ni 5.687617762695004 8.486838885344538 4.2678570514239915 0.23494534999577604 0.6287126273601882 -1.2336772603711592
Ni 1.8840616809613315 9.307048790061563 7.35932061193764 0.565709029944458 -0.011034146326974546 -0.319338725941192
Ni 7.731394082456538 0.9191387110658013 -0.017471621242190233 -0.15230443796509252 2.3114569661093287 0.8225018148326287
Ni 6.077123877557861 4.10108578116488 5.368857437440991 0.07986746305060438 -1.9930541217188449 -1.703821985355046
Ni 8.342007983031845 6.302192803858034 2.4507368335162 -0.9768518224728402 -0.29511379195555626 -0.9090621165223763
Ni 7.108778922983873 6.4732651295150285 4.886548234328178 0.7661442619785064 0.3853924230371556 0.3309778528420171
Ni 3.4741015833323003 1.8166316470206554 8.741971690334191 -0.5837532890406786 -0.23105167136832463 0.6832634660228749
Ni 7.12401617087395 1.076106838199917 10.960422526300913 -0.023155869291173026 0.14550284166222682 -0.34649368908942907
Ni 7.64571742150651 0.29078669603713975 5.248290107497219 -1.6796649284928684 -0.6894647097375802 -0.9625343774089036
Ni 1.7908615722131083 7.586019316447591 11.247472878744784 0.09881212247390724 -0.46325134029816345 -0.5510707112059928
Ni 2.3742732235807296 3.84612248036056 8.258097066215656 1.276021529665325 2.238492143715829 -0.3442884539079942
Ni 2.885994575387011 2.226786453551325 6.267514241705832 -1.2504678495659367 -0.49786507371729094 0.556617352055835
P 6.1828237869250104 5.852997648331196 1.557001995702468 -0.1483570232815703 -0.16293594953700974 0.9005664203465394
Ni 6.508108663655095 7.777513723898959 11.297342460372882 1.1389591054609676 -0.41211132708923864 -0.9325360312746004
P 2.080759051106871 2.244326057755547 3.4562827957640003 0.9420072039898292 -0.05416440185754543 -0.028744676232860172
Ni 7.982822269235202 2.7785996241665334 2.010097560370947 -1.5396588482791547 0.3648487945578491 -1.6654086756841706
P 9.055557152518338 0.6171420778093532 8.142729979647575 -0.9062426447957102 0.39001886606557346 0.8986931145832265
P 1.6671053881302946 4.710131541415985 0.44163091795142484 -0.4585428790789006 0.8224339377091708 -0.10529490198477351
P 4.022479348266165 9.323727276746716 7.392393869746399 1.6862770344927476 -1.2187720611245525 -0.40615125285106185
Ni 4.730336077731856 4.79027892145409 8.878578467120017 -1.4881979613957015 -0.3553837924902073 -0.5647096421456661
Ni 6.362108454395455 4.001984751312291 0.2533734059322681 0.18411129806304422 0.8773025647225923 0.39002606515442506
Ni 1.175389155951258 5.619272224865632 6.70223627783583 -0.4026681793984678 0.2906786390023381 1.0586352715992349
Ni 1.3073486174525837 0.6717786247351254 10.11301399813418 -0.004442352042069769 -0.041338967958103 0.06937401971844827
Ni 3.6672185174774947 4.434582999708415 12.799433257982967 1.4977958894967818 0.8682314556592595 -0.7709301134029239
Ni 7.235571679370777 1.4079543368648115 7.26616219940613 -0.3994332174009379 0.09258465350695669 0.26125262043173714
Ni 4.417306262957383 7.214850472543463 5.574504084708406 0.35148085789137534 0.8434974432476893 -0.29912496999747834
Ni 6.42807912075118 3.732572804977464 7.78545866606175 1.5844747190422648 -0.428673602323294 -0.6709555951897994
Ni 7.292060988621791 7.364014155636321 0.42925892530111853 0.4787121549379239 0.44729250297606193 0.4073864108097436
Ni 8.787033516887394 3.600667729845764 -0.19608371060826552 1.7168448799772753 0.20214090187124545 0.9471756355646462
Ni 1.2508139862268817 8.438154020134782 3.731579347292305 -0.4179988962182672 -0.6061519684508528 -0.2956285268084457
Ni 6.048453196370287 8.257745367692078 6.94362292790264 0.19883343476456722 0.13604863822786245 0.16972623298596576
Ni 2.356615782242319 2.7319995697924218 12.399549317356072 -2.9398595184282663 -1.311564202656625 -0.6844898822308083
Ni 5.553482846408659 5.668510018166581 6.653865947130409 0.288037087614433 1.5590292823859664 2.6742090260391493
Ni 3.011871827885219 3.4598432900954825 1.6924412784203315 0.03943892272191272 -1.6019649054072282 0.4341119997300459
Ni 5.444873266266545 0.38705872822970955 9.363780118657411 -0.5779724206928433 -0.9969010278142315 -0.32164192015307186
Ni 9.167457108022795 1.421297126212933 3.264712247395157 -0.4292862962066284 -0.48360650691574786 -0.06359829357693564
Ni 0.5523914790122265 6.0357177214829845 4.350548807121075 0.5267660730223572 0.08200353555700071 0.6580537995264667
Ni 3.2330158711774186 0.4360128059691112 4.664198626509279 -0.007768331091509201 0.10689747058520299 0.1278984983169023
Ni 0.7063683558169401 2.6763351204807284 7.395710531854059 -1.2742806357148184 -0.8762185876297942 -0.6271892487371263
Ni 3.141583319442024 8.199515694613048 9.321379598457883 -0.17284420978965714 0.3298087722345804 -1.4550358728214359
Ni 8.386595741729813 4.354118365847495 6.176650933972517 -0.5839669477133814 0.20243195074910297 1.0706279251847366
Ni 3.5792123070285067 3.5016573439425507 10.55115874979261 -1.2067652664716635 0.0900109792425095 -0.1668944199641255
Ni 5.083231101441817 5.739892128300042 3.785216091456462 -0.368709563064836 1.7285498271190294 0.42466396694326863
Ni 0.4772059487629548 6.6552872442566215 13.315744819385642 0.1748599546681053 -0.585777775669875 -1.1056800316928637
P 2.014788384751146 5.853505254447701 9.435379774269375 -0.6819884559651932 -0.15640509039702738 -0.9587276020683038
Ni 3.245606315745721 5.088189325472674 5.74381338555004 1.0804842491535265 -1.2399813482123163 -0.1808313417601918
P 3.2005200153261852 7.326079662822538 3.7633400807141006 0.461774755752637 -0.33457559749560445 -1.365655842294706
Ni 5.26979447804714 6.962796842514108 9.00845855642266 0.024762551656660577 2.199701653211192 -0.260826331527596
P 4.47052332563593 3.263997973074076 7.006665794693526 0.9105597841138253 1.9380782797035978 0.3839217520289001
P 7.69224496072112 6.473500803783406 7.51245721933164 -0.46406997954471696 -0.8572780419715494 0.2634054051086818
P 3.6748235448301267 1.3179267663447425 11.085380649152452 0.21724510450253554 -0.4488657610004528 -0.03809552132014084
Ni 4.250140691518486 1.1602425520105577 2.716785889329184 2.514952839346572 1.6053649322277128 0.3404901632078265
