# total energy = -340890.9073404783 ev
CRYSTAL
PRIMVEC
9.06858416378322 0.00000000000000 0.00000000000000
0.00000000000000 9.06858416378322 0.00000000000000
0.00000000000000 0.00000000000000 13.27278959023085
PRIMCOORD
 96 1
Ni 6.644088928948239 1.8285892584759182 11.223258582297667 -0.8916606332164773 0.40580132571081085 0.8060531823583021
Ni 4.6745829451824115 0.6928298348511002 5.965747063742751 -0.6524395386634828 -1.8454188070946476 0.7464300713790306
Ni 2.7859233869239874 1.6867928805472856 4.686502691866308 0.01866723739220011 -0.44836105344989235 0.08256635003900618
Ni 3.1616438866656846 4.311494982819494 4.514659374887346 1.1589689729239911 -0.2298679354728686 0.9280800523857758
Ni 5.099219386504247 4.802096303461671 2.5510960341540487 -0.6654511204318023 -0.14440138106793196 0.3247285294981956
Ni 7.08133070189714 5.988992564864806 2.7747962344733335 0.7897804133402075 0.7624590998174353 -0.06030265354479937
Ni 5.030996429791719 4.795766431896425 11.552343889311173 0.3111528476962899 -1.015993268558992 -0.5151218039152096
Ni 5.783870265532002 7.9312837283336375 12.470993252540008 -0.6986877709977452 -0.201402223933008 0.37207462288232696
Ni 1.9761895301033434 6.508459188074574 0.34938261150825306 -1.1756292071884915 -0.09988221560963442 0.1273878772290709
Ni 2.966823498648237 1.7938747192900133 0.24527889571971834 -0.059833170107548565 0.6361726831826592 0.7763302013725727
Ni 0.613897787405908 -0.0026099384476759037 4.664310053335549 -0.07678548169117098 0.3653491312330353 -0.6047471176835263
Ni 8.79215532979099 2.396980891849729 1.275840025478745 -0.42067772860201097 -0.03603503924668632 0.8469368079465414
Ni 6.734466436139129 0.736277420336907 4.6978502109058375 0.08536268183722072 -0.12455092200090809 0.03451731705057926
Ni 0.689874383356668 7.549287768530122 2.5635063912271705 0.9538317074285833 -1.8236690741223818 0.7701806368314091
Ni 7.461957305531098 3.789534499036026 3.71643445789973 0.8347130121868399 0.04627060093176547 1.433395925954157
Ni 7.451727942886976 4.024301999152196 12.853183280039078 1.679395733991882 -0.468630859442522 -1.6356844091468603
Ni 8.152874576036767 8.815071641317317 6.626545753385248 0.07838573629875532 0.5950229484172269 0.46112838041788967
Ni 6.995650721168711 0.5025165330341212 0.5894833458185796 -0.31759140423278204 0.2211045874579418 -0.9142356903035157
Ni 1.578867663501452 6.448660945809199 9.457207185284634 0.348073117761407 -0.15898982040506812 -0.9553633135817611
Ni 9.151470761249692 4.797208336737219 1.671720894098233 -0.42660772093320076 0.086402950176277 -1.3556334250616977
Ni 6.76780255057157 1.8517050788481415 6.958086832920055 -0.3790502828692117 0.380224505682971 0.0009579930378951243
Ni 3.44694153629697 4.428461578017978 0.13552817273393622 -0.4963987735844096 -0.5505063540620906 1.2583061146634331
Ni 5.726828872773553 5.426513648196641 5.050880206860427 0.38109456699275013 0.7753853209608 -1.1483354044695449
Ni 5.472754357524993 3.0019279869420292 9.427436838043388 -0.436041612652591 -0.6710453266901282 -0.5497085407511436
P 0.1491401171743863 5.706732890841483 12.717189888950848 1.3043568862749082 -1.9583745680587885 -0.2106329985026566
P 3.987102667976496 6.38449164610192 12.63103652814261 0.01508903312263853 -0.29013613623530676 -0.3577306954558291
P 2.1866713625236276 8.529946294780215 1.3705477814839684 1.4332146631812865 0.5673447657756681 -0.3454714184725018
P 6.3471018746642285 7.8601588247717125 5.764995821851849 -0.8450447331301512 -0.23506104963803387 0.21121972424406202
P 4.940791225695011 0.9583226040936453 12.62270159267611 0.563103731111127 1.332094461399493 -1.5807391632592325
P 4.060648883440886 5.982381567198525 8.111346809763514 -0.01862481419003889 0.799126887552114 -0.38666151955756634
P 4.66406338785335 1.0111198995848514 3.590449156008356 0.02186646105578815 1.0646465107903214 0.5214523741189278
P 0.10758967944137221 5.544251073026997 3.6829605009919426 0.19927695005988905 0.46893322117428915 0.11597089364138093
Ni 1.6843443628931074 1.3925354700184889 2.528519794524135 0.1423367852294194 -1.0986902306385915 -0.48887649706543546
Ni 1.678476989106984 6.621000314327728 4.87601161029097 0.3635023078322836 -0.13714187129204122 -0.3941331453442632
Ni 5.983324699924578 5.589702815555667 9.331832199090021 0.2865697590402871 0.8448387877669321 -0.11769327564912634
Ni 8.807444962253747 2.091369614272668 10.136243704017195 0.7932570590348984 0.39146999668980326 0.6273291167491002
Ni 2.2325946714153257 5.138159885789586 7.062478022818358 1.0081156655831285 0.922951987130591 -0.3046412718300173
Ni 0.5682737417830536 9.029552719239426 9.17006407882881 0.44943551746099375 0.05066101668997727 0.1171039788045596
Ni 1.5982925702245994 0.8885072040475102 11.928255736173254 -1.706228280803694 0.5175370982249216 -1.9578060971498283
Ni 3.8477548077020414 6.933494647088201 1.5609200290963254 1.8321151480072062 0.44081100901677633 0.17854871637360217
Ni 5.652647856435857 7.841713325110237 7.888947951234506 -0.9713699734226624 0.14334002968295315 0.2186494410492299
Ni 5.087947136711123 2.877987650721089 5.315711876336343 0.0400637007901052 0.37767448556760763 -1.3385299326121916
Ni 0.7891871662685273 7.246805152400066 7.3033922091049055 0.9469480929348725 0.44422491979433176 -1.6435820667273824
Ni 5.398936084543471 4.405962421351251 7.166788502319912 -0.9073705877525663 -0.24345081636362587 1.4771800130186432
Ni 8.083744760933802 7.376204776131433 8.752833949981667 -0.738001223885387 0.5244111996369356 3.4377361621097826
Ni 4.581040502208899 0.09240070825995327 10.511186119259898 0.29713210793716566 0.5805520084945615 -0.8514835467769594
Ni 8.082520502106712 7.222383455945614 4.609692693054736 -0.0006497177688569456 0.06186845537002249 0.7862374331839557
Ni 7.257569561494546 6.260442486874128 7.129611842603973 -0.9641706274607461 -2.003836299936013 -2.1815730619312816
Ni 2.2247866206736684 5.267523235185335 2.667326260339499 0.028381893576802732 0.44541996854369736 -1.148469358944248
Ni 2.245744118076653 5.221518309038498 11.385704125776538 1.1227210463355504 0.4306785485684647 0.9791521884712427
Ni 0.9076292200682516 3.3217950784167494 3.6279042212501595 0.12145377113282309 0.7687680727545987 0.6853604577612197
Ni 4.05739326181922 2.825417069827492 2.3454477569547905 -1.4258800771930862 -1.0729869123352165 0.4565207064425493
Ni 1.1541586735083817 3.4287318198170076 8.140334538213814 -1.1579181630619737 -0.8547272505252376 0.7385964342672248
Ni 3.4936719491561568 2.6517355508911162 7.300246317348483 0.3677834517061408 1.0237335746260434 -0.6409994151473412
Ni 3.9259532067093708 6.923446656122166 5.849623846847372 0.6569489964980622 0.5743757044805204 0.6162877713332741
Ni 1.0040191983877347 7.321421460765172 11.582685557338394 -0.024674362818228473 1.7790257243813943 -0.4129291950048437
P -0.010827889181810385 5.406843889708076 8.280508546481956 0.5101662596821471 -0.022007871729658873 -0.11676202208410859
P 8.744137178017384 1.6394367353986978 8.013075100283876 -0.5618408052383034 -0.34814305176739396 -0.6244345688101246
P 1.845012463926721 3.2520213938565745 10.63097304405264 1.3376716983769543 -2.0267656550386772 -1.053696953757353
P 3.9287009876323933 6.2741360485697175 3.7166466627630923 -0.3724196649265715 -0.4050089117165025 0.6416126232513079
P 6.985366947021163 4.0819963299517585 10.643874011514988 -0.19790089564796887 -0.3564852530845022 -0.03025468511948338
P 6.31086381338239 7.6895696929467245 10.357115413016711 0.44535389119245233 0.44186207598911004 -1.5656593861079744
P 2.2553024055118525 8.489273695969143 5.877788147879154 0.9648743383959898 -0.6832210428207137 -0.5183583085746364
P 7.037085081027749 3.9461942859839105 1.6510817039902914 -1.774385911616538 0.04022336629642105 -0.5082564442539439
Ni 5.310880134832098 2.9566666846753495 0.18964041289127506 0.6311083812858743 -0.39586066955833116 0.2191325513332355
Ni 1.6194042335539582 1.0416810273425574 7.009015093268572 -1.1792176958706981 1.2290443895848382 -0.28375877195405325
Ni 6.9266115919047895 0.5246012554164184 8.98469587581488 0.025119420775447064 0.184534758753708 1.2352237789226725
Ni 2.553577198710282 1.520792452177906 9.182049119316817 0.2920395239056068 -0.05330051119535336 1.5437489591881284
Ni 6.477798305893919 1.9024438057930568 2.52258622007551 -0.12060839241339229 0.1686006040219548 -0.3018552244444479
Ni 4.057130272885993 6.776109373427967 10.384683001227584 -0.1837066064254578 0.18062333951444376 -0.45932243755740254
Ni 8.07470338278115 6.933186315235453 0.751302250149657 0.6649304720416419 1.21084920673305 -0.0962379339888278
Ni 7.5445539677320435 3.742622714498752 8.458934748517095 1.194513188577188 0.2994856957710068 -0.36027325937202465
Ni 3.299377539005162 8.575425243060598 12.65474180646862 -0.10231987851684958 -1.5832493312755958 0.11352937407942383
Ni 0.14847085568224427 4.513660923799476 10.517145992601847 -1.8621865134712898 1.159964761178357 -0.43939793071933353
Ni 8.74903421332574 2.4217199887408327 5.67653269272317 0.8763119186745488 0.1825591230845759 0.6598476582020959
Ni 3.900642789032291 2.3842848743836194 11.199991316574241 -0.3204723253250029 0.591640147987923 0.4755360712027875
Ni 1.011310339846843 3.412898072319988 12.650123176686126 -0.5670010092830041 0.0017036129546680338 0.3047711125396622
Ni 3.1916790365569376 8.405616009451387 7.869250986994228 0.38973578760751587 -0.46016730205620104 0.5585680480243025
Ni 5.429315840623089 7.931564854434673 3.4945797144049835 0.4468662140719207 -0.04539308342281859 1.2402148043793608
Ni 3.031482501886351 8.364653215955375 3.3920466773486844 -0.43687439296653147 0.6290057331205747 1.124507963032644
Ni 3.501099119373831 4.2888507288102975 9.39564782402503 -0.6785660605472055 0.144861351423486 -0.25405173180792373
Ni 7.632600848859512 6.49425778568034 11.608023180767187 -0.7983334451165413 -0.9032686497690509 -1.0233736201834633
Ni 0.30215161281754555 9.152014876283955 0.7710654150524371 -0.20125978481787274 0.11500390174242128 -1.3589259797700404
Ni 4.710285960013891 0.43199287658505514 1.3537582052434292 -0.6549124256840076 -1.0459486772705018 1.691716460340764
Ni 5.98081270218307 5.646000584433958 0.4328135834284001 -0.9742457523085609 0.8688588048306133 0.1602054379797241
Ni 8.238128333321692 -0.12211845771455346 11.241813811824388 -0.3747326293304643 -0.4510285729797264 -0.027639873204455625
Ni 9.026659840973933 5.2229148709597695 5.892374965089323 -0.1610384754039807 -1.6951704803276355 0.05559342099458813
Ni 7.882839353116526 8.723415463795911 2.6581815003303384 -1.2832411873422156 0.9400768197363358 0.7346528762384444
P 8.50784615580528 1.6136094084390697 3.666422124525554 0.04682055989796453 -0.2333075572820369 -1.5108753483885593
P 1.8727895364257874 3.358522843229423 1.4640421609627878 0.6910276833493261 -0.16667021976846133 0.3963766899628013
P 4.970499906565706 1.2714517377274233 8.126397938469587 -0.3199475631697845 -1.0219859958073174 0.5442572878285853
P 8.34055798852148 1.6274117931415115 12.564154814989537 1.5443284858406823 0.007609179805825605 -0.4378789229716458
P 6.168387291660932 7.665147996492274 1.5179421962567645 0.23213230602701312 -0.3507558067998927 -0.7396565001006229
P 1.8265216213457232 3.3054081473015637 5.860414554835175 -0.4318370876529402 -0.17578400914427145 0.5634078926151072
P 7.003540389165508 3.7924727202210398 5.901002815815936 0.2551416224379929 0.6481745927395418 0.07569224862699221
P 2.4780449633708366 8.44598027640971 10.016230971485236 -0.16740504105195686 0.26331850182183036 1.3367417303635172
