# total energy = -340891.52845500916 ev
CRYSTAL
PRIMVEC
9.06793234111359 0.00000000000000 0.00000000000000

0.00000000000000 9.06793234111359 0.00000000000000

0.00000000000000 0.00000000000000 13.27183558186543

PRIMCOORD
 96 1
Ni 6.6876636848524 1.9492790391828299 11.52121446838885 -1.3792726617471922 -0.5409518776044361 0.6701171584489038
Ni 4.631301430927985 0.4739055672673625 6.199632999149695 0.18814407337152114 -0.8272987220006397 -0.9149226890682113
Ni 2.94921809041359 1.6082522342034482 4.860584103867351 -1.0215468513873698 -0.20313694723592757 0.03391850712431578
Ni 3.4652922641262727 3.9862631213820547 4.859920331209287 0.163450427279583 0.6430498699184668 -0.376261664380481
Ni 4.886618138038161 4.606954032199798 2.5385441231728634 0.37448631764761314 -1.2273469472777572 0.04465466259489729
Ni 7.153809822290448 5.837445266918136 2.448202125389185 0.2911445228951631 0.2627973392110377 0.43158717642566313
Ni 5.038587618591486 4.9943905156487745 11.321817887340865 0.9827275645273269 -0.2866746600492675 0.14025727699257134
Ni 5.300179334982819 7.673882954229995 12.24746246091058 0.9956152191232724 0.5322417514249479 0.161110980513129
Ni 1.75361119197359 6.294187958366936 0.5730842652598374 1.4858037501319121 1.2653223980802661 -1.2465042369324983
Ni 2.7010287782383697 1.7409976978838664 0.3610932327803518 0.01755394972336332 -0.9810283224480331 0.16833192374160044
Ni 0.3767988918482174 9.123790951341602 4.773945449711453 0.6484887815458509 0.5368283423543658 -0.37225305744172016
Ni 8.563220432914129 2.4079894719813573 1.3897341039196613 0.29284016543003116 0.07313657208467403 0.04651665550430053
Ni 6.907171126570542 0.7417768269060946 4.982512430883765 -0.19015544737459508 -1.0424961999455271 -0.6232449193773976
Ni 0.7796971069811525 7.2700063091816896 2.657870860358693 -0.5584505486098318 0.6364233657408845 0.13792554353560119
Ni 7.84330820482122 3.7627929931669972 3.580621856671736 -0.20922737640438158 -0.31017505716405297 -0.11848260431964111
Ni 7.562002803202671 4.064999979168589 12.574387724079086 -0.2296195669074884 -0.10778398695521436 -0.20643618681248962
Ni 8.012388873977931 8.91677912059085 7.256456097666036 -1.0008623264548246 -0.6257599724897674 -1.166974616837287
Ni 6.824525989882018 0.4441210362198386 0.3591944077175279 -0.024952041959647352 -0.1129004822461733 -0.44443189359881524
Ni 1.7936007742422315 6.679212371774311 9.182583798415745 -0.41743531040531334 -0.34639161629392606 -0.4650709100054055
Ni 0.003817599577119757 4.9052527392993985 1.0618558010467487 -0.8762651245970136 -1.027204306783463 2.5288360250865676
Ni 6.475863985748395 2.0161731771410545 6.971324028537881 -0.22721404278978932 0.6141648114530003 0.5073678710014036
Ni 3.342476186519361 4.146284925984032 0.6130620592162457 0.05555434022653658 0.6500396709727385 0.1430392106130827
Ni 6.228037390872664 5.541431678805315 4.726963584701917 -0.7463819917499145 0.6656647791045052 -0.25505163382734786
Ni 5.257714207145166 2.656115308629167 9.716934390056421 -0.6524238549341989 1.7759889944375993 -0.23969906263067753
P 9.170490803650786 5.648143108314924 12.386630741171697 0.31374477679318225 0.1795298493399489 -1.0712609307830454
P 3.765903294010114 6.036205279105517 12.896415396911244 0.5003541586877319 0.7472543670525389 -0.7824977636358653
P 2.4386300158556744 8.307287106394822 1.6964859376838481 0.06898758291330699 0.42859466945624247 -0.5389924398852202
P 6.530616162106232 7.633657605716686 5.73647202508644 -1.1776889179309975 1.2166686416283046 1.5155167038153126
P 4.5699659355844275 0.86776940126328 12.53611198105053 0.5159998356447887 0.06209651222042854 -0.513336944100645
P 4.108235881267656 6.206165537713488 8.146186217826866 -0.2966831933252052 0.2619195645917747 0.20841027981972493
P 4.8448603089345115 1.0269070824477529 3.9315825816908676 0.7305175139138322 0.0927404623585306 -0.7785233523691496
P 0.0656781282116881 5.512622857293417 3.862754253733119 1.221500515799309 -0.9379232637284427 -0.9141904388878771
Ni 1.4639088848718749 1.2094717672129598 2.6348446593938943 -0.688776168310988 -0.9526351160173205 -0.0136507580142152
Ni 2.018304141275551 6.38062349083512 5.007994227966102 -0.09690719214171054 0.5235969312657563 -0.8452169970419572
Ni 6.076593850403597 5.392726653947389 8.92934455463839 -1.7440916315083705 1.0189590360555354 1.6696078013671827
Ni 8.770041837082651 2.4280023989806527 10.475632885776916 0.0033928277316328664 -0.3727467092486871 -0.683965377185906
Ni 2.4641018382122764 5.161050046831398 6.975146162081243 0.0025127391195247047 -0.10942357944116639 0.8389717874631939
Ni 0.4475695709447285 9.357471571537271 9.264948735990416 0.6283138492598728 -0.8252341261621271 0.4119524329138711
Ni 1.5944871126878475 1.260351936398753 11.564321605846597 -0.24647649056382714 -0.3825816930612379 -0.6090115493868351
Ni 4.197808918376418 6.884274597040312 1.9622942426817371 -0.6044455272827074 -0.07062511851672998 -0.3561484385703737
Ni 5.75016641672864 8.126091679435186 7.947427112432734 -0.26229468854300636 -1.4516823829681706 -0.3798614659165974
Ni 5.787571638238424 2.9573248220571644 4.68890003129356 -1.2822466846394305 -0.201932128294549 -0.3258780697216065
Ni 0.8046266669750185 7.748058641975458 6.771662663861268 0.25938857063980486 -1.9125860489697644 0.8704544314525074
Ni 5.007956142649656 4.622242566373253 6.7418935482989735 -0.4593507196921766 0.7762258145842245 0.352731956689657
Ni 8.269754933830217 7.154381102037143 9.185968857613224 1.121954600483171 0.4907958255753354 -1.5579692165525685
Ni 4.775499693339763 0.35339002413245824 10.320259303367887 -0.9731640892086079 -1.1516004483740616 1.1287973344366173
Ni 8.133237210235116 7.232954737038908 4.486902767208241 0.5201763356199816 -0.1757099613732264 0.3628327925690848
Ni 7.301571782169704 6.096425418753148 7.104440370657025 0.18754629188652217 1.0087178179435012 -1.154420177211044
Ni 2.043739691902204 5.351440357333074 2.6671482620863682 1.0246121205762548 -1.9887238697746072 0.868628433987362
Ni 2.258948933621404 5.158810267507054 11.502952559152838 -0.4803694880356888 1.3532718668080563 -0.045801374604830795
Ni 1.203015399282059 3.2453676975137187 4.156195269399316 -0.26472489525105375 0.6455474395293398 -1.1193284757142334
Ni 3.5387969248676807 2.4366078669110247 2.6053938282619002 1.062260527056648 0.7636091542614785 0.31672674223964165
Ni 1.154492892542943 3.343083737996005 8.244026488984227 -0.5638313533057708 -0.0019249849368547492 0.3380879815242371
Ni 3.9071000707686214 2.55210612300075 6.9280971943713014 -0.5925305210126763 1.1838845052187483 0.49770900775540095
Ni 4.306796398940319 7.187025658991136 5.964004587055772 -0.2428869734403559 -1.2287703099878449 -0.310827088925755
Ni 0.7616573620910764 7.53434560911665 11.548580581842034 0.5065551452921212 -0.8799276610502652 -0.5466494422098457
P 0.35689478003876884 5.777397417987763 7.755463515644522 0.480351747423876 0.6057670743076082 2.554778455983942
P 8.448610834208152 1.7712573885937206 8.047324897471444 0.325135278018311 1.3609862047331787 0.24978755721493112
P 1.750083766236061 3.318292010575944 10.450999847175382 0.6612805339938805 -0.9555278641840834 -0.41422734499097696
P 4.050600102378883 5.89915254749367 4.006621536609114 -0.6049111540652163 1.1056900589951926 0.44975510558394155
P 6.912575614332926 3.8891909041063615 10.446540237978168 0.16031548119502714 0.7374628348834138 -0.4955881047576562
P 6.445939808540568 7.946555684120711 10.052897661534937 -0.6852992655059811 -0.12198418971499636 0.9754611127729006
P 2.3787453897100717 8.70897837971371 5.76167543664142 1.0590679882612795 -0.8521535762607904 0.42620431484719506
P 6.730763567964159 3.802238499486406 1.4458600720493116 0.25996038398287485 0.6878827099624412 0.10546382346246999
Ni 5.145734308860482 2.611093023830118 0.31469624941624036 0.7696895561276035 0.6715922003325336 0.5273535700947111
Ni 1.157249544019058 1.0699797617620495 6.929106455257128 1.124541901594373 0.685941012855038 0.5201069158346269
Ni 6.820771865832308 0.8087054230077703 9.119715822481846 1.032694383363757 0.7808746262101455 1.3245230768101381
Ni 2.7488621221084566 1.4896980848655297 9.036659908451648 -0.4107162465139249 0.9424682027866478 1.2919847378628007
Ni 6.335356371858917 1.7812411822621501 2.378538640849363 0.06521963123044253 0.27463469816559793 0.9676400740665851
Ni 3.784809933245968 6.826693225746463 10.460303545907271 0.8448668127913901 0.4073540149099114 -0.5039629590849127
Ni 8.182204045666106 7.147824986848883 0.6019148498097057 -0.5479028550009726 -0.20582400714978746 -0.9597007646148503
Ni 7.7098282386093375 4.002748622643821 8.212280564139718 0.7921555984406035 -1.8175346790898699 -0.551628897702308
Ni 2.9662567355570766 8.344891822419326 12.405688814880088 0.2517289972120181 -0.09832515553515969 1.1718100905527173
Ni -0.048717467287591194 4.732164043983337 10.013215482177612 0.6723475904413194 1.6615175681598806 0.8706686043458424
Ni 8.585699837549948 2.385383116290717 5.6632511906318825 -0.3426383198990809 0.14579826141545857 0.46638525794145486
Ni 3.7149868530943717 3.0332506207726606 11.608039015160736 -0.7567723338453031 -1.0860537728215038 -0.2319685267556392
Ni 1.185731919961417 3.4687834181338526 12.738109245135849 -1.3554948426013043 -0.9046835278387064 -0.07583263085959843
Ni 3.292820188219342 8.442508115644252 8.119324281419974 -0.2460810548976213 -0.9955666252735242 -0.3964800483098849
Ni 5.9400126512810845 8.0056695360049 3.5961098853599083 -1.518688930895707 -0.16782001710218838 -0.06622621811808595
Ni 3.1695235101906074 8.554306655279191 3.7424980534673495 0.4482101296943249 -0.8374759196439576 -0.14143715623328545
Ni 3.4269439776378183 4.444084896796835 9.440734234428177 0.1502537260836509 0.02513253340156962 -0.7622811794786742
Ni 7.38350055219174 6.367357105606317 11.077828841493726 -0.49125888125468303 -1.5461339144805373 2.6271141294338753
Ni 0.7930233405643715 8.692719576764123 0.4270361446206668 -0.14672437277415376 1.870425356441314 -0.1734867284696625
Ni 4.404385488367784 0.3298251879779187 1.4928292419533666 0.3169180323148412 -0.8170950419947606 0.3042103549401858
Ni 5.8353415065811 5.702369344588502 0.36128728653557834 -0.0422877050246175 -0.5868959484347183 -0.028698910596589286
Ni 8.069335489997675 8.924532202867423 11.321884990041271 -0.5648119720514854 0.41542856438792974 -0.0054260561115777525
Ni -0.0028636530794641786 4.7714009878555395 6.019241897801674 0.8437098163688114 -0.6641007770514951 -1.7212733480622742
Ni 8.013730927986039 8.743998734979353 2.590291186704435 -0.13906634200826373 0.9229591862194427 -0.668123782167959
P 8.416537557000854 1.6007530540365167 3.54420413300981 0.40619213339132626 0.16770894544562084 -0.03747125747258063
P 1.6378318299767607 3.2586975582699322 1.721861639956085 -0.02634660831432882 0.2081169169490222 0.03645130084849852
P 4.801071262953725 1.176382881567093 8.285699986315747 -0.18521661531208103 -0.791930626913991 -0.8446742371646099
P 8.591049917717408 1.6198319839896282 12.605297585548275 0.3005131085942567 -0.5332570800633397 0.008837652896288005
P 6.193669926746099 7.655756157188042 1.3921760981384699 0.547057990502174 0.35966802168785805 -0.28607225057857827
P 1.8999494864523514 3.074146996290024 6.231631012517349 -0.22595574490265605 0.48916677461234465 -0.5993156622553099
P 6.959883018118754 4.051633846682426 6.10657062161985 0.7355800160384042 -0.6383966874171715 0.07367290420411828
P 2.3954485213515317 8.540496194101156 10.334048908301204 -0.6109676446719414 0.968289534725126 -1.4055593633578631
