# total energy = -340892.37391202553 ev
CRYSTAL
PRIMVEC
9.04033261285862 0.00000000000000 0.00000000000000

0.00000000000000 9.04033261285862 0.00000000000000

0.00000000000000 0.00000000000000 13.23144058974501

PRIMCOORD
 96 1
Ni 6.509699503222449 1.8455116022775984 11.271797823666018 0.5985582152639949 0.16967044004736584 1.406606573675455
Ni 4.58249041414751 0.42743054716974344 5.973241639407291 -0.5966964794649078 -1.3434196566043248 2.4017841910406763
Ni 2.3862591039687477 1.3085610403291608 4.6857563267499955 1.2933962734983466 1.3982692574543532 -1.4991544604072051
Ni 3.222896695609764 4.404630908199643 4.789199429873807 0.5948949074797948 0.6324872639112721 -1.9029330992610325
Ni 5.050924294405449 4.512518238888972 2.7618379187854063 0.6779960469763484 0.11375100317192666 -0.24190018404705435
Ni 7.121404576438698 6.196397732452434 2.670912060346733 0.6618081243625764 -0.20115488380889227 -0.893847613565467
Ni 4.915002891949102 4.443540500229714 11.297903592463703 1.8323617168003732 0.009522594778454569 1.2481055199813473
Ni 5.676090423042881 7.898999755080553 12.270097357119148 0.4766136205376824 0.5738635407307924 0.39903135397682893
Ni 2.164147169352851 6.680986687282338 0.3760172709536148 -0.41327526549035276 -0.08266508040039956 0.16101713524774205
Ni 2.6980059375107954 1.3562307147656303 0.3831320128048384 0.5864881714733383 0.5560303692041134 0.8211874668965793
Ni 0.2642525415603605 9.10108375662482 4.833485307772904 0.36229106113300186 0.06516203851962972 0.16728831296843447
Ni 8.420663114398216 2.221535201464118 1.4279639468381697 0.8026474991108629 1.3139987802400466 -0.8043287434680276
Ni 6.840060381836503 0.6295506900069923 4.817091568417111 -0.8810473764770052 -0.014566842070581365 0.3440619397194849
Ni 0.8693003137610551 7.423460173304111 2.324923158558333 -0.679422752120546 0.05277729170203169 0.36215916354082783
Ni 7.469131934209296 3.9976441694445843 3.6054221020890402 0.7037554153286396 -0.31441994848333593 0.6512370337149493
Ni 7.6858015885273065 3.9303840940022683 12.611839110595344 1.031642802170791 -0.5983530412317244 -0.4343292579471746
Ni 7.765772371774986 8.798259731478144 7.084073426501668 -0.34520608062625713 -0.28321755473860255 -0.10975422330770775
Ni 7.009892072328352 0.6841678601393516 0.3347273593181725 -1.15532366286192 -0.299408048455536 -0.12089944129124985
Ni 1.843188236768368 6.28426072616532 9.240560721940236 0.5057797005786773 -0.23102801721924082 -0.18079714608814668
Ni -0.10292328399236919 4.737758128626244 1.342117851355281 0.5579980344534455 0.5508300559500966 0.8084725904330722
Ni 6.2882203918970045 1.924858602567546 7.010943463023774 0.1162855966683223 0.37124518500249615 0.49280771379904165
Ni 3.496665091391977 4.506370812638867 0.9063602537164626 -0.10505501805982553 -0.4862336601259497 -0.9581894701766466
Ni 5.858479135683839 5.719637705758693 4.722288311274512 -0.3246629663675828 0.016027228666191752 0.7680882730787545
Ni 5.433990312781426 2.909766691161443 9.444866817229359 -0.4730840101178691 -0.39581567525300865 -1.285127348621335
P 0.5050309551780439 5.431956237919259 12.560487308641717 -0.6666286856796713 0.7246638833465325 -0.21399677276856693
P 4.160957780044779 6.088962418399143 12.70729055959402 0.6094483798139375 0.42110504594741677 -0.03549870712724209
P 2.5506394738299893 8.580008018934004 1.5125254110414408 -0.26557773016965225 -0.1495173621382586 -1.6433761213641633
P 6.179474229599205 7.747890593653358 5.9297495027210765 -0.11399165842782305 -0.2712187305055135 -0.38691965831495945
P 4.880468820955868 1.0714240727313922 12.62983389287598 -0.6371103645055802 -1.563960658249313 -0.49731999984709835
P 3.986642084523442 6.128911648692099 8.129211827814233 -0.17817102131920928 0.42248675678629183 0.06598787685503474
P 4.65406272829762 1.1536730198246978 4.127098117872514 0.3572085044037719 0.36849950393655895 -4.247270103927834
P 0.08413114436576397 5.607971515992094 3.5229109853468334 -0.11223482363771639 0.23814971586568662 -0.1037049317898343
Ni 1.080491526450296 1.0103023832064593 2.443966259825056 1.5579553325954973 0.1947880610506 0.7596455416280401
Ni 1.5771312447969474 6.724425486005499 4.728467378689139 0.7596967065809497 -0.02448898628029976 0.1690963127114507
Ni 6.336540970289367 5.315995890110308 9.177697864333286 -0.2972974298704364 1.744052807850635 1.1244413714607666
Ni 9.02854412687359 2.2034093343590313 9.986403539967029 -1.7143781636043376 -0.007534617814148314 0.9436506531305232
Ni 2.5613161067731847 5.075767128722046 6.832332705426814 -1.2468320525855623 0.5538858120572847 1.6323967395345242
Ni 0.645483372394027 9.205137986240553 8.899387605392175 -0.47492929085672403 -1.3436621116324343 0.45155590623810615
Ni 1.8119810082163685 1.0891160038658831 11.292121395655517 -1.3524946223223997 -0.9719024488873649 0.3415841676029537
Ni 4.406375692414746 6.796811430100476 1.6375758134010967 -0.336470243415156 0.2660122466039096 -0.7210250010423647
Ni 5.221009114213478 7.921573465884244 8.048261976532897 1.1881008572929408 0.08784251083628097 0.28362558881029865
Ni 4.933915268000892 2.9954509646886303 5.152561139051657 1.0193009927759864 -0.12205978014793817 0.06805041581101828
Ni 0.673931491399656 7.5211861700153255 6.922398828223744 -0.14255867143223835 -1.0189191839565357 0.18815410067385013
Ni 5.3458922704178 4.528510587471963 7.264669441164104 -2.0594333204750273 -1.0959347793806418 -0.4791294449810006
Ni 8.53923611836346 7.005344784969819 9.225806898939984 -0.7706874012644984 0.8549820468485211 -0.0891206062177562
Ni 4.47384369550964 0.559158139276939 10.476323579002353 -0.013055547632377516 -0.5325582542241022 -0.0765625670470875
Ni 8.010756348174358 7.135588858477541 4.850328351664917 0.0019861771920933534 -0.12055465635732142 -0.25045887225034286
Ni 7.171587463371534 5.894043804607237 6.8639820062488575 1.4273538335251355 1.3152596492303412 0.6180687744930968
Ni 2.230855784499202 5.42281646153859 2.6793665795071706 -0.9241308379300407 -0.7317773544628622 -0.3864895127560763
Ni 2.4899426799429314 5.034244880535681 11.763120922339601 -0.7296788200626209 -0.1539301464939736 -1.1687594766518516
Ni 0.9269324348557818 3.417399454096516 3.758483071350642 0.14271242340128323 -0.6892615925878387 -0.8304172130249634
Ni 3.673783290056743 2.64380010251723 2.718280691703602 -0.6580985367214731 -0.6291057490335488 0.15796986378098601
Ni 1.2499887246314771 3.468197083654362 8.277774327513992 -0.41814802020162173 0.6779433393615422 -1.1089851848066965
Ni 3.5640155701615006 2.7807249819055797 7.432378461533122 0.6315328704178026 0.4170714993079914 -1.310218487262008
Ni 3.98210383749763 6.852201548680459 6.015992468810405 0.19198812970795967 0.872823188795 -0.8209882064015797
Ni 0.927691822804324 7.425738337149738 11.534495427998412 -0.07452856733619423 -0.683275807318049 -0.3136285629302921
P 0.15376973134690736 5.499532725006801 7.8684199256193725 0.6688966557782416 -0.26478428773407947 -0.01269739296201039
P 8.44107618568165 1.655185477507829 7.884959214331968 0.003983667238096365 -0.3468664990478155 0.2075152788092813
P 1.8201805899940808 3.213241620264012 10.33722178749485 1.3756654040119083 0.9315369005861248 1.2256459054262505
P 3.8957505793491074 6.230624432133161 3.7393238942155747 0.708076925522129 -0.4842120017102306 0.6119816877587525
P 7.016645200870745 3.8817471039646794 10.626977107660421 -0.6808707974209823 0.09122659681716547 -1.394844033822888
P 6.476521482137328 7.545739713684859 9.89156050536046 -0.37078418620567755 0.7690781477958496 0.27462415664263673
P 2.2950331064837455 8.53922707803074 5.7578331115038255 -0.12450052837894689 -0.9641395171124943 -0.38066879230924117
P 6.7682530190356545 3.89724223424803 1.3126897602827234 0.20734712866253324 0.7229497288689033 2.0475103437851963
Ni 5.165908286280558 2.883387000282319 0.34539223982883116 0.07133422876861263 0.4570297848684839 0.3785612590479351
Ni 1.5581465460833905 1.2133301754488706 6.866350573421692 -0.8720336030141692 0.8231155371572275 0.9100226806634328
Ni 6.846307251746535 0.6436102154542893 9.273533527472594 -0.30161662607108053 -0.44811294199482826 -0.9489625522617399
Ni 2.600261860134139 1.551664627522619 9.117548010575835 0.4059648478718686 -0.4743150543114928 0.34367113203896943
Ni 6.350535405341075 2.1423961288267472 2.557041837462818 -1.1510972834853983 -0.7882940586026682 0.7931279896562018
Ni 4.405390296148186 6.6260124240075085 10.593898530235228 -0.271687442611816 1.1808752860787792 -1.537053549445824
Ni 8.177984422842632 7.501677132003966 0.21122827805339575 -0.8005597633438987 -2.1790312693460345 0.5346105087674405
Ni 7.773583219245706 3.70166367616751 8.14130508089477 -0.049639517403998384 0.19775331432651105 -0.4064003927473905
Ni 3.2664439783255754 8.368635999590348 12.217700492703003 -0.02376753473324294 -0.23097530960443446 0.539000153194704
Ni -0.08343503874626687 4.774841573446725 10.33693068878124 1.246179506603228 -0.3183858751096194 0.03651994930290484
Ni 8.54911720202723 2.4394253006994284 5.835277121756056 -0.0790123141391607 -0.036296263327872974 -0.5216950862573531
Ni 3.4646080715642276 2.7150379243566722 11.799018275507121 0.15509768443951352 0.03163588173772616 -0.5602482639402029
Ni 1.0666507770548408 3.0366929625606525 12.74956496346275 0.25173773896276647 0.9602252696597527 -0.05546538005715609
Ni 2.789412741650212 8.267158264800026 7.8849863353301295 0.7285431637962808 -0.1170219606137146 0.38463369049426016
Ni 5.567778196715678 7.938189597424966 3.485928792252824 0.3332113701582261 0.5423163620521306 1.5813269174419025
Ni 3.1939585905706704 8.229197907705633 3.442410438601719 -0.5385908335714272 0.9180473507401221 1.6192506890708693
Ni 3.5877735645516093 4.535769974646718 9.385815363897477 -0.6340844331950628 -1.229523643214102 -0.025938574242632743
Ni 7.418723038958443 6.339171707111103 11.328798929536836 0.16697900925813178 -1.084264285021249 0.6851306011386007
Ni 0.5637804613970542 0.08591480201156625 0.18028141108375365 1.3781359770395878 0.8409091136952226 0.07638953180433296
Ni 4.768368695218675 0.5093911076492574 1.6567747680001355 -0.44496385484288525 -0.6256648416727999 -0.14803794937925474
Ni 6.3493963234182615 5.746216283957672 0.1987688914976699 -1.36354368104771 0.3081814237727918 0.8155724347026471
Ni 7.985615182877975 8.772928719194626 11.30481040666235 0.0885297667112927 0.27443852299439186 -0.4803386347977534
Ni 0.21624837481322348 4.763550197878519 5.656162817626551 -0.4241898555203275 0.8148291287787193 0.7073467322243238
Ni 8.004021300297405 8.789138035762916 2.6591225624456145 -0.720813656362507 -0.23840322663738941 -0.32937965511696177
P 8.303265353686667 1.6875137073172004 3.612950891178874 0.3981525509163014 0.7447794231494851 0.3567138241555405
P 1.791540815934772 3.1830197879785733 1.6553988293600383 -0.040174001115724355 -0.2376318956890036 -0.2612441357913049
P 4.605959117890555 1.0241521729346352 8.329814098787669 0.5959187207586188 0.6487502627373537 -0.6269334239725783
P 8.559640149314173 1.634772406224395 12.244005148820545 -0.08720153481817239 -0.450863765267088 -0.011424182676541616
P 6.376472119916882 7.8522883559124805 1.4888542038454515 0.2175634070739027 0.2276364750391886 -1.4135922609646687
P 1.865499777923158 3.210475278451465 5.831546176442207 -0.6771995192169821 -1.4084066029986713 1.0387696430235596
P 6.861431728388336 4.019331927641643 5.819968222326754 0.3068717038224328 -1.0125436194474948 -0.2943031231288028
P 2.436351587574376 8.234820994657934 10.121985929946348 -0.18145097762206167 0.8311651469345814 0.5203581126134844
