# total energy = -381166.3846090963 ev
CRYSTAL
PRIMVEC
9.26654730935000 0.00000000000000 0.00000000000000
0.00000000000000 9.26654730935000 0.00000000000000
0.00000000000000 0.00000000000000 13.56252866419820
PRIMCOORD
 96 1
Ni 3.048786796422118 4.81110806851219 3.825881323960241 0.29905709287402044 0.1424008056981354 -0.4019955788114754
Ni 3.037398209531741 9.116197777119748 6.1783019014460105 1.5432455371891485 0.1820096783390091 0.41947445232252917
Ni 0.8204360235541278 5.861295164422086 3.2412548415242317 0.3208333082088475 1.356546166683954 -0.6797407975815971
Ni 6.927272457289836 7.479076828443734 0.32056416461319653 1.7700109224772937 0.718626418903201 -0.08833770530514465
Ni 5.221718055248946 1.6838984805089035 12.451337571401131 -0.35295795665753404 -1.6943734383476365 0.193014514089945
Ni 1.1009863093623327 5.058385888829275 12.684165137530378 -0.8109297937243132 0.053182754670566476 0.8941815998661181
Ni 5.012942739837895 3.0452377087256046 3.35977769080224 0.2641026882860226 1.8224979366324163 -2.5504800857189043
Ni 5.5779797408367555 5.411988075281576 4.263367078441635 0.01401379778058877 -0.5978894713317444 -0.8474577134470179
Ni 8.015461664540199 1.315164021971993 7.453504863933821 -0.271697469914145 0.5291569418520371 0.10794288113058184
Ni 6.224238030764948 0.3424276568094166 0.9591784794999972 0.6403864641536907 -1.847160986596735 -0.7004656888337742
Ni 5.8240158437874365 5.633718024112276 13.154323811878966 -1.023978600757314 -1.3627378973169626 2.6244689785015445
Ni 7.284497863818733 3.8600266982268474 10.015181690646436 0.3635722418382707 -0.4202403839542763 -0.8458546306259561
Ni 8.612764783970542 0.95317561002271 1.4957301134516505 -0.9855814890363543 1.3116757885338248 0.013019295077803385
Ni 5.353794156915779 8.67528618002373 11.087611280545731 1.1370346347447449 1.27195275891259 0.6235562799702293
Ni 4.383985094111762 3.576572276428859 0.28568765974801336 -0.08206215670907802 0.49766015679533643 -0.39249329574799496
Ni 9.182147795751815 5.860618706453821 6.525204374048236 -0.15167580324215812 -0.12978568803728618 1.3703355071585626
Ni 8.485498020461646 3.8610923511905524 0.6295395849097903 0.7073652441670849 -0.4869605109896452 -0.7345176362121608
Ni 5.326411509022319 7.069949489308653 9.363027096537328 -1.8728090261821424 -0.08785228102829386 -1.3035210206371743
Ni 2.753990120471305 1.7608478910359064 7.580450078244102 -1.218792887060159 -0.363928853846741 -0.3142489701231104
Ni 3.4588871230457983 9.225709835598568 12.574173071890517 -0.36504856927348095 0.5036901650395003 1.6306622733419207
Ni 7.844984989989949 8.221753545218444 2.569786909093785 1.2109422806674885 0.7875162998963792 -0.006741175378575486
Ni 3.835970740889649 5.821272945724334 5.906576148832033 0.785518295629744 0.5215914707999534 1.0277709779202104
Ni 8.631446143751663 1.902348071520894 4.11129098728294 1.9437861287216522 1.4710805849891244 0.7564136649543037
Ni 6.527476531497805 6.140755704243059 11.187323038377471 1.0185538301973167 1.149793219961994 -0.9818911846689605
P 3.92377127855142 7.35297764992116 7.542787122542518 1.1434827043629336 -0.5014304224710461 -0.2985210178648923
Ni 1.170680013188632 0.8225293366367445 11.330624635698495 -0.7045462866610511 -0.9779913353939221 0.5197222788016985
P 8.053278444930458 4.6117475653717825 12.209707711791683 0.025426153382588464 -0.4718653072194196 -0.9640662406723977
Ni 0.7581268314389278 6.950874353799021 0.8030417872222109 0.23795739734922244 -0.062392189083976424 0.8640300159834022
P 7.6798087806156925 8.223106461154973 10.846998887852932 0.47116056784291116 -0.3080464408568243 0.28319595747204773
P 1.4002772608557263 7.935074364886809 3.450145062124414 0.798384867179767 0.6318604289605505 -0.2579148143077558
P 1.6240551166862414 9.015665003178581 0.20252966238899062 0.6562622548436826 0.18307642904062663 0.5346868705313307
Ni 1.1054342521673617 1.9108269624929806 0.19679644944425834 0.8057760174375155 -0.48063071211687547 0.6971247973859994
Ni 4.7744588731082525 4.898139482730592 10.429625248088277 -1.887392580423272 -0.44427325653376387 0.36187222842802835
Ni 8.997243106727751 7.5736790119781965 4.696351144142439 0.9767278953004662 -1.0937120606977098 0.5855345493108174
Ni 3.431662006460016 7.129023729687947 3.99047559415084 0.3527191011738506 0.8117826286429117 -0.2678801530505838
Ni 6.076621928923045 8.069050108793288 6.767267908081177 -1.5806571450683875 -1.2638003050087847 -0.10231396497957863
Ni 3.262955242484267 1.5346144001151152 10.724583161965773 2.2833866902356736 -0.21300921204431703 -0.7826679706651424
Ni 2.372087897922006 5.93185992371437 10.21121457657583 1.111159823860512 0.34089125530098713 1.0600768891417678
Ni 6.7187288055665455 7.472062051978303 4.489441184745246 -1.533445006158959 -0.08528760562491118 0.4911262123315607
Ni 3.0105900875839304 0.24961113698022339 3.831455152287793 0.654419288097673 0.5188411617483258 -0.4746531543772019
Ni 5.657792514544496 0.9284709943597776 6.753529324742143 0.8772524282109473 0.6620078990782083 0.9753423278068493
Ni 4.673666635836791 2.7153208177100834 8.572888050068704 0.8403509271989075 -0.1566989674883624 0.9811100835285621
Ni 6.0442260788264175 3.653558753145904 11.933655408145063 0.8955620251534125 0.4938909195608913 0.9807573281748335
Ni 5.6061407787210955 7.661349817974822 2.4245189503910374 -0.38295681701246953 0.20221520675260654 0.6733338656139888
Ni 1.9911679294088185 7.714169138784541 8.299915020159817 -0.5050765038640657 0.8183967915253196 0.12700144042392966
Ni 0.9976457715254904 0.8058161915468478 2.9628840476904914 0.5253823053009532 -0.0008739179645210755 -0.4925953406779194
Ni 1.5825595169343243 4.662898907629617 5.652591201426865 0.962192934909085 -0.9362237645388327 -0.5560509380294038
Ni 6.83706261727534 1.2275673483554517 3.024308284518441 -1.6263423058103281 -0.6072688556641155 1.4632518329733253
Ni 6.390535492387973 2.686853983757897 1.2873337998337768 -1.3845678487078605 -0.14919417447088498 -2.067382657229091
Ni 0.5162606748679612 3.0200790322346585 11.839816788125464 -0.5896861095853457 0.0831060245925601 -0.04052032871154957
Ni 7.368953177829223 5.99186081884471 9.030745382597132 0.9192976782074554 0.3589514552368076 -1.2287173452627225
Ni 2.624249188777113 2.6443946630648907 4.157159470805052 -1.2266278097235455 -1.0180835754291175 1.7013228730822765
Ni 5.08101479784986 4.880597908293258 8.160234789605887 0.9503748592282343 1.6371735920978772 -1.1075492236911184
Ni 7.6978044158810395 4.11657106605441 7.491303111229058 0.4674689779239369 -1.6493513651109917 0.7972643804220786
Ni 6.927893315973037 3.2858343482876355 5.076115574181071 0.8582951703821541 0.0031508869241558637 -2.429614840099699
Ni 7.507163733947991 3.726801544668716 2.7708515303213694 0.9229689564114555 0.20463384349642824 2.4833120725128395
P 5.861183965851961 2.099262206118535 10.301947976524671 -0.6926330801632329 -0.5936252967387519 -0.24177985641910618
Ni 9.07390525428193 0.08909507434898555 9.372372409701644 -0.24455999026740466 1.3541496414273195 -1.0794558078890117
P 5.989053054949036 4.854345779196077 1.8545132266170594 -0.16758064739787268 0.02271775331248991 -0.4480903162870089
Ni 0.23742470034919474 4.903060019458655 10.30258551499339 -0.42727852174798026 -0.04801560864733021 -0.32986045140812226
P 5.8589414613544255 3.082609694835359 6.632768604240353 -2.347302772163345 0.5205185494507487 3.9313118644231
P 4.324632857307155 6.9016782530658976 11.634466388674284 -0.3881157355055897 -0.9963834647478647 -0.26112997881094385
P 1.9606161222667748 4.8983248136808015 1.5337322247921175 -0.043380938088796256 0.12090535482852083 -0.49682146294412505
Ni 2.078495873147556 5.257968789109934 7.977289975380289 0.5566353497779639 1.5177540777862635 -0.6661566311392593
Ni 6.670867087674931 8.960844108106597 9.011500616727373 0.6668135479969677 0.853829935521949 -0.11533737382244008
Ni 8.167349644784432 7.6864065624431515 7.4962134547548605 0.9420478274197776 0.6557495768733222 0.08225164701206479
Ni 0.6124928441095163 9.31797684916039 6.745839016963197 0.08273835684049621 -0.6070767942579673 0.27089117196276574
Ni 3.3167382842350777 8.2685032774088 1.6333216641967188 -3.0952708774534563 1.3025159764114278 2.0648997429062375
Ni 3.2075598214666345 5.568694660231256 13.004214082101992 1.357583349699217 0.2389580706995949 -0.04572629839252125
Ni 7.853213684179253 0.13974231642224993 5.148878358542841 -1.1616305789165542 0.5646857308862662 1.4648947678933868
Ni 4.621718370493056 1.9073334740815309 5.077295205679155 -0.8492330601798859 -0.6418795037594495 0.7267768159244773
Ni 0.17140518261079962 2.543009366752759 9.551411374151574 -0.12494404367426869 -0.39580436239909894 -0.6937792779525341
Ni 1.8561079994436125 7.1358253755606365 6.014018987251764 -0.6949167339910871 -0.48133210905927426 -0.8105641828547782
Ni 8.856864178491533 9.070726828485837 13.113513936642823 -1.1549171714521207 -0.46504262787063133 -1.6076192754795282
Ni 4.157316075457978 5.810273553829399 2.0307851999803614 -1.046014497511431 -0.06065206646441812 -1.063565876131633
Ni 2.8890222507939796 2.855597813923688 1.9553230703287903 -1.785539357130196 1.0988858915891655 -0.14555889171114286
Ni 0.9404897064808667 3.381270521098041 7.6209068980200945 -0.862504066257179 -0.6106927937439999 -1.7500342222450507
Ni 4.3581128934625095 1.3489405876476825 1.4280796833514113 -0.8433321213144186 -0.8168322752516771 -0.08131242302724706
Ni 7.93004262958862 1.6424214138520075 11.017072467586477 -1.2295871494621855 -1.2125255659942087 1.112442804337994
Ni 8.774123175770482 4.5332877076005715 4.622611665673066 -1.3829706794240697 1.0056404645697583 1.5806108652114843
Ni 7.838841268990503 6.009040997929135 1.8447073660414723 0.07904445292867678 -0.6522130244749734 0.4710867771821822
Ni 2.4523732655527812 3.53289903801198 9.570018601552611 0.302565363137595 0.38527183829889133 -0.2920554647452067
Ni 6.8146097726574535 5.840389833238449 6.407548873617208 -0.7737251596495578 0.3707628460494389 -1.0607895989380765
Ni 1.4081445596921218 7.538382732510789 12.136957900596428 1.0975476323937163 0.24788134133115375 0.09318577742606532
Ni 4.414638833276421 0.45367441298219796 8.65479228354956 -0.5009190300522663 -2.0188078336441815 0.7700837062422285
Ni 3.624378395035411 3.695397215155709 6.7417163299757865 -0.21001361975110283 -0.2257081476682242 -1.236559981235593
Ni 2.997514989046647 8.409586463255817 10.518216222252695 -0.11570992667051039 -1.2205754328818785 -1.244457895926431
Ni 8.587420776529386 6.631159931592535 12.247587504705011 -0.3164953429551259 1.106090636867721 0.057669586797326484
P 4.9015773718569795 9.03543981556594 4.672467544588935 1.5324556456624965 -1.0516308152569436 0.5039722150562933
Ni 4.6909209473013 7.605537402319218 0.25806130165502755 0.8889419487337337 -0.6352049199527512 -2.762809498087377
P 1.983977088540688 0.577477341031676 9.180706847613935 -0.7120528794507414 -0.04882833435661268 0.06776862290454135
Ni 0.3719165909520083 7.303151423957324 9.973897368177758 -0.49153938860957924 -1.4582664639435916 0.4472691059372942
P 1.272890032229196 1.7535458515976505 5.691447688447798 0.12304965486503326 0.7973047467417107 -0.11809539618355144
P 2.6770592430393227 3.262769911534058 11.679344278267525 -0.16669901612386775 1.9778784424196711 1.7680597122881936
P 7.341718794695931 1.6514006983896599 13.254266306743716 1.225045038617458 -0.1406177456557836 -0.9457455879863389
Ni 0.604661684808412 3.6429670893414285 2.999312699263679 1.7767981206024561 -1.6180813513531165 -2.2385826465471057
