# total energy = -340873.8417146923 ev
CRYSTAL
PRIMVEC
9.21822661042209 0.00000000000000 0.00000000000000

0.00000000000000 9.21822661042209 0.00000000000000

0.00000000000000 0.00000000000000 13.49180643697685

PRIMCOORD
 96 1
Ni 7.348788803188445 3.8995588082398167 2.283555723826191 0.5392816889908647 -1.1585658239483014 -1.1140733979628812
Ni 7.022583413113622 0.9228366801478112 12.529800045088432 1.1653008286792899 0.17544385219603334 -0.6609763724899004
Ni 8.272722452319751 4.573420402041487 9.609633581765609 0.07550070144147641 -0.8632594563659648 -0.6543907488525826
Ni 5.781109507054421 1.2868921092665555 10.27109666058577 1.4492678599894073 1.11556643756864 0.1081169448146009
Ni 8.68363412801917 6.247367416173153 12.263310327913395 -0.4822250531871888 -0.7536895811549214 -0.4051894031584248
Ni 1.145410765076079 1.9957737464992662 9.969703049636767 0.3862596561334573 0.9852166494977677 1.2534084202514995
Ni 7.080501531796757 6.2092777032336794 3.059158886290246 -0.5171043815628772 0.3961154658816146 -0.06933648161229349
Ni 0.30846399086782655 3.00793504387445 4.27226185587466 -0.17632214103592858 1.5404337787719666 -1.7513264586939128
Ni 3.4177774052706313 7.847928127131744 8.23317257226275 0.07575189822033405 -0.1813697307621651 -0.10530441506647024
Ni 4.671096732706217 6.848202217645076 10.949181124062553 0.7256614713731115 0.11065745184826749 -1.8249019180882184
Ni 8.006463190813513 8.30670083612781 0.3314100008990315 0.13329472963180916 0.7028992379759315 -2.0050074374259794
Ni 1.435655852591152 7.366377179831359 6.864941595604126 0.06328333343967811 0.7865120270015811 -0.65350963179921
Ni 1.3347807972434598 0.22642638188794995 1.4518799316747617 -0.06280870779610473 -1.8838148903743428 1.1354667760369928
Ni 4.115090167929519 9.073989158061515 10.084788001522746 -0.8507325275435478 0.055281289070808017 0.5144242636275528
Ni 7.517463916297472 0.9410795508901197 2.2989907226998256 0.013324485023048019 0.13560075205716646 -0.31367664255940814
Ni 8.45947450808955 6.962572756957771 7.756722991646952 -0.6918717765171762 -0.8840843635311161 0.4163577610704185
Ni 0.5618324840839956 5.435167893503457 5.354776659821496 -0.11538185390713034 -0.8419092728249629 0.9164069869232216
Ni -0.09629267482924801 1.1882109918858512 7.700583990726963 0.31163158710492134 -2.1194778352624337 -1.7086276342738058
Ni 0.5911353832834148 3.434185848889282 0.8291094378236589 -0.35881441543831105 0.20456390949044123 1.7175971847622675
Ni 2.952026498623262 8.903470399602078 3.6655624185430833 0.006486893275924312 0.12551045770069996 -0.41345035761563637
Ni 0.32175575202160867 5.371811021036611 2.9097913491133904 0.5228981054265188 0.2619794712954327 -0.8434701895541795
Ni 8.991347755229379 3.560918030276477 12.01877105228034 -0.11060037335808694 -0.9250906307401487 -1.3307520884389856
Ni 7.225356746978484 4.400864415469846 13.287797316278747 -0.4627949694870352 -1.107954686659653 0.611212927913528
Ni 4.1761609201618555 5.469754680277151 12.6932539545651 -0.26155806748729793 -0.19717070235016368 0.4681842588234066
P 4.750456446814623 3.4737043869753235 7.4388831423496145 0.19153407288967658 -0.4725391933579926 -0.28517082181023146
P 7.083257781595621 3.0585431087432093 10.958787438160867 0.7986754018369923 -0.22829622011037456 -0.38161033028690405
P 3.311509687272989 2.539086813038392 10.575512006264097 -0.2667504103215148 -0.6387455861161581 0.03551079131210013
P 5.710230561557902 8.530067688556754 11.659443651662723 0.35321635252524336 1.2395152072091749 -0.31892914920759907
P 0.49674535045579005 8.494024421956235 8.733421770706997 -0.23133577826764676 -0.034491606018966406 -0.487761923845018
P 7.180749747725311 2.310972573832141 3.9898918994738644 0.32380756034582303 -0.2711662800010233 0.4295061255269183
P 0.0400236969120544 3.049619865247224 8.240971192094987 0.5419458660865892 4.561572038776067 0.6297084156145543
P 1.5580278127246272 0.8876700669114123 6.015888524202404 -0.03772039736890923 -0.4510023477274813 -0.8397708863257215
Ni 3.962878807799654 7.079340035225999 1.4658980890966054 -0.8148592106857064 0.10038846582209163 0.6086271694642229
Ni 3.6299533304225857 1.3548857497896827 1.792467599128135 -0.6900486072655083 -0.9602594653317977 -0.4165806757145019
Ni 6.078305137540541 7.449433402867337 7.189378929787906 -0.02760027821577182 0.37882325446007015 0.23101644725501502
Ni 5.810312849404918 4.004867830655246 9.397272370255939 -0.596674882198353 0.2042360938373773 -0.5461853580892335
Ni 8.628831769978227 7.892986819495768 2.3812366636042985 2.0053709914129847 -0.7247451302064293 0.27504890288488115
Ni 5.186764337215942 8.642216635222205 0.2917762349785889 -0.09945361271264806 1.4405687895535126 1.442657039541109
Ni 8.522121577096486 8.687929821685625 6.000629593459735 -0.37885745013211525 0.2903721635055128 0.36173236041605444
Ni 2.6776091064414596 4.757508390279941 1.1521151813928456 -0.11009129493215233 0.2811087359257159 0.40104349931085126
Ni 7.919774986437227 2.705346750738381 6.072513325672228 1.020581916370939 -0.34277818791105485 0.6675375706471859
Ni 2.68084470403143 7.094172162070048 12.09682085636728 0.02967721534945857 1.2503529212546272 -0.6863505895886308
Ni 6.479122854946464 0.9176200856288255 6.02834142672175 -0.4569289976245614 -0.6808692547590854 0.680798292311834
Ni 7.153316304911208 4.742160042737778 7.109993404644594 0.4509951486386298 0.13542488860093452 1.1024352995033206
Ni 5.539472129202911 5.343870575751144 1.264289939093202 -0.11235746525850972 -0.15826271243105647 1.1381108985280592
Ni 6.653946525299109 5.49487434817649 11.235612631170305 -0.32116780873013073 -1.7029773779665636 -1.880486340221742
Ni 5.264077604985393 1.1814909045836062 3.8378519983615886 -0.5739141914630697 0.5087254134705627 0.5338669457331967
Ni 1.8203969825414985 8.791026469680562 10.430029951663231 -1.2324017360928452 -0.5195808681278278 0.5039197645518031
Ni 7.404531420358097 -0.037172499377645066 8.48420147952925 -1.1784021419479382 -0.5571853087441629 -1.3897622484246066
Ni 6.166588095144932 6.727959667891325 13.001581515676994 0.6625681424570524 0.6774301471705494 0.5848506358699154
Ni 4.574710953786774 1.2113395228067467 12.420706018768612 -2.2090229306121185 -0.27903359856424204 -0.3709626207650708
Ni 2.194334350738442 0.8956539731013635 8.204542603616233 0.7606444152061997 -3.359202073158621 -0.6449748548553215
Ni 4.988000931988221 7.282841609004274 4.351404019831718 -0.7792113795751096 0.6245980909711824 -1.5755501628591253
Ni 3.6098022867426023 1.906384601684629 6.336305789699615 0.6181405082712966 -0.038187052592682624 0.5063484285979538
Ni 7.255334420376154 7.667693357675645 10.120959401475119 0.17137893809804033 -0.235579126925033 1.6890643674298977
Ni 8.524029750034162 0.8163117736237866 10.437180530154796 -0.6114003613339857 -0.8203572576858001 0.7086901336260956
P 2.2091296046754834 4.347066844144878 3.7534342432343326 -0.5931331875936817 0.31297344584479647 0.039324508631235496
P 7.825896565194342 6.568032651969995 5.434000865996647 -0.16418704833529144 0.33875466857395853 0.14765948299391343
P 5.413053367525286 8.776922582749924 2.5115399860352383 -0.9164144431223894 -0.9073129950417536 -0.7970370949026209
P -0.1781274828205795 8.273598183861196 11.747707250990933 0.06095082865175954 1.1648508856260649 -0.3620303512724474
P 6.380275809484223 6.07021153445224 8.992127617212603 0.1390221190338896 -0.19366346052785358 -0.6344644422423009
P 7.907210543374182 6.158688074818424 0.8729402623843102 -0.38063331108561543 0.16687873623484162 1.3561170495663355
P 2.670142342772299 6.5640135051061 9.933248650123108 -0.3740908819814074 0.21354091617807097 -0.6467399171755444
P 1.2917501147648864 4.893154596936371 12.752698611598372 0.8451488628081831 -0.13513461105402533 -0.5654681175782454
Ni 1.2180503918822398 6.770271328683238 0.18429539834037673 -0.7991353721925463 1.0605134624585542 3.135054842219614
Ni 7.5915415864769535 4.447683789143513 4.489088376423025 -0.1422779069670259 0.944863699602018 1.5288429886105734
Ni 4.829696323975252 3.270912616656957 2.4171517968529637 -0.6339021419809276 1.2584439257928777 1.5850005096387478
Ni 0.17511680996335968 0.7149518395489363 4.044614058942064 0.4084822149770836 -0.4016484798847018 -0.148274490870093
Ni 1.3484698639702553 3.0960336369438 6.235049099764388 -0.3283926086133441 -0.20423737938895795 1.7466089986135855
Ni 2.742256530653593 2.2381762371711953 4.15458566044868 0.3685144163348944 0.039801191157337906 -0.08346006549786918
Ni 1.5207769584195898 4.418710902461817 10.272081167202888 -1.1970956045923835 -0.02902826891155 1.0520532475063429
Ni 5.860330947761546 1.9970827346980575 0.8390485299077199 0.06657717369960146 0.147214682147011 -0.5873649176513368
Ni 5.4641407801851525 5.577736988450675 5.769136874148857 0.43295963129315757 0.16699777831120918 -0.30599367209285366
Ni 1.3537795625794364 5.137999917697593 7.933897309821369 -0.6629903175961355 0.028661372490434513 -0.1781486527217061
Ni 5.561328544832024 3.2980418579882422 5.30908006616623 -0.5223085514716359 -0.8619422802164382 -0.1219296823279771
Ni 0.6808056840139894 1.3198841428121455 13.024382799548192 -2.3359960889012736 -0.8574047973574007 -1.625066267311382
Ni 3.728966303966364 4.700668804126797 10.350779012630499 0.7863497903921038 0.0007782729269212403 -0.520081204803014
Ni 4.363042031106182 8.894777611774895 5.964458193507362 -0.4705139353978477 -0.0764700073332812 0.6762685227622804
Ni 4.320085094441625 5.51051767897472 7.957710754989943 -0.12281337048451108 0.5318566001713873 0.6913562703333384
Ni 0.6208180734250185 7.604327266982047 4.396548441704536 -1.1594186588669 0.4999648936691131 -0.1608728963603939
Ni 7.050284184503536 8.514396703078269 3.922917794829514 -0.03872852691844943 -0.11591021560677456 1.7672045633767501
Ni 7.090392689101709 2.2735189185385583 8.508945043777105 0.5503448887835619 0.6356008698395893 -0.8509623841661668
Ni 2.522669151192989 6.521646534953675 4.2100775418506755 1.8657027541546642 -1.4216061324080809 0.29776202821168074
Ni 0.3282380090736508 6.4762467681998235 9.95517235880751 0.9835307771549125 1.5585466863225934 0.07172529355944422
Ni 3.2353026067137844 4.558385474208892 5.853366577450371 -0.5507274689339612 -0.11777786494313265 -0.35610987202295447
Ni 2.261267895185083 2.877368080158402 12.785442674844333 2.725628518161706 0.5579646101123488 -1.3785856629824966
Ni 5.092415786408702 3.3531760721922588 11.808932869432706 0.6282806820290922 0.21305497768058793 -0.9591011833576385
Ni 2.546599667841313 3.02164254705475 8.407716008522133 1.588700584198154 2.494262657987072 0.10811900169712993
P 8.024097658590188 2.280008550172002 0.6165297543399645 -0.33951854332317655 -0.08469728033907994 -0.6101531191904459
P 4.431367527792383 3.6895860392816027 0.26541395011307384 -0.3223314900209287 -1.582793731795416 1.9323357207928655
P 1.862902226095205 7.324793758952858 2.270751606867593 -0.5232104944606151 0.5425714154857301 0.39151241989196445
P 3.496418097692377 6.796469529112566 6.273069676003221 0.7205040955418882 0.11510160366255016 -0.36408286292610204
P 5.113341161135858 5.135271322578986 3.585096517224431 0.8220341311675907 0.16085027065257457 -0.1119651149160975
P 5.194231100885104 0.31442726175372826 8.127531693684249 0.29272395156714104 -0.3329894839554071 -0.6507734638149696
P 1.3786595565832218 2.0741102374381946 2.4815752181550215 0.05015065271246202 -0.25260085829401013 -0.3472871315250019
P 2.640339815682918 0.3388739991001671 13.165601424276234 0.6641478282393465 -0.4760814021832962 -0.15455158212805642
