# total energy = -340894.4137757293 ev
CRYSTAL
PRIMVEC
9.04820083706222 0.00000000000000 0.00000000000000
0.00000000000000 9.04820083706222 0.00000000000000
0.00000000000000 0.00000000000000 13.24295653120052
PRIMCOORD
 96 1
Ni 6.434003855565477 1.8972087011567713 11.407800881227432 0.7120443948103091 0.46026448975569767 1.5498908104198081
Ni 4.645717398728689 0.3139734814859455 6.0482301842346775 -0.15833727442273376 -0.48491159888041646 0.19215036631743682
Ni 2.8911535872300425 1.6036850588789662 4.850855498624795 -0.524160002858078 -0.5659013484609222 -0.8591204944969268
Ni 3.3430026515971525 4.30103522767657 4.711539442135411 -0.6222817841331799 -0.06861014496923022 0.43821136661040017
Ni 5.065508686752079 4.486514301136888 2.8955329165414625 0.006938636101362244 -0.14243731536302567 -0.7711136901686396
Ni 7.026525301760363 5.967342886068628 2.5679283201636696 0.722627055422162 0.6751999722884501 0.6024187266606658
Ni 5.189070920381724 4.722817119932424 11.466785199095645 -0.505984874610948 -0.36804827533175327 0.5351422129011946
Ni 5.745933406212343 8.06797324338106 12.44885613092227 -0.5255885077744884 0.2855420891067212 -0.2202196137498272
Ni 2.177702933912997 6.512578433541447 0.28787394553803153 -1.0170798167549517 0.29081207925640884 -0.946087801817106
Ni 2.8513234061786585 1.7687604389565332 0.41296442032614594 -1.4146548979012281 -1.0872097408028178 -0.6647512661513003
Ni 0.7986702301490206 8.578318927579428 4.2901221923821415 -0.11651442484967675 1.052135522807504 0.8354115809157613
Ni 8.681947974281268 2.2526220386620794 1.3876628779318116 0.8568826063053436 1.337806938403238 0.7090616580329014
Ni 6.866317853851275 0.8172525206590678 4.975697147883851 0.43804733022871006 -0.7405281040722989 -0.4846953691045524
Ni 0.9086384465111518 7.069097087731913 2.161674045741137 0.07805586376316233 1.1927491546982296 1.3550677823662145
Ni 7.387503282915512 3.8921741665296157 3.91020813605563 0.7727566250887014 0.6566342934711208 -0.06301311049742696
Ni 7.713003267727528 3.9626144117556548 12.674370779597957 0.19888022884210266 -0.47508355704640115 0.08069998625422876
Ni 7.942818526365443 8.830962797483277 6.99279813232169 0.09235865353907964 0.01464963159237477 0.5811981267189925
Ni 6.929465249025652 0.8743720042895033 0.6352144780605943 -0.6012144219399195 -0.8962742207290887 -1.0023947039389511
Ni 1.652445814373266 6.356668881134269 9.186983269279485 1.2834088232683316 0.9280420000589888 -0.6314809341339447
Ni 0.1245539164654549 4.863941911813032 1.427656831422321 -0.19484642509236122 -0.5223301487381907 -0.42811258761350146
Ni 6.363210730498229 2.0982959214398154 7.032897044944457 0.30294125841977504 -0.5354664290098327 0.7506243119660364
Ni 3.5083856705106453 4.538523360810526 0.38416671082313814 0.13507419012973512 -0.4631641799009959 -0.5465957061537747
Ni 5.8754945971425485 5.774760974778836 4.9843707534167585 -0.17253387763808997 0.23380532285406186 -1.1742415828123454
Ni 5.435064362508934 2.6852979649901427 9.46724405844845 -0.7672295246228851 1.042267885984805 -0.9584560935744719
P 0.2973727470073053 5.513684181490188 12.389673657450917 1.1065097266830104 -0.1237875614723223 1.493477464627086
P 4.143469854476024 6.396589544196219 12.58537810292536 -0.0185628506038519 -0.6550049853978138 -0.966869771559464
P 2.405301383292033 8.555381737900813 1.2361932777831326 -0.3535153718229008 0.773883282493977 -0.19099414122580655
P 6.288689746595639 7.8089865845364965 6.0331332607716535 -0.2979468905289772 0.1338107500362792 -1.3830041037651666
P 4.679919598722835 1.2127665804273537 12.459861457867476 0.4107488995240733 -1.3401312156610403 0.5154552759952284
P 4.183073830500992 6.0276672425133295 8.238165381156163 -1.3284380955938284 0.23515695178594986 -0.09966675716471868
P 4.903672562652793 1.1156160456820765 3.7631585821231255 -1.0785615782095166 -1.1183643120287512 0.7979395521122322
P 9.022784659884309 5.623140269672512 3.509952818933658 -0.003777978985193493 -0.08211177900009084 0.8411315141186739
Ni 1.6142262131099663 1.2149833896862339 2.629057966502414 -0.7261196419564526 0.010560806234981812 -0.729613514042324
Ni 1.8342332218024704 6.407347855252579 4.551498481125766 0.2706906259161854 -0.17705644809879184 0.13920029648296672
Ni 6.009163671352476 5.684912338286278 9.425197972958292 0.6677687128213854 -0.39573905637880236 -0.6493606426278429
Ni 8.609281871595291 2.3816222411267733 10.289194405096131 0.57351901290718 0.529038928216934 0.2983340986650668
Ni 2.2698679098760586 5.211320446780032 6.928450040867096 -0.46284382044709965 -0.5982514826568536 0.6543244143910215
Ni 0.2512631144226044 0.1247231178252143 9.297456375260579 1.5522228009870944 -0.25667194303959023 0.48826688850589456
Ni 1.5567158471938833 1.1971493854035717 11.336143652959272 -0.41866224083387893 -0.14867224052914396 0.5398576160989929
Ni 4.299768479528638 7.056411509850486 1.5057509499221826 -0.2543389240310394 0.009063395753848907 0.4586544649561004
Ni 5.533508790005312 7.7904468205714155 8.114065684383752 -0.04501333148589667 0.7777993297189314 0.27157817072746127
Ni 5.227960088523217 2.8781694187137465 4.940377495059209 -0.417288500414804 0.11190109444738147 -0.07698577062743515
Ni 0.881452221616334 7.24260539119428 6.740280937232635 -0.9138813922878906 0.13128361273905131 0.3373421044971481
Ni 4.953347186453815 4.338395249839488 7.113771675629028 -0.14102835083064102 0.001480698310584547 0.1981533779784071
Ni 8.257614489327437 7.14254133570876 9.110783844080888 -0.34183279327865 -0.15193317066860287 0.019925021058701167
Ni 4.6868505207322295 0.3824819357863895 10.323891541688077 -0.7562881951200329 -0.7845970693670552 0.7290833525704669
Ni 8.046338994654603 7.089328865294587 4.892676283908643 0.29430800822480924 0.39888608664821623 -0.3690530624471837
Ni 7.131945892271419 6.05882924695244 7.055780850236837 0.1992106155983279 -0.7717343544717742 0.6060059297912919
Ni 2.5001989159742037 5.291894677189523 2.393770355865435 0.30057635773202424 -0.11474884830882173 1.2325961114918385
Ni 2.386318257475176 5.092255169075543 11.281158639958102 0.3247015329150021 0.44301393020536606 0.42463337081564934
Ni 0.9029009822211285 3.437737316660303 3.886807678482915 0.7515154563217379 0.25860412706529656 -1.239275066173911
Ni 3.6286634071567265 2.4412046450848295 2.5251800942715157 0.4950396884533539 1.644281406787252 1.5432853892881486
Ni 0.9377374611093461 3.4406417891994887 8.29413031433177 0.2095536493955488 -0.20493903344167283 -0.20447674909327368
Ni 3.350585044082627 2.4430233334972167 6.977634252170847 0.7733096693786939 0.41290322686291475 0.23948848928176816
Ni 3.8916765154715 6.55360297713231 6.025055026868274 0.502673807959844 1.5527408782740937 0.3253278536450913
Ni 0.961479940682002 7.253807064102415 11.40333830846629 -0.07219914787206921 1.3084397980950304 -0.27831266123781745
P 0.02427541861489285 5.4662716079533284 7.97020743096393 0.5746456703124556 0.45729486560441246 -0.058561759594292696
P 8.471179178867605 1.6708679517246103 8.134910025157962 -0.6836409039669515 0.6520402463425351 -1.595524291988207
P 1.8219910057728195 3.1566459026343385 10.431954206907678 -1.0140127477938536 0.9612799361765121 -0.588628871965425
P 3.9981286009030157 6.3151285900831775 3.7516637475007544 0.1907498864254844 -0.357038811595127 -0.30521797026909375
P 7.082207931063001 4.057828631474808 10.612362668495848 -1.3046831592660757 -0.16874561424025133 -1.17643421958829
P 6.448879098102615 7.694698756989919 10.226515706736489 -0.475525015459194 0.7770547382434231 0.5546512294683996
P 2.516711882902594 8.390813057082418 5.803156039334824 -0.3559628049221289 0.37948582774473355 -1.2787638682971525
P 6.926578872888579 3.8444901469610575 1.4884155015177423 -0.8386722539449041 0.14829557391601556 1.1060086186768758
Ni 4.990453858987146 2.819491834861355 0.570093670235761 2.3902198832418446 0.657146457220849 0.28684718107138985
Ni 1.2007505694241194 0.7264158206111226 6.935667790849988 -0.06229448716384755 1.1721690165540328 -0.11265751299743178
Ni 6.929302381406632 0.6729282848848273 9.396182201809818 -0.58939891736223 -0.4292521005345833 -1.0871673176006567
Ni 2.637369643993055 1.7183710072720357 9.072220411177435 0.16840314329916806 -1.583295868242815 0.4093972705921852
Ni 6.603123781515368 1.9705353225198827 2.838985279217807 0.31810382509282636 0.1161524135245677 -1.5877384773952012
Ni 4.05498749634302 6.942340839129268 10.32745381844408 -0.4234293232052191 0.45810964819622396 0.09449652581768887
Ni 8.399797920731675 7.123060558833788 0.4643907758517357 -1.2052974236768856 -0.4770342530148688 -0.1687168178848449
Ni 7.531677318552212 3.815056348923767 8.405834880476673 -0.15041750535502482 0.07000239733106654 -0.36198047187111854
Ni 3.2081392148477477 8.566538169803666 12.386958292313816 0.019621887995985562 -0.3855227779674328 -0.4304402073054135
Ni 0.04308029487093362 4.964476473753497 10.266523232528584 -0.18617666523250517 -1.064405855534425 -0.06743463660389032
Ni 8.646659990160323 2.4777050881473657 5.6506504201651575 -0.8012115379952847 -1.0195231360891217 1.0697128695696352
Ni 3.641131828212794 2.777770579789131 11.445662173728888 0.7486867286236912 0.6706514336858191 -0.14594609984723253
Ni 1.2344008291538098 3.3814756024900383 12.717105433188527 -0.8094763491072381 0.228273080181923 -0.1596246257755896
Ni 3.0403584226542413 8.388931031262635 7.92894220522496 0.38157176373948476 -0.6049489492816872 0.9396888402692978
Ni 5.676189872467665 8.062354310524878 3.6168365035555765 -0.436697501069035 -0.4508367686838945 0.1215931249241648
Ni 3.0531706753504615 8.435113049455788 3.2706396636465747 0.7367544959624795 -0.5452592467305384 1.2822068325404306
Ni 3.320183088532275 4.204481874201031 9.044078696251034 0.291870088207278 -0.20325264687818548 0.4416052227832975
Ni 7.452921776555109 6.329153301720989 11.615820833160083 -0.8002962252698668 -0.732972146101912 -0.5621076857464449
Ni 0.4854902758957436 9.073716983632206 0.06529724774543803 1.4814431591703712 0.36405432368101176 1.0964127474583247
Ni 4.623359293917701 0.5372541293207466 1.6009941238847176 0.5178890822477016 -1.2436006901324583 -0.4898368040961757
Ni 6.028020122354539 5.668779395802266 0.46814487447014086 -0.24588256573357006 -0.2794151502733769 -0.9492178628056556
Ni 8.014435037728846 8.82917125367406 11.485496878880802 -0.052703758151618915 0.28474736111956767 -0.11155528107218853
Ni 0.02300776564685584 4.900243294452322 5.72817450199845 -0.4413604537623432 0.5503927113023619 0.3485235750352643
Ni 8.023781829420368 8.547184067743487 2.6585234332434027 -0.13916970035534743 0.37655425592023534 -0.3244750187264928
P 8.717706464857159 1.4390258960500049 3.5977276077440323 -0.6845878412612533 -0.10288732098454538 0.7635135092238786
P 1.8559670007405495 3.4030917548143815 1.6367897120849404 -0.3053933195046934 -0.9523435529188309 -0.05223941692069067
P 4.673531568776837 0.9377555575114593 8.255116281015695 0.49747812269151737 1.2775487649431287 -1.0057404804827326
P 8.514746266955386 1.7759447105955153 12.503629416018716 0.03417098945475405 -0.7362009374518547 -0.6906795559812879
P 6.367300517375836 7.81273253977395 1.3307714089680038 0.670281194830594 0.0984727368566175 0.6088603685209514
P 1.5640267936476584 3.31479036070251 6.11243259965226 1.2104720258992896 -0.8092878872455158 -1.3677312367664962
P 6.7549073542407125 4.059900669516782 5.995311780354847 1.3296537131684842 -0.4624345008238229 0.5346117943190212
P 2.240832232685261 8.589502504085448 10.060780712801893 0.6626355053598783 -0.7205161797267462 0.1742485463363515
