# total energy = -340895.88899314957 ev
CRYSTAL
PRIMVEC
9.05846918433457 0.00000000000000 0.00000000000000

0.00000000000000 9.05846918433457 0.00000000000000

0.00000000000000 0.00000000000000 13.25798529537736

PRIMCOORD
 96 1
Ni 6.583188148426758 1.9039996435028295 11.294530595662774 -0.1483210278373123 0.7534373559347992 1.233266912306618
Ni 4.681770168649122 0.4002919427492333 6.244895992346685 -0.12421924969310218 0.12215671073711866 -0.9796149870402743
Ni 2.7934416768816743 1.5051190102567018 4.974449308863102 0.10976656460288191 0.30439058927179186 -0.4278423646712502
Ni 3.5524326951499794 4.486342753886621 4.837546851980343 -0.08197962429760075 -1.0008913799205472 -0.04910884171150897
Ni 4.9109041473465105 4.6426013477798795 2.8122171660157353 0.412847948144947 -0.7374944594522976 -1.13020244231426
Ni 7.224355657664942 5.996371454455795 2.662826703478412 0.136293664359133 -0.07567759333897289 -0.8283184215144058
Ni 5.080687035772094 4.607345785609875 11.366905952966448 -0.4037467571746272 -0.019906766226256038 0.3783154615857162
Ni 5.489278348012633 7.817993378951942 12.540569233856772 0.8596357435704486 0.04782174746896925 0.03169681688264864
Ni 1.7755777254955998 6.581892787329557 0.3408439268568691 0.08557659762023971 -0.38923390827043286 -0.6990343557038864
Ni 2.7675706888144775 1.370021000440815 0.4516027357491735 -0.035846063164331816 0.272449260478505 0.21950279018846064
Ni 0.6313137064302364 -0.04730966714935168 4.5300417152083865 -0.2842333975976266 -0.5412853496844549 1.1475612453076816
Ni 8.602166941627392 2.3401649360222705 1.5265114911458795 -0.16825581908802634 0.44239686544665746 -0.8211560994380115
Ni 6.873131630938955 0.879765776567437 4.74854648613335 -0.6406361182706515 -0.3271211981000882 0.2871012060637249
Ni 0.6026409338360146 7.294133045998842 2.3697055099669253 0.11717057037643691 0.3299789792638575 0.21470254058633992
Ni 7.634939833131945 3.857739341444377 4.017540702646136 0.37022008617209146 0.17296325186602468 -0.6768580767171634
Ni 7.4395033599002325 3.8011873181588345 12.773803981566072 0.6561995199265472 -0.2505730292307039 -0.1447631352827249
Ni 8.039201197089527 9.005232587649095 6.5373405182080955 0.12586115617189936 -0.403520242986118 1.2531952757994287
Ni 6.78961254481166 0.8491988780611526 0.23037317728548107 1.0741230828221888 -1.0383865486525279 0.7272653255251217
Ni 1.891227201915033 6.458244682596631 9.116482365572647 0.051510509174466125 0.126022364340112 -0.38323912413957867
Ni 0.17596619950915157 4.702921694257282 1.1324454342855064 -0.6667274160410647 0.8173189850801086 1.2920302463887556
Ni 6.312095340343077 1.9608324793339194 7.156501382344581 1.3933389100322713 0.20221032165660013 0.283726376054221
Ni 3.4719753716160713 4.291223327077302 0.5169550618733999 0.14224473973624532 0.5159743817234921 -0.4915108493644889
Ni 5.949521051695451 5.6725130632168534 4.7760697389846705 -0.3946705059049719 0.016781076113080776 0.4260317938250728
Ni 5.376427938579461 3.016787293753104 9.422344296029692 -0.4697480037661007 -0.8166898361365419 -0.632367450503956
P 0.0930848296143255 5.4403444973337125 12.34498782511768 0.27185482142761563 0.40756690225166586 -0.1490350231852014
P 3.8915274316021655 6.157231750708345 12.470129671423534 0.06742152397776775 -0.10752276287402772 0.9838233686946671
P 2.239914857261883 8.468192181993695 1.3460033751742306 0.8734338257958055 0.2420256538813251 0.515032586635513
P 6.291333328910998 7.8934776028888995 5.79441560093278 -0.3374704025448962 -0.6025922761240525 0.22259865550496505
P 4.7113551290929125 1.02159604070109 12.624969709038316 -0.12232203267038934 0.3045029464799401 0.42055611542248217
P 3.898167289533977 6.312367094419413 8.174541973880274 0.7193347578241354 -0.42051446355126937 -0.44128100667465936
P 4.845809987594803 1.0449125404507273 3.7233460805331218 -1.8324751024497863 -0.3999528373498338 1.1783666607243124
P 0.23135149196029103 5.53939885815822 3.5083940412327936 -0.26010153754642945 -0.7551013739007835 0.1743110241431708
Ni 1.4399614412205162 1.1109034886543436 2.7169990669021713 0.10067668648647178 0.4167454834271403 -1.5335321665561268
Ni 1.8995428766509175 6.500140102698446 4.59957995995511 -0.3415157762588635 0.7030218795967248 0.677897316614955
Ni 6.30398801039905 5.7223437023476835 9.238668433374885 -0.3796231246535462 -0.11743719377426226 -0.15628887653413728
Ni 8.653827391538885 2.196325503417573 9.993524260448275 0.7156022873648966 1.111787430142182 0.8021245367278572
Ni 2.472853393027977 5.319196530103079 6.767976391100701 -0.4716578191943039 0.2038627696583586 1.5099204406744575
Ni 0.5122102357005717 0.05938913584249132 9.421827057437731 0.2529320163811838 0.13458439497751015 -0.8340740930512603
Ni 1.5455560168155136 1.15754554662283 11.532007424503682 -0.4667272146619059 -0.2978540737048548 -0.5243962872386002
Ni 4.0398417479971975 7.101676809137615 1.66800025099027 0.21472156674973344 -0.4824397403011563 -0.7539590327662241
Ni 5.617301693374569 7.932891002426845 7.980312994594415 0.14897151693711763 -0.30684933522492963 0.5178091209393857
Ni 5.177712299493294 2.7065709571462344 5.240020074115635 -0.43944549612781736 0.5873610609965949 -1.0469917738230354
Ni 0.6745706144544958 7.389989767191795 6.852721088112272 0.7589001788215833 -0.061472762593500575 -0.3896146886486193
Ni 5.198365609294838 4.6061953600200525 7.408522489350996 -0.30124972964996505 -0.044953939002870966 -0.8779057455242298
Ni 8.284595128021026 7.250244762670561 8.857527000385057 -0.866026991808773 0.14835393795777674 0.4909575479641803
Ni 4.872604939521542 0.32298062557237617 10.661103548365565 -0.9846355801833171 -0.4719231570405485 -1.3942989599526956
Ni 8.033494361486468 7.1331731065849695 4.730382443671044 0.6494408610464751 0.30316083062974886 -0.2815797620248634
Ni 7.193411926839471 6.045803520941332 6.850970991860668 0.34072541914708415 0.08011403184377172 0.48651622436337505
Ni 2.2787575732395227 5.284348599047579 2.3874845674877543 -0.23595527931752913 -0.33897141257045493 0.911754832863191
Ni 2.147853634668423 5.256702151014987 11.538332047706943 0.44831708758583433 -0.6347104968148359 -1.0475461036646088
Ni 1.0331455889453742 3.3056256430215334 3.7154181082794766 0.44462678321844074 0.6871476315686295 0.28755294888916283
Ni 3.4752454790013156 2.6106327097303796 2.777216146830567 0.6278284249830219 0.33653426388387203 -0.006525974043975857
Ni 1.2577593915063723 3.3318408529187558 8.076327333151644 -0.5559411519244167 0.8343967664980017 0.2888544413094058
Ni 3.695773911948061 2.6788248659523184 7.36733000645997 -0.29968264227316127 0.6885447690264722 -0.8783297204355259
Ni 4.095968023229814 7.0686677473319905 5.896621403195866 0.5334817944796361 -0.5042344675787446 -0.005977043519041319
Ni 0.6695866446944918 7.265037242892456 11.008065565327682 0.8377965362081701 -1.0124443748654692 0.8383452096227885
P 0.10871159485057239 5.518310741834538 7.90776552637573 0.7198834312387538 -0.14732575380357854 0.1205076051694699
P 8.682289101800485 1.5648867901122214 7.906744636895628 -1.4436173465718494 -0.18928718583702883 1.011676386351193
P 1.779762738271176 3.2327321412789805 10.312074388729453 0.9762599545251122 -0.6762386979656095 0.6700068581232849
P 3.8708560048621994 6.279059103129818 3.7263154467405544 0.686830614548843 0.9626775878549874 -0.31765465337054977
P 6.951414921862175 3.930270504418482 10.521842266100208 1.288166392557975 0.3914985359348935 -0.6173522080420465
P 6.476687725910641 7.769938199786508 10.280148719841486 -0.022395851196696914 -0.1618278040744955 -0.5809536148083543
P 2.4209211890401483 8.486354412762157 5.788781233083411 -0.7767356643411074 0.46972383539638457 -0.11531449100430463
P 6.757210400443187 4.009124478902007 1.6598865801177953 0.8465567988993034 0.3675893334174637 0.23495049220209857
Ni 5.319866856824708 2.7470260806434683 0.5553720297981133 -0.8241354937813097 0.5649598104832593 -0.03837268624092746
Ni 1.5514440218027958 1.1302252034818405 7.1528417607832555 0.23781547245471946 -0.6269110553750752 -1.021249374751609
Ni 6.885342447435657 0.7258370209553011 9.331221530846513 0.2891282637960827 -1.0251996176486087 -1.4230186964848912
Ni 2.8231715728328437 1.4533589171838859 9.29090409608129 -0.33110100868344267 0.5703524422537404 1.0319968430761
Ni 6.308906759180733 2.2004652238470923 2.826217936028571 0.6804337098835637 0.6080301593101722 -1.4566623526812656
Ni 4.376110242055488 6.865305113540476 10.330317239873894 -0.8475446167338694 0.32457606308073134 0.036987375857626625
Ni 8.197642882062686 7.135238437565124 0.19190095269857937 0.18583830805647994 -0.4111415069768016 0.48610741896073056
Ni 7.665657102227136 3.7897464715450844 8.159481362969728 0.3915802970154224 0.014559128761097506 -0.03514466622193302
Ni 3.109826831021373 8.258706023015407 12.371012807161469 -0.19954228790613376 0.39599899490840834 -0.2317409841258654
Ni 0.16789691513581165 4.651677933929505 10.051011117756415 -0.7879909255399526 1.045316957223774 0.3907143494707013
Ni 8.707054956623915 2.2330304206613687 5.810364847672946 0.3542465935619706 1.2318214381093429 -0.3107761810831616
Ni 3.57509698511641 2.8182709409895828 11.79112221874939 -0.28994947414579736 -0.5281066462106517 -0.9224189974452566
Ni 1.167980903154136 3.267172441219975 12.690994173578014 -0.7427899035232821 -0.11213892148980041 -0.8257187791080296
Ni 3.0748611398661283 8.486444997454269 7.921765390541645 0.2287227661248319 -1.0160945700235466 0.704090172960239
Ni 5.690149902771067 8.04178286081472 3.595485787616987 -0.8235917054626977 -0.8765073225148067 0.02230534836541965
Ni 3.0144139748197682 8.521782085847173 3.5150502044091856 0.9301667597114753 -0.4007347098211808 0.11014194566442967
Ni 3.487601231005397 4.438142639213808 9.379255875532762 -0.49244158870887444 0.10359437435389901 -0.0761974703981849
Ni 7.181173934935136 6.025123035732155 11.43975869159755 0.6454083428483143 -0.002408609441492626 0.4932206329667441
Ni 0.382675031827285 0.11370734062055103 0.5668916850940006 -0.4990526662674889 0.11876979654275675 -0.6133456579858148
Ni 4.864542901923572 0.3953315250091783 1.5830037285346281 -0.3203586825652741 -0.45393237689008276 0.17011858332837798
Ni 5.727280568067789 5.555115302239658 0.44730811549614197 0.2694899207398649 0.447316671345778 -0.11608067974636783
Ni 8.050334055750097 8.604549319029939 11.547850687154076 -0.9001049073290885 1.5429236350733557 0.004992311008268821
Ni 0.262893081753701 4.949511343124659 5.71014828524864 -0.6154742742930432 -0.6814675504647167 0.12487359544764946
Ni 7.842306310314812 8.744158446513005 2.689580892293701 0.01581228444190825 0.790657159518206 -0.4265964080792911
P 8.498257241305678 1.7083276500716265 3.5682804870349796 0.0462474610033139 -0.6414997518225275 0.6213078502556848
P 1.8257888203333001 3.191244352291669 1.472087302278049 -0.22377982029725976 -0.3869859927765206 0.959793838549289
P 4.750360897516353 1.0832570406217512 8.379722642442477 0.6961480352950269 -0.798277137957309 0.3547896105496341
P 8.544600369790196 1.6157500947331283 12.38322362365817 0.23165330950806556 0.18057885942975352 0.3281149294719252
P 6.460110727254139 7.686953563342675 1.3028914026573506 -0.9720875683149773 0.2612726750363952 0.7286264675387064
P 1.9860150237410645 3.317564705441899 5.971953444850075 -0.25513056669439926 -0.4576255094709538 -0.6467124063717185
P 6.891882662206146 3.9234766525100797 6.016288310710467 -0.4535765362125608 0.3776462034328335 0.4718056576260778
P 2.4667661017180484 8.51248809643648 10.199288294427681 -0.12663068734807223 -0.3300111180533736 0.4827179336632074
