# total energy = -381165.3227086509 ev
CRYSTAL
PRIMVEC
9.28135904340196 0.00000000000000 0.00000000000000

0.00000000000000 9.28135904340196 0.00000000000000

0.00000000000000 0.00000000000000 13.58420713417616

PRIMCOORD
 96 1
Ni 0.6373342284810921 8.999512146303628 6.9554533543037245 -1.0796229295944955 0.5400131678402507 0.2491807768688676
Ni 4.929005013212975 5.6686458076693125 6.110203686275705 -0.9644981860034938 -1.4054182097943084 -1.344729119444368
Ni 4.324454401629382 2.852375147440805 4.762487220019005 -0.9044282172947907 0.03207811148146734 -1.3539318689895585
Ni 7.394746581270064 7.963322644669886 3.41300451111025 -1.0379705441610316 -0.31346041278354403 -2.3512139342922924
Ni 0.5471583989548108 1.1430829153160098 11.301028416884341 0.8044066478938146 0.12831913079408866 0.326450911505941
Ni 1.952733002071154 2.3071045769433156 4.138945091280195 -0.8014411375075875 1.252515733233901 -0.13744269036191167
Ni 2.83421152752449 8.632267326248058 7.464616653181161 0.8557325518613004 1.0439061929191764 0.01280306530193924
Ni 8.030603217369615 5.206758968049787 5.722835951380808 -1.0138065453203187 -0.09045089499340551 -0.29579230607981954
Ni 8.779395431977964 2.687296893055737 2.8201901782104493 2.4643532720221493 -0.18423856766952787 -0.06250814583655041
Ni 1.6524253444256323 9.010167146642887 4.517889992718751 -0.7262111732289944 -1.2880874596909235 -0.0022977948952412042
Ni 3.227574092314096 7.236350905494985 5.749406626442855 2.7304909884603297 0.8934712040626547 -1.9066869098765098
Ni 4.720109462136581 7.337536283281222 10.642696969529116 0.5581121914338065 1.2791603324046228 -0.008391566497804901
Ni 3.6217441353524094 2.3109934664399616 2.415475583007126 -0.30599418631348596 1.118069663606468 -0.9873228972074931
Ni 1.845588991691011 7.714350184651926 0.07288744178069127 0.22220784782444958 1.6397619216503436 0.01601283048848855
Ni 8.746752891740009 7.612208826870094 5.258609281111868 1.7229083125625362 -0.1265108739407563 1.411323776645466
Ni 8.850054419419408 3.3074680321401764 11.782534193539691 0.29233160122472884 0.6748600724505281 0.862243870617257
Ni 3.5385181875805154 3.9255137399722724 9.741085319741355 0.3784306470073418 -0.5254630379402175 0.34557760503306295
Ni 6.852223293090014 7.636860116853606 12.025799545797538 0.3360097588389697 0.6475413300309171 0.7857666641951241
Ni 6.665937132977415 2.4672265855259754 11.041066827596623 -0.7268835167056708 1.5896328662044366 -0.5814560083660695
Ni -0.1310806357067531 9.518776348377246 0.34908305641109055 1.1587342312053657 -1.232950923728096 -1.8244596883444775
Ni 2.4161512659554694 7.621666531875063 11.430716848714013 -0.6193437845507785 0.9311291236247449 -1.203201203269489
Ni 0.8279093046710186 4.020777610601325 5.91018946779917 -3.021665079041848 -2.282353106764837 -0.22333887610509923
Ni 1.3083839223214104 0.8005237262729201 2.3008656473021576 0.4130780618778821 -0.22850499368707097 -0.28522018699092816
Ni 3.5758106887679215 4.63174164137867 3.3428829143653593 -0.671776805539514 -0.18535159822804853 -0.35726121201857824
P 0.6742406251265877 2.1698611187406844 13.559063375976066 -1.0068715087633822 1.3210916825310859 -0.8307985076237822
Ni 0.4687828894906667 3.1299898818899083 9.502751153616128 2.3650999482457653 1.2022936038535552 0.3123280989513137
P 4.767277329492082 9.037370810401047 6.234729826129161 1.544173705430373 -0.5944940724969503 1.8291946319263013
Ni 4.914414716581168 7.499106183896045 7.965683822445416 1.2083727201680994 0.5436363664151348 -0.44688935400037233
P 9.264977581585406 5.675569701617995 11.401279161801098 -0.3646695886675075 0.710702536070434 1.2948291492901314
P 6.039779517221527 4.072252028616594 5.038803492318752 0.6981570953052557 0.663193177635561 -0.504163248021177
P 7.836372213798473 3.8203373777384035 9.573307117970668 -2.3049860136730045 0.3763297986142551 -0.7080453009532451
Ni 7.69806139929008 1.0153435689142507 1.7687727505691977 -0.5183806771721395 -1.5974988992160744 -0.058561759594292696
Ni 6.544110012373659 5.568991854147865 7.7035763829151565 1.9024332768064782 -0.21430633358918574 0.799378598551604
Ni 1.8648106865539074 2.0941345091866665 7.757478804492055 0.6750706457994374 -0.2696107625884453 -0.6787709774691602
Ni 9.316535531833301 1.1035628879252746 8.899285532920741 -0.7467123785061398 -2.1456267257436594 -0.2059286510484518
Ni 7.3220364134497204 5.1726778171388474 12.621195952821363 0.4929226421103511 -0.3298529952089545 -0.9026644405261487
Ni 0.5383708080826763 7.51813297021615 9.444066975789415 0.4845794123519784 -0.7014959298705015 -2.241746131876752
Ni -0.06474304909976825 8.11317946999887 11.440646974901274 -0.4365270369294417 -0.27967328903076993 1.971814238503462
Ni 3.0212030709348103 6.949798222155021 9.135949982529388 -0.8231260786801889 -0.9261059593785406 -0.3188473881270702
Ni 0.1998740699529086 7.913825156160072 2.075082663196774 0.4422284581895932 -0.7103842334990669 0.4008408963817419
Ni 2.3762507028383313 9.282472943640721 9.532106236432337 -0.9851752547368711 0.10079521434220705 1.1030359092017972
Ni 4.206571858677356 3.3842341539224146 7.074057058864079 -0.3719941473533787 -0.3077787890177345 0.8783063233967583
Ni 1.6753317388832025 6.712232552569944 7.053246395309474 -3.2609620211381003 -1.1052424299348127 0.8230674575281115
Ni 5.786602601494784 1.9675367699641138 6.282057332862566 0.643903990388646 -1.5711939427729587 0.8972257860090807
Ni 5.180975352246248 1.7760344859920514 13.151495690960644 -0.5318977378219678 -0.08858761653242163 -1.2938595862880105
Ni 7.256296546373963 7.313052057762959 9.453684320172291 -0.1904063870431366 -0.4526298560285753 -0.24679042225982017
Ni 7.086846771814861 4.0110878716168425 2.8256782458939025 -1.9372012764152833 1.163207179375055 0.1693336255332374
Ni 5.651456730466954 2.9155440780235535 9.075146870401758 0.8236778374186007 1.0001277622816453 -1.0516670678115179
Ni 1.5805690616498989 3.228195943379192 1.7055787603166614 -1.673227657507957 -0.28330291536355723 1.4212816591891264
Ni 5.370361486325148 8.535936099313243 4.261732832559136 -1.4079911127278073 -0.7703840110914668 -0.7120654778562318
Ni 7.287945981179601 0.18875592979054087 5.448775049361933 -0.15131559168926198 0.8965557565252494 1.1752887931299374
Ni 1.8506566138035854 5.4152832647589575 10.439816667337631 -0.7752873619303551 -0.5766035653697748 0.3009409401602946
Ni 7.644897773903953 2.863095117294327 7.498767414285956 0.5223766857054101 -0.14912681156805932 0.46131324273518615
Ni 7.126617395903471 0.09665236196246153 7.969012117847558 -0.3777379918156914 -0.017086008948009282 -0.7735027592261065
Ni 2.4592074911939896 1.0968431838785642 0.24314469458849974 0.9775146528678197 0.09948369461963512 -0.8750937299967316
Ni 7.781983449000514 2.7589582672886794 4.964158161109266 0.23715881270732703 -0.7534245004189928 0.3292454435319427
P 8.373605127245616 7.200840425270242 7.481841927684324 0.3169540277590993 -0.13302373535860962 0.21264360117478218
Ni 4.360902299131359 6.326360044639032 1.940341459429216 -0.43066337905981317 0.609209524330254 -0.5258129650804686
P 2.6283509809001333 2.004467298143479 10.10677272772643 -0.5449316881877906 0.1573538274635419 0.5654367501196779
Ni 7.478761444572304 1.051884280008033 12.33129548322498 1.1956023078763087 -1.8374270471384224 3.0564274222236976
P 5.661072218577993 0.5772309308356753 10.159547464162891 -3.4951833484836583 0.6068927032716193 0.14057737933615144
P 2.539649031211722 8.001710346240596 2.3449873725746038 -0.025785850714852367 0.09687222513871703 0.08524441109180157
P 6.496700829679465 8.232444935468797 0.9144208535928231 0.06251997291109232 -0.06161391615705517 -0.3619192796158799
Ni 1.5797244579644698 4.537665784724726 13.313270709613358 -4.9635133673108385 0.7452062262742586 -0.5785480906906553
Ni 8.861024985970804 6.741932901947669 13.549730969320034 0.534991289145627 0.5077833612722674 -0.34610390985017814
Ni 5.622665954288922 4.500716693827 0.5178692137887836 -0.44142704533422045 -0.40389665248893025 1.0738284343999056
Ni 3.3779135483204676 3.9515015456777816 0.7899132764577279 3.1616906996395873 0.5814531801525922 -0.13744731834760202
Ni 6.939468069387081 6.090799148636951 1.478043455597992 0.9631118471789285 1.4319669068171146 0.0904408676910765
Ni 6.449486555528064 7.204729314766888 5.696129768474725 1.3011260380424365 0.6670333773172576 1.8240305712268587
Ni 7.546181237659739 0.21111750846421362 10.289208051915024 3.3220925699008332 -0.8508317721255734 -0.25800351736682015
Ni 3.6762906832564375 0.4541489704707108 11.70889403352946 0.3957717093889507 0.09627495787435032 -0.5175653803596958
Ni 4.48108661916016 7.575241173254007 13.410438187010339 0.2143734393816953 0.20088388953569272 -0.9630586253434898
Ni 9.018269773207498 4.887053269716938 7.830928696639088 0.06948380582343516 1.0145979308733624 1.4189383557679305
Ni 3.0986931387331307 5.842977577157377 12.609894041747221 2.059778362519272 0.02088224276564791 -0.2311339466694858
Ni 2.770216555974673 3.3622558953828983 12.093869962163529 0.39965896025849884 -3.033140940891931 -2.4715266498421373
Ni 7.315186770374484 2.846537172516246 0.38136269550508745 1.1590903289932037 0.7965125898577186 -1.1050040886717614
Ni 1.9205266857146834 6.476671656567862 4.117115334487567 -0.4581459007507981 0.9188271663289401 -0.9226935912628819
Ni 4.479648008487176 0.06094326065125556 1.209840947493873 -0.21136036358698437 -0.058035711887493596 1.0032477959678658
Ni 2.2399353805537543 4.575543011540505 7.803244258475375 -0.6850624669048265 0.12557499239004824 1.9089695352630993
Ni 8.89209897650725 4.575988516781171 0.9254758805127632 -0.7970900596277434 -0.24984360726384713 1.0058443530504484
Ni 8.662738028437769 6.065396068559815 3.636777152817128 0.6536950083371387 -2.03554520100352 -1.6904982716629469
Ni 5.72661717711096 5.139543364864323 10.001291008775521 0.9651170505344152 0.3345236612117465 0.6927099561477554
Ni 4.408933332890649 1.1742218753667182 8.479846061377492 -0.80139845719511 -1.3038951161471415 -0.82284042911897
Ni 2.790904705588095 4.623045007826504 5.663120614549138 2.417263260512882 1.5398313693012768 -2.0004815245311676
Ni 4.950315013891492 3.810823984578351 11.98470725616162 0.4934936841224727 0.7773876961028096 -0.692255127998524
Ni 3.1737978972220526 0.9141971728365722 5.649889108901361 -0.20917081213483335 1.5569091507191704 2.2587251829332518
Ni 8.81373646094596 0.26761871061166315 3.7258085907564493 1.2433888312319683 2.3104467796772594 0.6182688063190449
Ni 6.008937560664597 6.181394495598193 3.637294124523484 -0.7610370226589279 -1.951364969510175 0.6941711140743142
P 5.369498319921358 6.0131698604509225 12.21425383141471 -0.2359318822787614 -1.1817895703629324 -0.20768908538298422
Ni 1.784016454887315 5.972109127436218 1.4756386554343146 0.03987061094269262 -0.8179545617815784 1.916652505729654
P 0.632837409958121 1.5602150409669766 5.7146859898843765 -0.4713153482532206 0.15738056693641927 0.4480448077610542
Ni 3.683539424776438 0.49300166813636537 3.5292312595844684 -0.6776582040209556 -1.247894689522122 -0.854220228981832
P 4.44372914845849 5.2475969484441585 8.193681338851276 -0.8032833329226489 0.6167202308850025 0.8320154107500186
P 6.483363516537032 0.9303820069755961 3.563382020689262 0.23778744743026145 1.1407617058873452 -0.09156161155908102
P 1.162833647652197 4.544487583722423 3.767607191826007 -0.14164130182429155 -0.925600994717664 -0.6981781783511782
Ni 5.702420673727294 2.001525107283248 1.6873622366530172 -0.2686165169959761 0.9398963282944136 2.228189219127924
