# total energy = -340858.92034731555 ev
CRYSTAL
PRIMVEC
9.39939292339022 0.00000000000000 0.00000000000000

0.00000000000000 9.39939292339022 0.00000000000000

0.00000000000000 0.00000000000000 13.75696164857866

PRIMCOORD
 96 1
Ni 0.6726562583051952 6.671312952843411 0.9357659382513508 0.7292659008949182 -1.1903847682311113 -0.34000731003413703
Ni 4.633928792395543 2.193771255958194 11.144610823930883 -0.3723720995180877 -1.0441419630790663 -0.3117945950453469
Ni 5.557033748698798 8.71099996449936 11.128295358106454 1.5105009957682758 1.005807586275242 -0.11202245051659417
Ni 3.8440226298461537 3.242893870003182 8.386890105899345 0.4433602578011913 0.2908151645802024 0.4656663774975593
Ni 0.012096078447664261 0.28482321699017543 8.671851493962006 0.3863437312068314 -3.8376509471328295 0.17568476456224583
Ni 5.661056827555198 9.086505702306638 1.4955467696684346 0.9704924559137157 -0.6446935761694768 0.24033978153846994
Ni 8.609213941102238 5.106022689444564 13.35593168597318 0.7714695308461617 -0.14616644338815474 -0.10887670579876087
Ni 5.200627576829551 6.422003461238899 0.6124587877867237 -0.05656529798955419 -0.36775465535073437 -0.7768904447514169
Ni 8.819750937876838 8.625832067371157 1.1066224588625655 3.2014088441648156 -0.2429525365709687 -0.13802016013193646
Ni 7.234994532225202 2.555798264653693 2.139881717871324 -0.38182707428340046 0.695414499563112 1.0459065111786567
Ni 8.92205392787169 2.4072502626435237 12.635066882520558 -1.235332536586395 2.0160981480225018 0.5020850253359095
Ni 8.032626995562515 6.8132437824026075 6.219521743996236 0.896074703123773 -0.7125300761974761 -0.7576994736452628
Ni 5.946328395576497 5.230799627351739 4.602873198960868 0.7157925489988318 1.2373876193432107 -1.056521824800658
Ni 0.010795202499916392 1.4682321345228038 10.728888844577114 1.3956410758028868 -0.4600176638522142 -1.3287905938372406
Ni 1.269716960993649 8.515661785698088 10.442826787630919 -1.480068904530664 0.9771750101402139 1.619323965510966
Ni 7.264405231939819 0.6137897417910668 6.929628942519686 0.3738324861136981 0.8500241886226136 -2.61180243877747
Ni 2.8434854765953044 4.9963223774057965 6.547212771209631 -2.318309213144472 -1.2307279479348483 2.2007493777494163
Ni 6.379029437878327 1.0602232968072 12.961988099472967 -0.5560663646483713 0.5658280720208255 0.7788018028415168
Ni 0.3348336257155173 1.8444522261742216 7.10702462062258 -1.7951375423415923 2.62548405002962 -0.6646715619533005
Ni 7.5397228431066035 7.024955703262963 1.8049822964070044 -1.5309358665838602 -1.48778298534547 -0.52128885195787
Ni 4.6917256580219995 4.07279444843167 12.487523675588527 -0.743039814750559 -1.705418897528521 -0.4249195345975005
Ni 6.037944276087324 0.7670703380186564 4.526040683266643 0.912070821441713 -1.611202364845096 -0.28223539333099135
Ni 7.502792629243153 7.253135360109258 12.69953261725776 -0.8907666606472981 1.3276824483747263 1.3265251948418317
Ni 3.823701142858936 7.375910227374306 11.196653381354945 -1.2367209322934896 -1.3724525535015655 0.13301602204912574
P 5.1891791165379555 2.885914335180087 1.0171825377585566 -2.004950358935799 -1.0879453334172617 0.8070798238506036
P 0.6028516685223226 5.465944234178389 5.258886892576162 -0.39746786614445095 -0.40790165988326527 1.893197102920191
P 8.075751409206065 1.8022113554431598 8.51557249146757 -0.9613537268372411 1.8420676312342275 0.6344937528183394
P 5.0565912833086815 1.3200225106493324 9.16048550232065 -1.862961186853785 0.7060087301391906 0.6744535810407287
P 7.011392379617007 4.94051818302878 1.9692122451745613 -1.3379195527217023 0.3410912871269351 0.39526263096301606
P 7.24171509799572 5.066037672958152 7.449326063827155 0.029552773956452328 0.45333948050109024 0.3051333809750874
P 0.14798779820608066 7.499126866095598 2.85492735731202 -0.7230787982475998 0.607745795300534 0.773399657989339
P 0.6059797864082367 7.6298160220022915 12.618724158457342 -0.6269866458080169 -0.5859832068124619 0.04038765978842722
Ni 0.4092880950601736 5.400439866549379 9.040414840331376 0.02165048839024013 1.281096373085071 -0.8527217900594347
Ni 2.1517747694369698 1.2918713295546442 9.081561621753782 -1.5108025861690948 1.2248226381940068 -2.177649301396843
Ni 6.054120630899999 2.877736863543232 7.942169120230608 2.5659640402871164 -1.0090939703359976 -1.8853089584213658
Ni 2.787972663391555 4.062530311618514 10.385047780850565 0.26356352795310095 -0.1244035977897664 0.28922468016463093
Ni 1.616479355967019 0.16746239991228595 12.726977903961727 -0.9743671083777735 0.2819592568514693 1.1771186472498243
Ni 8.697869012916962 6.194462963095254 11.13448579812948 -0.0067393756063625875 0.3501796225814485 -0.8932626875962745
Ni 1.164105384773309 7.751171580971748 4.722200368988677 1.4450137126987437 0.02166925744331752 0.6211116750844786
Ni 9.015756473558818 4.292439456719041 2.0497048843807293 1.4716295155140593 -0.9255909674153349 -0.3946730770081332
Ni 4.3573704613942015 0.5133619306370776 7.133741454393378 0.20732038918965584 1.4690964646795601 -0.6489960601995726
Ni 0.47467403034133887 1.8738535264961533 0.9252151199612713 -0.35604739421613524 0.31248236514099087 0.7885529686910097
Ni 2.3132187382123846 3.1267079770110473 2.5982910391087404 -0.7469813158968104 -0.6795075985248684 0.8663738336252305
Ni 3.9979846820434806 8.27765976349488 8.734583980687901 1.744882502840782 -0.09707379962656185 1.388601652457602
Ni 6.109050681757213 5.791802379818007 11.490804555646747 -0.17076238755996398 -0.42892762731562906 0.14492382923030525
Ni 1.8755454171796402 0.6075363258370449 6.344132312652868 1.6023163752093759 -1.5491814430576094 -1.55561742849094
Ni 1.7018164421635718 6.003006733473315 11.333686187385446 0.48465731677776525 1.307519086052974 0.8419681510873565
Ni 4.022968267802974 0.593844230511291 12.814100874768627 0.25065659008344576 -1.3746752721844968 1.094195942312664
Ni 1.1884874094008955 3.199186694013098 4.98352792408156 0.2971629611751011 0.024349375378641937 0.3071684091272452
Ni 5.729681793555972 6.295750818680016 9.160526859648469 -0.8606834681086726 -0.21229110293136985 -0.44809905803775735
Ni 8.460233567028512 9.470828070453424 12.881344130044553 1.009820564089377 0.16763926854994998 -3.510111944769032
Ni 1.508292346150704 3.540713627260344 8.311309589310902 -0.5019947796149483 0.0878895620241325 0.13839399853158746
Ni 6.33362097181207 9.20215582991567 8.63287879206788 -0.983273409728468 -1.1773325630328433 2.3915524860103394
Ni 7.666567647404706 4.556919568118821 9.539448336757854 1.3096770129362412 0.30178734732098994 -0.074790048527697
Ni 8.238971863199142 4.256392785768079 5.506842871633884 0.19147699439949603 -1.041278268378026 0.9711375456968823
Ni 3.809602053829877 6.436459727190028 5.266412046360605 1.1335888422879896 0.8029835422940429 -2.4811109510964626
P 3.5920625095041783 5.688625246303351 12.75135522889297 -1.7293352991348026 2.360230021747974 -0.16356201315678282
P 1.638389340318177 4.7506410513780954 1.2327557291343358 0.3784401600890386 -1.1943206129504076 -0.5949913238483431
P 6.6146910113027095 7.942035648854467 5.062025072220481 0.06848416091432721 0.7798785808454634 -0.9321585933305236
P 2.4776705126473324 1.7435591450822734 11.700226784448782 -0.6150731821998826 3.2902296597539658 0.2245573218932326
P 3.7002495193204927 4.253102998327965 4.727442410289681 0.019486647969701926 -0.24985260612491159 -0.802655983751295
P 0.6597725107504407 7.655410568286378 7.506967839474292 -0.43549808144429514 0.7769896893334425 -0.21011903498071557
P 7.601796432405208 8.455477474329376 10.38687690266727 0.7198533493317667 -0.3176220003604014 0.47082272488751814
P 6.868606205323381 3.5886411305664594 11.49162982232458 0.7391733898166173 0.05682780762232148 1.706884169220138
Ni 5.0628136812668405 3.4495207194203883 3.324396943923099 0.5604069010052543 -0.09900984030701014 -1.8165581741092136
Ni 4.072221085477821 1.8287834385665935 4.786102140164718 -2.034507246657309 0.31055943708666517 1.2126957730234857
Ni 5.236984427739153 6.922229740597237 2.9377444663294456 1.366833150432259 -0.17961880950932937 0.9620139861290594
Ni 3.2692779652728947 0.2760958808811877 10.497964565066496 2.3814557638959695 -2.001270081870734 0.8498370123124718
Ni 6.998919385522633 1.5481551705321976 10.63840935064203 0.3300697392054509 -0.43151981352283747 -0.7294595049629631
Ni 2.9543607127198266 2.166315629922273 0.4977157015718962 0.822126690881397 0.7737429002613706 -1.055802687246446
Ni 0.695236419354868 0.9683536326938498 3.4266660961042836 -0.2179914957502568 0.081944143073975 0.5108941389871072
Ni 4.393529925057396 1.2993814443107896 2.4858414047093063 -0.8546542311954572 0.11143649610613712 -0.6000342855888892
Ni 6.240238005476267 2.975311959017009 5.259259108526529 0.7388838836006565 -0.7248981108445257 1.0772621426718028
Ni 1.559876213211689 5.790524062412706 3.515426441117092 0.5861575276067968 -0.6345971111654233 -2.5027709525683997
Ni 7.751744943925597 9.022157459978013 3.077129940349263 -0.4807633810399978 0.5502698125712522 1.7957499791146103
Ni 6.519409367644327 4.078058108335852 13.688231235420544 1.827602090628201 0.30011972981057994 0.5699449224026765
Ni 5.518110863585909 7.54390557285189 7.004068372836046 0.4783401163104859 -0.18550483597646117 -0.9892957046631478
Ni 9.089334919505138 9.20419549812854 5.599716390886104 -1.129467106810132 0.6826266037698243 0.2258703842777013
Ni 2.7740897603942742 7.662713896403431 13.620918424638738 0.6490487678143789 -0.6204640141981508 -0.011685406757728261
Ni 2.9329676949664005 7.970074037236922 6.751916504883274 -1.1374971762034602 -0.6889741432544071 -0.05929915198094949
Ni 2.172077457638815 7.087029292561567 9.154790410292179 -1.2605596865843 -0.5978341926137769 -1.4715837498777882
Ni 7.755843079136709 7.423311364690004 8.439896101073728 1.5515877385062569 -0.790649189098406 0.6231029944828945
Ni 5.586670033837882 3.8098088404689694 9.877154416878225 -2.1616866074199996 1.7756033289634068 0.7733245817770295
Ni 3.533316305216431 5.089103782609693 2.3177313866409524 0.9336308070006759 1.1776614071271718 -0.13221486630406906
Ni 1.8679037109258902 3.942312079164069 12.70907958040897 -0.10357843351429903 -0.4492884503601681 0.7027480571100477
Ni 5.259458375651473 4.8341828535716145 6.713493667461282 -0.9308357607540421 0.18649291092134335 1.2698465112028647
Ni 8.225511932872733 5.732539208932528 3.7391423263767876 0.24417458190352784 1.5542249190187878 0.1484135875511186
Ni 3.3243772051984584 8.018339918679736 2.5676960159156814 -1.2398422515312906 1.0441303931148405 -0.05384532795522985
P 8.402577692292345 2.210304787692938 4.330705324283176 -0.20487089920789878 -0.14889001296690485 0.43781875915767177
P 2.0851330752929496 0.701924087250985 1.765004799434741 1.2776865760725737 -0.6313618920575772 0.5894662802650558
P 2.737215942886942 2.4711943310866507 6.882456210446261 -1.0048261961985792 -0.9384745082462225 -2.0072216714684785
P 7.847346166935305 0.9581458922368108 0.9670095195397461 -1.3341821971664571 1.1467526333634572 -0.22754083000158878
P 0.4445715353250287 4.2749565863230075 10.852316029694574 -0.178608365966944 -1.074525203356614 0.6312143107361193
P 3.517788508499094 5.613542897527267 8.806793875059132 1.9666046692780645 -1.9490306649500435 -0.3809575271942536
P 3.663685881771799 8.552573200776164 4.71860980098261 -0.3066030235420784 0.97607149266339 0.031578289026913356
P 5.466564594095668 8.339159989839636 13.29679070719262 0.008660503888475406 -0.4484664686795051 -0.7462380099728826
