# total energy = -340892.42575882765 ev
CRYSTAL
PRIMVEC
9.03114106653168 0.00000000000000 0.00000000000000

0.00000000000000 9.03114106653168 0.00000000000000

0.00000000000000 0.00000000000000 13.21798783260306

PRIMCOORD
 96 1
Ni 6.1799194151051795 1.9972909996741166 11.540585204119557 1.2278333999958724 -0.37325707322620233 0.47963029587681905
Ni 4.426866590272293 0.23433643194461878 5.799735476106097 0.035100443247558906 -0.4616022347305147 1.15529975160252
Ni 2.5340658909573324 1.7700855565941125 4.549842732965517 0.3310837822922621 -0.20508044411554358 1.6678252555454631
Ni 3.3269187828182374 4.28269345674303 4.749725362328443 0.912860407222544 -0.09188119968202886 0.1539815685571993
Ni 5.052724655517713 4.622860410358239 2.3308995387585725 -0.20442301303720276 -0.29583704327482596 0.5859973478798488
Ni 7.5280971616838475 5.879245640700913 2.555975438811378 -2.8109248655373653 0.9741205395846061 -1.3024969502480341
Ni 5.2438145660881 4.334387707326937 11.882851897996954 -0.10745385730930526 0.19488884829452244 -1.2736995664003676
Ni 5.560527646753204 7.804567478442261 12.539085302587923 -0.3705725844155037 0.7083666888484058 -0.3016667625827256
Ni 2.1198616441403626 6.463470146339097 0.2506502848891978 -0.5745641663422428 0.323253744724882 0.7196062663179671
Ni 2.7905773862988283 1.5236437833702012 0.4678537394084618 -0.7065198654476542 -0.10663804627622925 -0.35203313085041954
Ni 0.46294712055062864 0.2087719813632304 4.604948948586216 0.5790029188398866 -0.693916831971663 0.3951587583953001
Ni 8.662173650646741 2.485162262915428 1.3086945016227305 0.08686472030404395 0.5414977228055771 0.8596023192293517
Ni 7.040731642333644 0.6190016230645503 4.779902016573912 -1.3012705340401007 -0.0508186253137641 0.17677671207484394
Ni 0.9441696578520601 7.432945061028353 2.302877714734857 -1.007492944397465 -0.3153781986315472 0.7504664462319333
Ni 7.643442893419988 3.7378808500475715 3.875686126119337 0.7309990815359411 0.49741744465691107 -0.7648360846900439
Ni 7.814357235191555 3.9443417624512596 12.576215032222027 -0.5671904995859909 -0.7240141655776757 0.16767192156009833
Ni 7.576124769057227 8.574526428089644 6.944638496795053 1.59307480200645 2.05939398259666 0.8287321120130566
Ni 6.973738639043737 0.8407170355837654 0.4946419095835118 -1.799239480325108 -0.6943516055162364 -1.0390457795030814
Ni 1.7202517210382071 6.665442581709208 9.166886185461928 0.9348693073934673 -1.884572594475974 -0.9681931183565777
Ni 9.399340527640355 5.137509006405506 1.1795600239411832 -0.4159772378025481 -1.0677796571026643 0.595071285156659
Ni 6.2594295796999955 2.0328827260108007 6.893418381109059 0.44525104706600094 -0.1860997892479827 0.3426689160267002
Ni 3.223783153595976 4.1553272764521765 0.13973161842843002 0.7320393498749973 -0.11915571912726576 0.9311589484214158
Ni 6.189058929708764 5.672369295815243 4.592854444676019 0.1357719875277081 0.05882504055800837 0.7377399998042004
Ni 5.331967532536305 2.764658011879573 9.383674207499213 0.5029563721972693 -0.41449011173406036 -0.41616210011984456
P 0.466605635734336 5.4573739552491185 12.291300598710302 -0.18806308362194063 0.18525055387380998 0.017141287665976928
P 4.09790728252966 6.080477522516185 12.887947438673812 0.43490209973150906 0.03753244972781923 -1.4964175210920163
P 2.4890817780715104 8.566669335495654 1.508066871524093 0.9199815916483576 0.3338970833713411 -1.0248954561446286
P 6.1171981414669485 7.679377803111352 5.696979154802166 0.2448029595161461 -0.02078891172089323 0.33621776108471774
P 4.554178583717671 0.9569125976797842 12.595221971386753 0.7098142199282098 0.33202712004213786 0.43594159673961697
P 3.8380452339095767 6.012554311712278 8.179449234611539 0.5470243090507612 0.23575781859474237 1.878225054991391
P 4.807556273162484 1.3047379587889059 4.052436391148647 0.33344508343558704 -0.29568097731293597 -0.6007189703607396
P 0.25280330888276936 5.724406729753831 3.4437483310063235 2.5331829892013533 -0.9769307553398916 2.3526013015581224
Ni 1.3279208975116332 1.1341306758083687 2.4945519401222915 -0.25065247631838766 0.5821304087252749 0.05815552529480952
Ni 2.0609063562626986 6.476005369925832 4.691896257722584 -0.8033764068570873 0.40869690209105103 0.09544834820799691
Ni 5.809263329768925 5.566154047541774 9.401664240197176 -0.41906796091272985 0.4676540973515494 0.4154969557320199
Ni 8.486021247145848 2.0875572530958766 10.24745677697384 0.3404400266961814 1.203986675285262 0.23904008889043993
Ni 2.367784524473946 5.051532544917246 6.965707245430133 -1.4140897694263777 -0.22088810057176153 0.20205579835660684
Ni 0.4307935495593837 0.024777838207898074 9.124046065428766 0.1047608838581744 -0.11187126965071056 -0.47709390260821055
Ni 1.2961944994855559 0.9632253651777143 11.51808863210619 0.30058355682087584 0.6298053462037347 -0.6409119976398574
Ni 4.122842262589438 7.0098541715533536 1.7706283281629616 0.5487492621616679 0.31096412872425155 -0.3346002800859528
Ni 5.480854921621962 7.898310721115386 7.943402304578067 -0.7248914259763064 -0.15596157510170558 0.8240064244026132
Ni 5.54864266531218 3.242649206962465 4.847392635728105 -1.068810412360024 -0.580511127954297 -0.45061668225328844
Ni 0.7029623339011107 7.25933040812391 7.130720639729386 0.08654641773267675 1.3718090063802957 -1.5724159881055177
Ni 5.309633521059365 4.446075826993462 7.365948445282082 -0.5514964858895018 0.07622343854011389 -0.268610346348389
Ni 7.946446702179715 7.008942026321178 9.27952979983701 0.7462986880074889 0.6253041158992714 -0.8221130640346422
Ni 4.592985396219252 0.4078806419499442 10.503158178975474 -0.0962973264718535 -0.49909843190375974 -0.7096509548774681
Ni 8.260134350639087 7.118245924786768 4.958358264121618 0.15007323464172864 0.7018705396011009 -0.9303071419440816
Ni 7.134583258697719 6.322448880988344 7.043482527855632 0.09109521344562375 -2.3603770888487996 0.4242225085304759
Ni 2.470685344032478 5.282088541275837 2.5522609305540125 0.25962536924095936 -0.455602565503654 -0.628526479491311
Ni 2.5187761693922455 5.197069380724316 11.254931120167088 -0.15981257341667962 -0.6117652008725722 0.26524734341342704
Ni 1.234629211884141 3.653060374596129 3.8369307911209583 -1.8072834336755068 0.17260329742344468 -0.8168387030095804
Ni 3.7659135114403823 2.561213500540705 2.7180013316967324 -0.09543446425092596 0.8922165057199473 -0.6548000684758595
Ni 0.8879905426909394 3.166092225446081 8.330808446964982 0.4556053937171315 0.41841258671691806 -0.6209381256210919
Ni 3.713704485824455 2.8233152721071204 6.811995420868948 -0.2169003195686071 -1.1165372861223417 0.26725280387923006
Ni 4.0764673540030705 6.579854459280191 6.100682894080018 0.8511248778859599 0.6393145712457506 -0.7236616673342634
Ni 0.9538871654740524 7.299618327735162 11.273317619951117 -2.061043859495257 -0.29676161197162443 1.4513363124826617
P 0.11790244772850639 5.444802607098733 7.951531234513528 0.4095553934366043 -0.3393318812336672 1.277373415707529
P 8.316913133556806 1.5438916012963229 7.804085215517527 0.5009655670194856 -0.09850564697708197 0.35894091371384634
P 1.6895819664989078 2.861255095081089 10.402953154979363 -0.9126958566202217 2.117904834348359 0.37380908907493043
P 4.273066260530164 6.022479535575261 3.7853015647516215 -1.6770840551395698 0.6940608137486949 -0.1276035927843028
P 6.958521166605952 3.811593022176477 10.509159372111919 -0.38186281261734234 1.2044232486020483 -0.09729002940242601
P 6.109557796254862 7.707663336449717 10.286158828240834 0.6622935486394271 -0.060278742285399416 0.0660333853809895
P 2.248934710063704 8.44345748002461 5.742726399095105 -0.31357611242580186 -0.14615873007867086 0.043569914171150775
P 6.924862104424571 3.907043150482088 1.52628087651669 0.4166997177908694 0.3633760666670645 -0.2459175327365636
Ni 5.16733886483993 2.7464692940815323 0.6838443117031593 -0.04639324255255881 0.24703004907445197 -1.3150539609774385
Ni 1.5285928485903237 1.2268804929811026 6.92831380648138 -0.3392182384739384 -0.873896881475153 0.16466938728834865
Ni 6.7687949583133715 0.8211438438838173 9.19363913418742 -0.4821088393242987 -1.406396771657494 -0.3945051839717012
Ni 2.7280457666197617 1.5344630901835348 9.219824024149506 0.6012866699387516 -1.9080449665663008 -1.2958329079642972
Ni 6.345975003065751 1.967190207012313 2.5619630852364534 0.42243019251674346 0.06120382520283008 1.1366456268364427
Ni 3.900974223788799 7.069206829631174 10.565864099674155 1.330484950820528 -1.3118205416418054 -0.5001793236727644
Ni 7.936458260330344 7.113910977148704 13.397752633849636 1.1975550607273053 0.6575856016407965 0.6961968862550914
Ni 7.596399680406087 3.8850884469234788 8.408781511376468 -0.5646322519405115 -0.18160318692920982 -0.5860814229532229
Ni 2.812902366634855 8.413248313671856 12.365995358970503 1.6663085617906206 0.2692415521744847 0.596260934589386
Ni 0.26756651493264944 4.86981695861417 10.156027312602532 -0.2944813005778799 -1.0431086367185454 -0.040746328679426604
Ni 8.665171989429735 2.389657947764341 5.740029700418594 -0.5242389357251294 0.4352620541740891 0.25007269255551773
Ni 3.588361281098031 2.6757644918765333 11.374805065956823 0.09733939458312268 -0.5453044981461771 0.45871668565260354
Ni 1.111986318290594 3.265895363671581 12.709161554482797 0.06573308053175131 -0.07584882880951453 -1.052153263419317
Ni 3.027473243578087 8.311918912632121 7.814620041392113 -0.00016275083010939715 0.21294853400971067 0.44877242995569805
Ni 5.7277121273278535 7.884222141291679 3.61686446493239 -0.9307087482578744 0.4320612878486043 -0.8451534907938736
Ni 3.0596602297907087 8.717453264172963 3.6852672293187583 0.706933555946305 -1.1012677615577808 -0.5163232804224785
Ni 3.4882420529405884 3.947493630629768 9.238276451262195 -1.5070454331195078 1.7283441388661267 -0.48239423177520147
Ni 7.4232094911245365 6.0839906363312 11.399073547817249 -0.6396619272828403 -0.5508591094158191 -0.45931498135823473
Ni 0.48875631505074935 -0.10503849061255291 0.3885973498732917 0.5976575578265966 0.18621780288308576 -0.37884999393294755
Ni 4.702587322334957 0.4447267937593929 1.606196539338482 -0.20526350666062712 -0.9394556412125691 0.3003801825608181
Ni 6.134285060073649 5.624639716091981 0.3316316223386807 0.025534653935994734 0.38999778301965093 1.1908072004805106
Ni 8.010025934204647 8.779596544792787 11.253900666988956 -0.8438185740325338 -0.16034144933695613 0.2169275732621167
Ni -0.04164530009042148 5.008056632563834 5.805326655445108 0.9953244273557309 -0.894383431464279 -0.2879242161856525
Ni 7.9624589150178124 8.877819233358576 2.343059969997432 1.2299568740967786 -0.2310331594255634 1.7449370102278015
P 8.31795171476176 1.718120371782826 3.449815451471429 1.5329937775541533 0.20018094993139715 0.520339086450091
P 1.9682739439218289 3.183061739220917 1.6312055747537437 -1.1699720089027141 0.5798560108688013 0.5785455195874939
P 4.656149195762202 0.9764559866147207 8.056509216481967 -0.025266744986588742 0.6527845807077274 0.0850531210166019
P 8.458322737966803 1.5798445732695123 12.501162638781688 0.5380917824478216 0.4090476005622504 -1.0708151014948784
P 6.379616002965307 7.871551450591255 1.4875390882296797 -1.1659358911601276 -1.072259547250889 -0.6113425115128568
P 1.6981073635204327 3.189347413296109 5.964934008794059 0.05097829082007995 0.4228346270440137 0.3699514058917371
P 6.9865267345760245 4.2333202093736695 6.10267877622171 0.30056658754001137 -0.9040942309941398 -0.22882586736159946
P 2.313606710139064 8.404162985913747 10.167818370178065 0.49252206423782274 2.984060638425513 -0.9602203845637463
