# total energy = -340861.21556223725 ev
CRYSTAL
PRIMVEC
9.31453613950332 0.00000000000000 0.00000000000000
0.00000000000000 9.31453613950332 0.00000000000000
0.00000000000000 0.00000000000000 13.63276516790760
PRIMCOORD
 96 1
Ni 3.1693081136398926 8.699199071977446 12.972353280006898 -0.6811158235522529 1.2066850480530316 -1.4728759863266503
Ni 4.15586650285584 8.342638635979236 8.935786422088924 1.0827733022980193 0.41605051424264483 -0.9507769797626592
Ni 7.452774444414737 1.421277096333828 5.656929119739037 -1.573214315637097 1.8234451310370339 -1.9937874003404437
Ni 8.097116782988724 8.433259756194142 12.662575100795548 1.312413695141114 -0.01618483728997858 -2.001414063647766
Ni 3.1039293858376085 3.936937649990063 11.790964605323673 3.1033639388742356 -2.8429505265143424 1.1671211697174804
Ni 8.53124867434203 3.045843939680742 4.311116530729407 1.7175617035386421 1.0476947134273311 0.7011529447087861
Ni 2.462018141145428 1.6351015835014069 1.267056324682251 0.9813178286639936 -1.2066459672849799 0.28217137286227534
Ni 1.0226242723973753 2.9279498582170707 6.009527152145982 0.2863242186883843 -0.08542027454803354 -0.2330332205747277
Ni 2.9093301008617827 3.6272945315499245 4.829202197467748 1.2925735204867352 4.197431840249467 1.1147704240299061
Ni 4.122427318811075 8.603277980809485 3.0434463781283405 -0.4543113574960563 1.1134331932757213 -1.9830594723999784
Ni 8.901594623539754 9.118586052928842 10.092472015990777 -0.3667215861005297 -0.714089450264796 -1.29092750024288
Ni 3.195044176457632 6.440554508668615 3.507437877362511 -0.30141787979671314 -0.5033052708962558 0.4737167586058616
Ni 5.9406713080752 2.7019792161764076 7.331223476138816 0.14554089398901385 -0.5760078407673047 1.3892058617005043
Ni 1.181008641616643 3.430739194025519 2.3573367289206137 1.1652465784025867 0.7189886873386262 1.2174397154663743
Ni 4.850404875640755 1.6135663763951409 5.426644916101959 -1.5775602513106186 -0.2894851329148692 0.2070699637417466
Ni 7.143718141739172 1.3833296768913852 1.2815450853456578 -0.13502482494903842 -0.7924913845134675 0.2662392750130511
Ni 6.452533001894678 6.28069844276994 13.473970847193389 2.2618495874948468 1.3796830098117336 0.538554323906537
Ni 4.5280660447067405 2.721493168982475 2.9538517197746414 1.344327256020259 -1.0550956338770925 0.47038126647472533
Ni 5.360534065774349 8.873865250029652 6.497743896467513 -0.9494736875702035 0.395274458037558 0.41524627317379453
Ni 2.4442739501690283 0.8061293077741881 7.403614186600961 2.014232555568673 -0.306142281855576 -1.523427731132273
Ni 5.251572624282524 7.486735242472455 4.751686629328325 -0.37422020847042003 -0.4178999087465577 -1.2360393328454327
Ni 2.0247379366425027 3.6749476974476996 8.113403249089634 -0.8428870633572 -3.3300053969900074 0.9878813408141244
Ni 6.324057607596787 0.14779001603472325 3.380094199182011 0.5882172383493032 0.39051508897570164 0.6716225393498368
Ni 7.4470366902722365 6.688498141004989 4.99235933490555 0.3461129087112426 -2.537458476648256 0.40790705919990394
P 6.628000230038207 1.4174953947399076 11.58167443425442 0.3890727001022202 -1.2262719690460235 1.2311537226183569
P 3.7038320734150574 9.164376311637493 5.073705971679405 -1.438262252907523 -0.5980151982763313 -0.3953469631467062
P 7.633429869079974 8.332439219118786 0.9949740724428119 -0.8210985067271989 -0.36476034860910084 1.7685680193831799
P 1.899690291572597 1.8259377959552037 12.682943196547829 -0.578653763030584 -0.833763246679061 0.15178636067809342
P 2.9831384836948502 8.070831162550194 10.877528117641603 -0.895385133255916 -0.5999553527218376 -1.5342734155975255
P 5.954298474163637 0.252925046160089 8.310506281327642 0.7887846250858416 1.5925477258583864 2.4914583557690575
P 2.212761159240723 4.285254721676402 10.10636371490007 -1.060825337272018 0.8379034940996796 -1.6259514981298127
P 9.04412565257958 6.936832983851077 8.404163008807224 -0.039583932940209246 1.2808714015584588 0.45405810383466966
Ni 8.470964997701998 3.5200562792080383 12.748598566067697 -0.4986096651927993 -0.282434653825991 1.5732325704695422
Ni 0.023409291738524098 5.100816860002716 3.3918724298852436 1.199093608859019 0.9901989332037076 1.4404965415546804
Ni 5.835212132098926 7.36304751965061 1.9546935577850588 -0.616687320764538 0.922785636756056 0.46705554453560205
Ni 2.1753632974190715 5.443945735167348 1.1998631252777605 0.8726380693673874 2.449040810034795 1.7796520451114834
Ni 8.859064452412067 1.4259250497706908 11.848780861391713 -1.4272941839317934 -0.22599739677386885 1.095304087775178
Ni 9.192003225252193 5.0486834023151 6.4484476464289315 -0.3179320754016524 0.02632064017239983 -0.1341704473685431
Ni 0.6110587072795141 7.61178288754236 6.529317378962371 -0.10065637477149761 -0.00032627299116718 -0.016582586949029504
Ni 5.32096591707737 4.842673810805893 1.6860185627945263 0.323891635419197 0.9878695137395825 0.7168351313307332
Ni 0.36864697784124273 2.88723602159878 10.360997046952585 0.3614104583002615 0.7380814423040192 -1.2159227646012156
Ni 0.7307896152316613 4.930016214367942 11.867335416995381 -0.23767843265622293 -0.4166809487377921 -0.5721146763604856
Ni 0.8206972419931328 9.178031421333769 0.6753290053042699 0.0655811283349193 0.3750617305351089 -0.24235346953438908
Ni 4.289409004708148 7.1283398428929585 0.25487830434788483 0.7828199228619744 -2.0980577177154447 1.6404522628491491
Ni 7.319176055346755 1.846122395349355 9.511812228223379 -0.7941929405856064 -0.891026084956272 -0.2673376502835525
Ni 2.6674688604978973 1.730547633336142 4.203649140803259 0.9232862305415582 -4.343178165381069 -0.4321417633775525
Ni 1.660055225299714 3.715121290981145 13.600359785439462 -1.1509738705336565 -0.7103212414716155 -0.3201020864697777
Ni 0.43943279375995753 5.0454885164857535 8.943843495681882 -0.9842082628379114 0.06162857144507451 0.9917444233139564
Ni 0.7601760446864877 7.055556059013909 13.467931302086251 0.16481953971296776 -0.29793763455759653 -0.8894019190892876
Ni 0.7221904356466678 6.860612136208095 10.77311496405202 -0.16129224328599961 1.6226990526307858 -0.7207532354382167
Ni 6.089238156407787 3.0500727390000524 0.16898803693975792 0.958812448472626 0.655009356273188 -2.4332601501617708
Ni 1.9932827487541545 7.691319709981983 8.684207326372976 -1.878972731790693 0.2503056345019302 -0.25649222292861634
Ni 6.45195550066605 5.69308162810476 9.513883781017684 0.18198756685182205 0.36675423911067806 -0.2584624592811097
Ni 3.9379529344081354 3.3569028675846146 0.5590305038480824 -1.740266087114693 0.857865281933587 -0.41198431459307105
Ni 4.672385464648127 4.133651334625544 8.89531103759084 -0.8872121105268204 -0.7418329389266515 -0.5930285436950175
Ni 5.397205393792243 2.955455682864477 10.961684018456655 0.35632533046787024 2.2319741400916526 0.8446498116845776
P 2.588686515469871 8.012810918144947 1.178883995967448 -1.0427581953576621 -1.0465166339588299 3.254162481717763
P 5.860305491936417 5.685499595845028 3.674153167531539 0.26939119037847153 -0.04701519240727387 -0.4438485102915195
P 1.4860131211558647 5.985064386392009 5.268272655779421 0.4006048691115359 0.31017042917836257 -1.0283091098118677
P 6.905303279675165 2.3132277439501454 3.3547102258230166 -1.3309719177592756 -0.8335812125752419 -1.1867176037921692
P 0.9152500278306833 1.1379009692603286 8.624946385779774 -2.4959991810622046 0.410070642510126 1.6524863111955477
P 7.933236837561542 3.899083375907076 9.847246365243334 -1.450506874602831 1.4947907841218708 -0.005316270006590844
P 0.03503662695943753 5.292184001005413 0.7265077230574614 -1.036441252000699 -1.3956665297241835 0.5750071674169323
P 7.041984780141146 4.556577839236274 6.548375850960697 1.7672469865789113 -0.5251935863289149 0.7984044075637927
Ni 1.8724918466113962 8.661819839227686 3.6564033878335715 0.601425509509461 1.0731113537282229 -0.3912393687362359
Ni 7.777153158720841 3.8976861955152335 1.6319784195988414 0.717764328013222 -0.05646836740037372 0.5772622819996961
Ni 8.704890253440219 0.08712723778170482 2.4785458537273306 0.9032411389652251 0.469006754724702 1.2088740852845503
Ni 2.7167893283299382 5.916276538433629 12.549450993189627 0.04912966764711539 1.772477381739915 0.19153150178651532
Ni 1.1999823513378645 9.215410654083529 11.774223589868615 0.40933350723378537 -1.4382496545020327 0.07444320671123954
Ni 2.3378740060622474 1.679336314707141 10.535373542936883 -1.8739182000859211 -0.09254788673175028 0.21175374237066114
Ni 4.631056868657426 6.741488535999602 11.556276489091507 2.093001129128144 -0.10304158717422253 0.02511273590722772
Ni 8.323711498937744 0.28946131340677084 7.259897417135256 0.2761866160337501 -2.013960018633577 3.7362463813413975
Ni 2.962618561006656 5.096783665938264 6.787753836041481 -0.1314779881380445 0.39046983756006304 -0.20176732058191058
Ni 6.042218378954314 3.3920279826355357 5.107215014743761 0.98266560094114 0.9592536497751029 -2.7618990704579662
Ni 8.472697501387884 2.5567190281045136 7.462984107264727 0.9905172357750749 1.8573109305465432 0.5880205489574647
Ni 9.236582594287915 7.8731673952482595 4.204426904554718 -1.0926432531135635 -0.8013483206834651 0.5113584802180354
Ni 5.816769350926605 8.949322305725094 13.258014262747858 -0.23452214641542835 0.9329281245066965 0.8162743458656782
Ni 5.155483871467541 5.313532917392767 5.894384584600646 -0.28326203482329276 1.1738381767263397 -0.9639163453580947
Ni 7.059784858333219 7.485086569610081 7.4238993829833255 0.08311939432899879 -0.7230173488820452 0.7621629087332551
Ni 7.670063938954086 5.314203563980852 11.668474731824434 -0.3125402149621198 0.6572742410479648 -1.4348388290482708
Ni 7.700736705823002 6.294968311838625 2.4790637419259065 0.5575825441825816 0.15087747571057886 -0.5992863516792711
Ni 3.179777652042766 7.280557989316229 6.309052821641993 0.18250204459439537 1.6537114418519 -0.2674469221679071
Ni 0.5180689005736381 0.6247929905313261 5.637011847526525 1.126429091314757 0.1456257403933363 -1.40710433924748
Ni 0.19396123926355108 2.188785543716705 0.8182903659047853 -2.031273827321676 -1.8365148197367984 -0.7511974108606869
Ni 3.5355649815574903 6.070525253693043 9.614738781876039 -1.0434331099374998 -0.3970652313893936 -0.26516223989878845
Ni 4.17435585670789 1.6596826438618897 9.590950388524528 2.521759063635128 -0.7300560008963813 -2.57034237186047
Ni 5.032494738841618 9.028505175798783 11.025511876023995 1.330157135167464 0.11392892351068766 -0.6925477195382782
Ni 4.0088458674902245 1.3317644058964506 12.280285122154762 0.7543141021127976 2.449910357123942 0.971982667305997
P 3.7098120054921435 2.99831186275026 6.986164629126254 0.9181908182965218 -0.8521695171003905 -0.41909135795149766
P 3.240862378774121 4.353865593451816 2.8040003969351535 -0.6513848721467234 0.7516954335430279 -0.8120831906024658
P 4.832167014259238 6.156582251294597 7.791206930555588 0.013841533868782615 1.3118310831647666 1.5237869142439047
P 7.1470713746795935 7.409433908659782 10.985868279585855 -0.683853791308706 -0.3227189552673346 -0.20448471951307368
P 4.823197116143609 1.4436040389954714 1.193051405140731 0.22718087555900876 -1.0653810749635004 -1.012771933408217
P 0.8087140914990968 1.669760971755047 3.503183928796148 -2.4385206272297615 -1.3782732739484005 -0.4910933022110962
P 5.0564051526140155 4.977948816344086 12.872792999644984 -1.7329523270620992 -1.9538193445879384 -0.3513525598436272
P 7.286714897576281 8.710488289543534 5.460412903265604 0.5662281356727216 -1.0980551681577542 -1.1689589942571674
