# total energy = -381175.55696917145 ev
CRYSTAL
PRIMVEC
9.12109957390492 0.00000000000000 0.00000000000000

0.00000000000000 9.12109957390492 0.00000000000000

0.00000000000000 0.00000000000000 13.34965120129317

PRIMCOORD
 96 1
Ni 4.765455224416356 3.43241566082219 11.162724394467919 -0.49747940824309816 0.1175858035369846 0.5873911429035819
Ni 7.055133940580046 4.18529857276653 11.853315669824871 0.20244943425059972 0.15172105465779678 -0.16380061153015016
Ni 0.22822450201115158 5.287391898273508 12.11763874713135 -0.5828220354756608 -0.8412729247925448 -1.5903049525707966
Ni 3.671324618729682 2.760747018385288 9.078377132804519 0.0515570461416854 0.27284958124071723 -0.6860245737077798
Ni 2.012461140564011 5.547625986696318 3.2094430878746487 0.10346273387204118 0.8369979515662745 -0.6089387871673706
Ni 6.474785745841759 4.464440700350268 5.728241998015532 -0.4372286909821567 1.0331980624730528 -0.4014073104081732
Ni 0.9352684165569537 7.747507478769631 6.304959995172512 0.28211043771735284 -1.2017547006309497 2.196368475072901
Ni 4.632031781654137 0.9105420280565367 10.553352861278073 -1.1007699959857558 -1.2451454089117586 -2.424013434752522
Ni 0.7593415624652532 3.3064259141121464 4.5388679597565735 -0.5688079805847559 0.8336038382830611 1.3943992329759856
Ni 5.351558832907923 8.87165562274797 2.7197914576325593 0.35404630462570635 -0.32010620023483577 -0.5436708191974959
Ni 3.9873798357896786 4.300042003854081 6.525122357379348 -0.11956375319896181 0.2542929012844524 1.2928182895076898
Ni 5.361509952408441 1.2384720044911666 0.3878929963322986 -0.24784483166626345 -1.7746633336476405 -0.8790755974626151
Ni 8.303703002162939 9.139888915388886 5.645406909135736 -1.904830059173429 -0.685900903645722 2.2245302822190975
Ni 2.4264587235237003 7.572017525341611 0.4087912593933319 -0.47963389542124496 1.2229372482458358 -0.8735562103062827
Ni 3.6017944776183617 0.38038815570441004 4.33172140646563 0.42660694960225237 0.6510051202098014 -1.6625742915591688
Ni 0.2694345414385496 4.210755561332933 2.4495943922799466 -0.930249806343585 -0.8626606464397013 -0.48073998400123014
Ni 6.263832957750114 6.202302020856901 10.491143314585743 -0.49181603930973355 0.5282436860091483 1.0002899988911227
Ni 6.877007989410826 1.6467962635926316 2.073881712153873 0.8814813786906303 0.6157375552567589 1.4590190258389002
Ni 7.611986183133793 5.452638857018595 3.7955995987430278 -2.8023445800675217 -0.9138271420111874 -0.8651494742998261
Ni 5.634741607548243 4.270124797656373 2.8060433103665194 0.8318418612866318 0.5278042844788845 -1.557651942422466
Ni 1.3362684327996506 3.3591458689361566 9.622334877065063 0.36086872686417854 0.9178822859171676 -1.6938587034947472
Ni 1.5791359478686684 1.300632297246466 8.219273545099194 1.1208742229347985 -2.9029402768044132 1.6307936567134624
Ni 4.155025643690251 5.318175608919017 9.545200475341844 -0.45641400566135587 -0.843816774260321 -0.45967493580081475
Ni 1.0085108451446358 3.1868939058130707 13.236592424972617 -1.2434104284985232 -0.7678285916594647 -0.18853410972108822
P 2.297842100171906 6.370358278232747 11.88683662241548 0.3096796055848731 -0.8323272855634826 1.3879280234293452
Ni 0.15238529640990617 7.304659858247945 13.163557045342461 -0.22628741721046192 1.3090452928895133 0.5582314906204903
P 2.4530467284219686 4.661283147591958 8.144688490672396 0.039420153668835334 0.39284810798425246 0.024623969196267272
Ni 3.1274608217934774 0.01657851036126663 6.488571375551277 -0.051110959743202296 1.3416430243198767 3.091309578812863
P 2.9376051367308866 3.73223532086026 3.3887155612448 1.5664528285435473 -1.1164722372123612 0.826833352328447
P 8.71874951155944 0.2145784251232274 7.911897966276313 -0.4485626279377371 0.5677677122456996 -0.1504946384498634
P 3.3827877587119066 8.85085039490133 8.87420679426428 -0.21397106173695407 0.4775536158534486 0.14614895988665796
Ni 7.487346359142426 8.78951100109658 0.9344192421981102 -0.022327974073238964 -0.29292526894466975 0.47934413209496807
Ni 5.584365775283016 7.4979633189028325 8.526582539896086 -2.874907281926597 0.8490222297206604 0.32973780978732886
Ni 4.538066215114872 2.045497762773797 2.6864301242823343 0.1423748375562064 0.9230442897340814 -0.08583165105383928
Ni 1.9506109651900294 1.9364550188428211 2.981083593591629 0.0032074511937041535 -0.9841236735439052 -0.8230954825525695
Ni 5.856247507704141 3.331873781579099 0.5199583073863345 -0.8218873211770814 1.8055649083225034 -0.10182237005514078
Ni 2.486995460576807 4.1638639890578055 11.623714793906636 0.47658919505765013 0.8432832703543541 0.307184092856529
Ni 1.8755443167122432 8.355957780914974 11.344253427842128 -2.758628113016178 0.8525929777910541 -0.5871869973125758
Ni 1.483282313743145 5.968099550265877 9.964793852814427 0.5860202306979843 -1.4546170401164624 -0.4012921249865476
Ni 8.228882623370318 4.884576783240158 9.825623205288435 0.5832017874125827 -0.879511142338137 0.8893106449270619
Ni 2.9208587981397303 6.919238679866736 7.847471992417503 0.5526799646746418 -0.4357546775397915 -0.5778811465306176
Ni 7.654070935998496 6.8448378716488385 8.781187085738033 2.3108751254639297 2.530987267101615 -1.134151142549363
Ni 5.5176358117030055 7.173033272077478 4.434060142300474 1.4981391317688133 1.4071020252546347 -0.3046140181365077
Ni 6.148414565303223 8.44925750719435 6.5142828427923485 -0.495915663300404 0.1520900079614413 -0.4693618240712755
Ni 7.744433668254806 5.159295177590395 0.7695261821117048 0.9683980352785323 -1.022393515658381 0.21951050349794451
Ni 2.73767063677547 2.4769348878828823 5.492967798239072 1.8906388552747118 0.03333101005196195 -0.46592425914463625
Ni 2.288383520041716 1.7828739462949517 11.063322652656142 -0.05977866272052931 -0.6313760331249643 0.3039817838691474
Ni 6.680119936671883 6.819025160203865 2.2047886435776927 -1.8104212079735402 -0.002041713020377129 -0.9325175193318391
Ni 7.3893036611487775 3.1245785543671127 4.138151609706787 0.7407142519411759 -0.6237498840382741 -1.046431016223559
Ni 6.418709226419957 5.399125366542388 7.80336509180462 -1.1487277548119572 -0.7922224471227969 0.12247244220532458
Ni 1.0826380203790182 8.571981900301108 4.285037795257975 1.6743874821440132 -0.6720010057351782 -1.0120530529643215
Ni 0.12966554978860387 5.304284174455873 7.715323679358469 1.3250372974423954 0.7198425506984892 0.7605091751799161
Ni 0.7675998059077548 7.70389038119724 8.789196323165536 0.3142250588637105 1.684160759480693 -0.9918598658458984
Ni 6.009710005959153 1.0551926321324012 8.416621301250442 -0.6292453599352066 -0.9502748433152601 -0.5321962428989931
Ni 7.608584013038748 2.1438688203476644 13.135175832292221 1.7075066332954851 -0.1627667709489971 -0.029880332499200152
Ni 2.002090450488769 5.3170719558855035 5.534204288854877 0.08392234984626837 -1.0384505691212438 2.08713181483156
P 8.575201648407143 4.668479695058419 5.877931097427863 0.973042476029079 -1.4300015555606276 -1.3501163518982104
Ni 5.907070273842442 3.0689307266194854 7.547572066704269 -0.8662275378553533 0.6292854691445227 0.42438937312564323
P 3.4898785873604714 2.360522295595885 12.7986172957774 0.41960043637743216 -0.7498966897713923 -0.7938165310827942
Ni 7.871052770826935 8.245528629867518 3.658351678981206 -0.7966349743681957 -0.7332577956631308 -0.9067584080898641
P -0.1491126459270593 2.253887521919846 1.5868058803966114 0.26264770100705087 -0.7786105127663171 0.08092932865621545
P 5.573128580759974 5.386155163123749 0.808619214356637 0.1582585986659984 1.167746204895989 0.792534579046577
P 5.010967858326025 1.1757462035699349 6.416629615745238 0.06149924495606182 1.0981446425477668 -0.9525474413995209
Ni 3.0895444113776622 7.398214975311936 5.1948702017772606 0.4610844145538317 -2.371031483238852 -1.1530693196101043
Ni 7.766561455521769 6.701627489176212 6.150851723076403 -0.21073789951163707 0.21756494973579948 -0.15068464297348244
Ni 1.0324537312022528 1.069567484866422 5.889198391579092 0.690703724351004 1.109901783083695 0.504395418636641
Ni 7.915290103161961 2.3925920812639165 6.4556505913045115 0.8078431843791893 -0.01588890331611457 -1.3668840582748525
Ni 6.868425034827886 6.908311602725013 12.807828694112478 0.5363506313869989 -0.14049741802783544 -0.9506224564626661
Ni 6.501182207651566 1.8786546116248708 10.964708973836892 2.5819272484845923 1.6449815181780703 0.667391789097941
Ni 6.455877706680829 0.9587278843436932 4.551817184646477 -1.1245616990887148 0.14047170699622258 -0.033032504974936656
Ni 8.947898893054873 1.235471162771945 3.7180510991047546 -1.455537495048203 1.322726647031348 -1.0520483624103365
Ni 0.28951920242859647 6.2320824105628505 4.370142213681059 1.2928599413789026 1.9747357830256311 2.226610818897211
Ni 8.183012614233649 2.6069835238484083 8.748266301491268 -0.3374575470290898 -0.29840094734726025 0.8090693434768067
Ni 5.015418954857879 3.114654798164946 4.690186087530769 -0.8245736097599928 -2.411680624218782 0.9693681125012854
Ni 3.804428823011132 7.3796535379301265 10.571989091675379 1.241334776916417 0.6727890488541123 -0.9957676855407366
Ni 1.3614426672830882 0.6695215356262495 13.448037752434589 -0.6565432764192113 0.9599930990442888 -1.0695069242064161
Ni 3.6623312146714686 9.298322412844433 12.384605119058588 -0.3380972374956177 -0.10696689037055772 1.0143696169126402
Ni 3.5551947805256505 6.2189297851552 1.7038961703727822 2.8781949515389336 -1.7659231255611654 -0.1324550073393332
Ni 8.617332006769097 7.362487628764247 10.705378786369629 0.37998796419213265 -0.48723998990327705 1.8968845790741073
Ni 1.3223496350381558 5.466548533680639 0.7957183312938204 1.0163177417779465 -0.20543139969705912 -0.41152562978909774
Ni 3.027958747887746 3.5892164814760936 1.0135630221302792 0.4832434671493742 0.995608277144737 1.734480847891484
Ni 0.8536309280350121 8.820258227344285 2.080970630646818 0.22212325853044326 0.5264398000311902 -0.9099995407349811
Ni 4.8982037058192365 7.840989627038019 0.4447913268145925 0.19598388113091408 0.4210340835001652 0.8566126404734087
Ni 4.531918594085221 5.958631849036236 12.401972604522324 -0.8741095117065913 -1.0430168483356876 -0.6914843112707704
Ni 3.3905862987421016 0.5603127876852738 1.4071466724097577 -1.18173660563781 -1.090079349041129 0.7586422971745063
Ni 8.417406627913131 0.18881587972523134 12.158742069695176 -0.681678123813626 -0.5506259103590904 -0.09814749230671484
Ni 4.285502971329952 5.305652339373452 4.2898838353960365 -1.527952358475504 -0.31315419439703485 0.028269536368654535
Ni 0.14913636078563064 0.7906761875175724 10.172180291020918 0.42180670000013165 0.3143137619227748 -0.7498532381279667
P 6.128950139075812 4.203932978943944 9.593526796560539 -0.019483048425276123 -1.4949211390521482 0.3959786831934342
Ni 1.2165631236110155 3.101958227729821 7.189962032657646 -1.133427377009461 2.617687179693021 -1.39046133137416
P 2.7720298184055823 7.726410375740576 2.941609299389665 -0.07286352092894548 1.8639484904677188 0.6392070991336088
Ni 9.056321402223213 6.742526499112347 2.161655876386125 -0.24806954608255988 -0.5259669741598297 -0.3665452084236655
P 5.042326198236916 6.189140274349799 6.24538097356171 -0.13881180279529642 1.2853466637209927 0.8132047058014188
P 9.146912161965787 2.8382307582174624 11.076659524272694 -1.9090194146644284 -0.03335055043598773 2.100575341930976
P 5.991860014334484 8.852483071702975 12.14987818524916 0.761934851882849 0.48638201277835585 -0.6505641760176408
Ni 6.992654409343979 9.053575951288607 9.995190828843233 0.5869946787961117 -2.505973518666097 0.868678313388691
