# total energy = -340858.82613606233 ev
CRYSTAL
PRIMVEC
9.36727066074464 0.00000000000000 0.00000000000000
0.00000000000000 9.36727066074464 0.00000000000000
0.00000000000000 0.00000000000000 13.70994747022722
PRIMCOORD
 96 1
Ni 4.475428962584338 0.8952075670342924 1.0732175566058573 -0.00939275406880963 0.7750796167949232 -0.16614674316482353
Ni 6.331431851737917 5.334248430357987 8.65112774834163 -0.5217881601917918 1.1270158170561624 0.35602811094242554
Ni 8.685792269817183 6.478338756105075 7.413476187402958 1.0352482601338624 -0.4355962975850562 1.9915862789240668
Ni 4.993982326861398 8.039525538573226 5.726234044859001 -1.17963729990662 -0.09766746734650276 -1.1965759846434878
Ni 8.037427269965292 9.345969397859278 13.386118158089861 -0.2046569834248798 -0.18458823769946275 -0.1824043426742665
Ni 9.24943030735313 4.352071376433021 5.8228199717180065 0.522890392117035 -1.0970740351914074 0.824582094400425
Ni 1.3817660819485733 7.465649074303025 7.921169138179841 -1.4113407459263305 -1.2967502775722441 1.391644553048984
Ni 5.416343189643441 1.9759507888170018 3.076772755068946 0.8088878235936198 -0.1204376711634829 0.4493768963089164
Ni 0.7520681788908462 9.347571201126943 4.017617664325822 -0.09271732243007903 -0.351196236771421 -0.056609520963928316
Ni 1.3603618686935228 0.45951614150246245 8.865400315748184 -0.45161735560366095 -1.2507211032273233 -0.7300901965684264
Ni 6.557323581560911 7.221931428583155 6.9930056398221705 -0.17834019990722189 0.1847003377972948 1.7913479933921728
Ni 1.8763860699163755 7.050903802495316 12.856859877004103 2.3293335892794333 -0.7540477358252885 0.09528328338504236
Ni 7.329224145704971 1.8640400073036156 11.659377982455643 0.12477537930688833 -0.258519023550658 0.3839631467897968
Ni 6.886807956630121 3.975460263120416 0.41878162869681157 -0.4714793846349106 -1.0331798076406076 -0.2942573574925319
Ni 9.121295413210532 7.5240540063140715 11.83815608821404 0.26976014368211604 0.9533948770014807 1.4528118685869238
Ni 2.6653444337704775 6.766307388003001 5.774438019218078 -0.4444437206733572 0.02582698836543294 -1.1397088391427983
Ni 2.9611347365953034 3.3588128414223983 9.51863816975118 -4.898096018247293 -2.5629797608478118 -1.121193296837114
Ni 3.4781143994164125 0.3321240719161564 9.622627987269611 1.4181839941004093 0.9764257906790151 -0.02862846236997005
Ni 1.95716941132187 1.3384892919099154 0.256996688481515 0.9888925556874582 1.1907586066307623 0.38454087367013773
Ni 1.1856154361889424 3.929925960874114 13.513730358534588 0.6240689579405897 0.34587199634503013 -0.7820169673447048
Ni 1.0278987015826913 9.148647843278257 6.372424901211331 -0.7326810972240543 1.3466134809512744 -0.7760183265591087
Ni 4.285310839072521 4.005482365300913 6.5340374836481185 0.7736932779703579 0.09216222125755741 -0.7557019835992598
Ni 5.965546263229265 9.129360633172283 10.907579580957245 -0.3110304631858127 -0.1978160492436464 -0.04471122686444558
Ni 0.14810966190849212 6.801781241655901 0.35927885257482844 -1.507287631037301 -0.2937115122913909 2.8599881987229194
P 2.7483946546541875 3.5261591301757793 1.5099309513569983 1.3763693720574683 0.3231868960426886 -0.8698355669215858
P 4.7847737059256 7.358159644499216 1.15879506708966 0.06806275710619246 -0.46910805618925655 -0.016570245653855335
P 2.668632345740947 8.226383851926288 4.076283006458746 0.5542018006358069 -0.05363706859916569 -0.912268796385132
P 6.3092782568371755 5.116824713131302 11.426185401949503 0.9950385206841961 -0.9600527486376306 0.02776817125220379
P 0.8316806114749483 5.1976642581602235 8.811232200216464 -0.18137513007880376 0.6127375920881705 0.07327669720696413
P 7.971921946861324 0.5814264843505386 7.5868653024017805 1.3345992300992175 1.6135214998965761 -0.976327317427938
P 4.8386355117096445 6.959095183627594 9.557711865484569 -0.3367571785279555 -2.6130797628279967 3.041148641687756
P 1.5791532074235943 1.9716324770837073 7.305756322743099 1.656116708859283 0.34424860180899425 -1.125351799090178
Ni 8.351399444968697 5.25747428075694 12.674092250709457 0.28920693955281807 -1.622356838800019 -0.6777433075355941
Ni 8.026776683325908 6.646930891844417 10.076016060364436 0.08578459986598774 -1.1370140659194548 -1.1118041423127303
Ni 8.112449739969536 8.571352325249588 6.013059869747248 0.16367437036493102 -0.36503751352988745 -0.5826124905680159
Ni 9.070196952244974 2.584963884999542 7.707485772092211 -2.7314302124451473 0.5993737691867549 -1.2708173597565664
Ni 3.097971825098488 5.873269280832984 1.0697881988497635 -2.6394153153987316 1.25489271810651 -0.8825059633004027
Ni 7.8272444528900955 3.8231203418219977 10.051118791913408 0.11412715556442281 0.26415719567304186 0.7028735269443185
Ni 8.888031641448054 2.324553763121904 0.4215974302304956 -0.6125362747106419 -0.5646805886799436 0.12527597309239072
Ni 9.000813579124555 4.911325531341675 3.5512465542194014 -3.922119656400871 1.1988714655458836 3.0530667332815806
Ni 4.700496372597072 4.694772970278106 1.823052578192544 0.38530860507409775 -1.7587957704877648 0.6704588580590389
Ni 6.226958683058015 6.526411588676156 2.5666115284965683 -1.8083545552524984 -1.795114916633773 3.4560377886324485
Ni 2.0101132245899422 8.522848598232237 11.05167068379072 0.6466021060460992 -0.2928414509816118 0.19784227449589153
Ni 3.292642442107879 0.45649051310798483 5.32713679854038 0.7314364261836758 -0.23580384134132937 -0.10187610611121165
Ni 3.7733988696303973 1.714997365246238 7.392965611760394 -0.6885733082715625 0.6113265706732568 0.5581546146359678
Ni 4.250708141582736 4.474117544704378 10.78569827664794 3.5762278625614994 1.732891906137809 1.320007962548604
Ni 5.210544255195539 2.2136265450184873 10.495883355720443 -3.7418547286671107 1.0617342222395327 1.2138589400936513
Ni 2.9935642273125835 8.447254724723152 1.5681166892366794 -0.7339558501714198 0.21053889612695356 0.19519738067387674
Ni 7.2123861798711655 8.573057168493536 8.99088708250032 1.1555524910432744 0.17926168328022676 0.06364663031636782
Ni 3.9705237115294265 6.96294513183233 11.822279501323019 0.7861214764313816 1.011918070048354 -1.6106511203273164
Ni 6.57212386906331 4.043157527538031 2.787602302356743 1.5039613948775452 0.026338123673896575 0.48105031615279736
Ni 2.2649404532071817 2.4891835434096556 5.169554952630352 -1.4256679611822802 0.403242306734383 0.9184132187199732
Ni 0.057429799144590246 6.851802466505777 5.175327064756289 0.9932760294671344 -0.03222517858229289 -0.5182181834523462
Ni 0.5953874644097628 1.0189435909166833 11.441705095831766 -1.1322914636328048 -1.573911855924754 1.3625759178178016
Ni 7.187281894740515 7.295679949789725 0.946433422879618 0.752869142136155 1.3236465877424557 -4.350870906039636
Ni 6.581575445069587 3.099573628366153 7.848396686566783 -0.4248683696445909 -0.14861027694295695 0.18612755716212462
P 7.492645548089045 3.7727431606904176 4.694820743358019 -0.4101097232781776 -0.37818793486891644 0.04452507899556848
P 3.9757600157786923 0.13451868903682793 11.710474569967086 -0.29267638615865726 0.30826524173584974 0.4443758435498992
P 6.889608770530891 8.014749107912566 4.076378552618571 0.6780587818934839 0.3810727126158792 0.06790154893797984
P 6.519657786594364 1.3126356251335745 0.615144911498407 0.6876207145503062 0.8642007372333116 -0.4381000378435164
P 2.878365533828728 4.820744024918771 12.184606463741694 -1.662846828494265 0.659172229401626 2.2975884356573526
P 6.618014127591315 1.4604698892872752 9.456463848062308 2.678767849054425 -1.3580811152712418 -1.5602274164591259
P 0.8635199641462465 1.7404201375763066 2.644457293850954 -0.349004885547057 0.8758033544692465 0.522166883687449
P 2.866637711073663 8.787352217349461 7.359897273190162 2.5945696198389507 0.5215400487367277 0.44092953687251163
Ni 3.453450376002606 4.169981003800668 4.061996982110704 0.3075373624308897 -0.25248515865175225 -0.36967244119873754
Ni 8.864098265138795 2.1491422544067733 4.3766126886023455 0.3083171780197077 -0.35760676828345506 0.17780669600125507
Ni 1.9337887039763095 4.5427796379908205 6.907180833395289 0.12239042401447953 -0.18355362578736129 1.0613963792841397
Ni 3.4236343537746734 6.438668365236306 7.895586185523006 2.3613409954239652 -1.0552334450065375 -0.5290391853272501
Ni 2.439958536558325 2.4355933884721748 11.662819517663479 0.9984953688845448 0.36749857347587034 0.44495434176118853
Ni 8.53044545466543 7.319575857016698 2.725715555874405 -0.6452252803032307 0.26926057833787825 1.2467261231353173
Ni 6.899819095453432 6.9601162161198475 12.24946731863037 -0.9552674114338451 1.6055243406237123 -0.16816197382263942
Ni 5.000042950920924 8.841110983157222 3.2136117170262444 -0.7499414269663986 -0.23025051562326795 -0.3723237627786556
Ni 0.7525599605958309 2.4216923589446058 9.601158203120564 0.10071988101958138 2.2972793890573664 2.09511329037514
Ni 3.992302615607322 6.40784067778669 3.693308706247167 -0.3272674938699654 1.1501737432298644 -1.2745413455753727
Ni 3.1068707321410693 1.8944274330363875 2.8301165965709103 -1.1386570008395165 -0.4846740289483137 0.2709140547809012
Ni 7.285179239479479 5.390536359219956 6.126865650097176 -1.96699881939269 -1.8780314509233464 -1.2235993073098668
Ni 5.372598036076226 8.66560580173638 13.199841552239265 0.3822142824194901 0.02327362581595992 0.41384707883342275
Ni 1.0254632112341955 5.548890068225044 11.279091152170922 -2.247816249330232 -1.9893478765118513 0.5423549285995498
Ni 5.880547650066759 0.8588072903219071 7.167286518979364 0.5123984914467756 -0.5653719583200134 -0.02040761712207453
Ni 1.0369943213072663 4.584173606644679 2.1685437452137144 3.3809728891768094 -0.22781310982636896 -2.9524319557766376
Ni 2.4531008171696316 6.391307445228631 9.939149933322481 1.4665999235099516 0.11147377710197577 -0.6461002267090163
Ni 0.4301844071630579 9.36466646991927 1.6062574048211822 -0.0680846114830634 -1.6147391743537611 -0.38176768180037474
Ni 6.542738741281649 0.5552946096382347 4.9874870614473705 -0.15247618765626642 1.3677759739615023 -1.059089328417518
Ni 5.208474088399317 2.9947070343222624 12.758956911902796 -0.12132881551918459 -0.15316447197254265 0.5914365166175493
Ni 4.982217035024048 8.351530586756693 8.254924051902432 -1.3492264930940892 2.4684706366246325 -2.2256088599952575
Ni 1.352156139673206 7.077132160094504 2.7583726712665637 1.4775265977247845 -0.8209527251779538 0.2624553824905867
Ni 7.8678422035454085 0.4377896941397649 2.7547531579178757 -1.3196166406474563 0.07070250872188469 0.01855436596341966
Ni 5.012538889862823 5.6205496880942505 13.33402020935436 0.7240272782037983 -0.7480982031100729 -0.08977340931040668
P 4.9536468597820775 2.134398170527802 5.324409049350064 -0.8422584286342655 0.01003270164565369 0.26449940950380896
P 5.200258992108429 5.631434456497913 5.218142985082846 -0.0640459226373155 0.1434747554886045 1.146653903002064
P 9.425160303267681 8.645241355514726 10.124768956778981 -1.6707655691207097 -0.343210390352467 -1.7766202002636953
P 8.334229238011801 5.053951593057824 1.5059966977171202 -0.13782089963693683 1.1005681643875949 -0.9299047642993403
P 1.5207014390596927 5.129245713908632 4.637704747777562 0.9739832426757936 -0.15915385678675814 -0.06150310161080375
P 9.205900601009052 2.9836442877777487 11.781108473708754 0.3793269335693661 1.524381353294794 0.3778560054507944
P 4.552212479455957 3.994503924191539 8.693135273217898 3.5594413871317796 0.6533761915451393 -3.0285327526959582
P 1.011580916247769 8.933369231012362 13.327069694590575 -0.4934350629703954 -0.20654828691032168 -0.9710673545805792
