# total energy = -381173.2921056912 ev
CRYSTAL
PRIMVEC
9.19039350922155 0.00000000000000 0.00000000000000

0.00000000000000 9.19039350922155 0.00000000000000

0.00000000000000 0.00000000000000 13.45106987995685

PRIMCOORD
 96 1
Ni 8.6383726257325 8.155297965967328 8.494472199573318 -0.6530054384692818 0.44325998477790113 -0.24145846852394542
Ni 3.6512239094824515 3.402908664306278 0.5773423651880618 -0.06768249094863826 0.3015214952541129 -0.9511397624187167
Ni 1.9740965492372784 5.082195767051781 7.047177283898307 -0.7129285971874755 1.7237938004912827 -0.20898157894216263
Ni 8.389358910641327 5.07258261532691 6.5693273629052085 -0.006404360864447034 0.236660790024986 -0.9139577540517807
Ni 6.004653955320142 4.931261932656419 4.150852306233127 0.48706695466052247 -1.0436804500616155 -0.05360004471364317
Ni 0.45838191019119345 6.134955356042146 8.756269752187718 -1.7419121073585484 -2.3272764496400886 -0.14251521978881262
Ni 3.915852103331326 6.0247901077381085 10.408814647582332 -0.05157941473918859 0.253922405318911 -0.19831818569104556
Ni 0.45119318430286287 3.5525558435950613 7.741777124145743 1.931466430814035 -0.534263409840667 2.189185841281533
Ni 5.554223573687609 5.758902829963509 6.286990199592995 1.5811070881216125 2.6966300740468268 -1.1480942349930163
Ni 8.436092062191008 4.13496946798177 4.309682526825439 -0.27684661821525225 2.1014083793552327 -0.7623937937971386
Ni 4.5872011667635135 2.6814995268345396 4.562051654626699 1.2591424945217993 0.930727774421268 -0.7099826271852739
Ni 0.22117141762416073 0.07440818385283882 10.546432520663963 1.0800872708254237 0.03807778070832797 -1.1567861063400593
Ni 2.2897865700301114 6.5873892434834955 4.897332837495925 1.5479843374257145 -0.13977056716413994 0.09028145929507678
Ni 8.481161752495757 0.21772042482044285 5.587130697077735 -1.8694287968559997 -0.2717725461264545 1.4771010801515918
Ni 0.8566852982593933 4.840699793940478 10.813987854880304 -0.16215047752123687 0.0909255206369789 -0.09602684641928623
Ni 6.869543517962702 5.27342028707031 13.551414603040396 1.3737679298788792 -0.7245055033917974 -0.4156766758429938
Ni 3.817184037443936 8.511536003404645 5.285100358319964 -0.03248563133253115 0.418538313661505 0.5158160017687569
Ni 0.2177516721587455 2.4866448013367335 1.597435619101103 2.5835874097958342 0.5491161585827833 1.5340834110739063
Ni 3.677857670188642 8.000752306879926 1.5265758462243373 0.5164793463843687 -1.7963642156598416 1.2121928652451384
Ni 5.886529826142551 2.5334147144608887 0.2977963244177632 0.4524784180523756 1.151354908022159 -1.5458387518376215
Ni 2.6188210423568945 4.368056230932216 9.11039583717152 0.6286874305492076 0.1817245429984225 0.3224978403954639
Ni 2.27429156638945 7.193624368129155 8.74593974976061 0.5630690212184497 1.3045134664574307 1.2100837893219352
Ni 7.204855029130868 0.2694338506719477 9.960611098323543 -0.8962215131142823 0.22090275585978086 -0.24749181920221894
Ni 3.0421030012406063 2.7548296775159375 7.2301791587464335 0.7053829236297335 0.7045750830164575 -1.1350137476599742
P 4.841646404483175 5.315365243544793 8.178142527384642 0.013172275715899896 -0.8111763625174804 2.155518530936075
Ni 2.4597445192156098 0.7249437628573838 11.169364752435573 0.050197446789997414 -2.047153217556094 0.9828491777068558
P 5.367566679297436 0.6359274483480616 8.611119432496428 0.7575984292910244 -0.6326975801498652 0.09124639431150737
Ni 2.353623044103678 1.960163912511749 9.252022559949506 -0.6453846886992305 -0.11698108007345015 -0.19088924021682607
P 8.687384994899551 7.3563954295050475 6.5400715828996825 -0.6402568805543618 -0.6852036204683812 -0.7973865078222396
P 5.4123882289744865 8.564674859306367 13.526127234999304 -1.2147935360927786 -1.4913267368326704 -0.005899910424202743
P 5.154055454754231 2.943343031417032 2.4384641627921506 0.26247389443334795 0.5705293341512367 -0.11148097619082736
Ni 0.29572389065680876 2.1817075410774556 4.1220670743808645 0.7833354290458122 -0.606088205092453 -0.8149525417304609
Ni 7.370907061028538 3.325764500273235 2.3275600068411917 -1.6367305910231877 0.7929636961641957 0.11945011043923298
Ni 5.0732259428802005 1.1611327105388094 6.322568051368633 -0.005386461122893949 0.546788281780555 -0.29722518187160424
Ni 3.4713587159762933 0.090999601452178 7.6774535592104005 -0.2032174227648758 0.3032945279941357 0.6917509346685957
Ni 4.579067668411209 5.241263099799448 12.8567752441004 1.3224553956478322 0.28170317497660513 0.2095297381361488
Ni 7.465705971202571 3.8463819179696657 8.589826209521904 -0.4852301585620997 -1.0449441472653875 0.4428779188481341
Ni 0.017941486421885543 1.2166978303557952 8.521454276197646 0.4638393515911496 0.8612943622197939 -0.21933541137266097
Ni 3.5257290846228844 4.717539329059989 3.494560783705364 -0.5929213286931917 0.26979331091289666 -0.6090999953355833
Ni 1.4348685844635407 7.11852966187302 11.052542902033712 1.1811197979894175 0.5692437825705938 0.14104686277340223
Ni 8.350171072252373 7.112638619563611 10.63687794138095 -1.5776918917924763 -0.5319103362274582 0.1849258235445396
Ni 4.782184557771978 2.6775384671849998 8.85031964528185 0.3903672505439277 0.12804350853519883 -0.23261207387690908
Ni 7.180068537541982 7.54724314338522 0.5167078242511537 2.549295835602816 -0.36720623904643207 -1.5301365106110163
Ni 5.666741562757963 3.5910727832498726 6.68150990260849 0.9076225558623724 -1.7159051417718254 0.48877776670404205
Ni 4.963777545278399 0.23486050891880192 11.034302727819227 -0.4874467065974443 -0.31564585047063703 0.07076832896281361
Ni 6.945502121218969 2.3197840148006446 4.637350387621163 -1.115538412544182 -0.8168294470381997 -1.034239873474006
Ni 7.1496023826969095 6.0933780153124 8.1369962161156 -0.07978878729386903 1.0408213833462654 0.20182645595462018
Ni 3.323374997932445 7.534468496255612 12.708181283920288 0.3733416625202086 0.2450235601673844 -1.0315271025285333
Ni 2.8278565452079274 1.4546738827112426 4.892449981366456 -0.4727942467915922 -0.48675867939148426 -0.8931125351716553
Ni 7.942678209605111 3.817946840114265 11.48967570313975 -0.47339434226943633 1.1640728698094598 0.4408182081056279
Ni 1.805085210594478 1.4719242515330226 0.18035596052538197 -0.8069895781296426 0.5233200234552857 -1.172239207670336
Ni 4.218473384398761 0.4852178595569888 2.999534936078794 -0.025813618628994252 0.46810918261109696 0.9715561212915397
Ni 8.409734013293372 0.582685660037813 0.9703263534299184 0.5906312471074344 -0.8556824153496554 0.5936368667029776
Ni 5.917409548700452 7.011048008505562 11.824647169744035 0.17058883809657718 0.9302960862004881 0.14514700098470484
Ni 3.62838578134067 6.866602592004806 7.153171012538942 1.4331573275807898 -0.14798575598508062 -1.5569618583339766
Ni 6.129477881445565 8.22668894359524 6.550038564778862 -0.038555491675694886 0.0890874389869756 1.064799748538734
P 1.3764728234120804 3.9817104640009457 3.0803350386932467 -0.5621087141877095 0.3008440095711141 -0.7414470163421424
Ni 2.024809141223737 0.38313372436163073 2.194663238961347 -0.7041104846752132 0.04966445710466286 0.6414573286203662
P 7.547803757395944 5.7976495294587815 2.482180108116904 -0.4913655820358763 0.13950471509726298 0.5473235854587348
Ni 6.148189522852674 7.653824138178073 2.3898653613379293 -0.8045879106666853 0.48240940128385307 1.3686540056910816
P 8.122387166419756 3.402017196125291 13.727758956751336 -0.6210124305024531 0.4925148651489711 -2.0895648497530854
P 3.888189018539872 2.0718915277309184 12.157843971340602 1.1119609796055687 -0.6934458058725155 0.8227291003520862
P 9.09413343566372 8.878140804843541 12.517552301408234 -0.14151094689401436 -2.2094548759432144 0.9881415364540467
Ni 5.3748178998623715 5.376922500000991 1.9273900498290906 -0.7925633754019834 -0.6460562608449584 -0.5781392852880108
Ni 6.196944560998409 5.252842995758661 10.25303747575006 0.09856683923232057 -0.44430693798517673 -0.4521045796527246
Ni 6.090703610769438 0.07178616455350272 4.236603273889824 0.7360399863939582 0.02948001173698794 0.8063563154210177
Ni 1.2761137250989005 4.127396583640189 0.03817781413029133 -0.49211994370339757 0.2687378730651888 -0.3786437914594124
Ni 1.4679907630643376 1.3224241185421344 6.5811508042953095 -1.7615728190122695 0.11476273226589268 0.6419684639288299
Ni 9.05561649600891 1.7782952131967746 12.192910837231057 -0.27943803309151233 1.730916527578993 -0.027127709454727474
Ni 8.761376853921476 7.750507079043884 2.926482335284673 -0.7790956799328517 0.3454878735327341 -1.0350975934886109
Ni 3.0219025160673127 2.59996235465189 2.5552731466429464 -1.5298346630998814 -1.572360195166918 0.7941821419523291
Ni 3.876471266676383 0.7570632695144107 0.530279278507479 1.1977579207667308 1.9422897466817841 -0.38393023666933235
Ni 7.122794004511968 1.4187394436632084 7.572603115535897 -0.7559107571759562 -0.1622990872839592 0.21887029881078435
Ni 4.372348144752019 3.66318061158002 10.904419490006864 -0.09387380463202542 1.0092479794153586 0.31620429407726836
Ni 3.7256569073980605 4.529678493105804 5.763232424397148 0.10512649472770928 0.3675836769905089 -0.2705456156978889
Ni 6.289445872767837 1.0176890469424618 1.9190911243916544 -0.023505539321107903 -1.1620743513221923 0.9731188377929694
Ni 6.901250375946263 7.095149300507752 4.715891491484206 1.0473787248488093 -0.6964236575539168 -0.3707479336511034
Ni 1.5544539862264621 3.705474803012003 5.198825538227017 0.6033055001409933 0.7720811962882316 0.720763776961178
Ni 1.600810331637788 8.229795296638265 6.661064033925584 -1.0213347353765636 -0.9779108598649741 -0.5020888819906514
Ni 4.405304896267684 6.940144121739429 3.7331020452683448 -0.06830495502398559 -0.1514220353601392 0.02329830840630826
Ni 9.304262595355345 6.412817716701549 12.836894584625028 -0.8949405895193298 -0.8406530318203587 -0.07413133189777556
Ni 5.753471307335022 7.624001310886291 9.100442640882768 -1.1234088164311944 0.5031381491907723 0.7671999569365303
Ni 6.959186617316801 0.38711775999521714 12.599253981636654 0.2636712571755588 0.4721332161688256 -1.4164770387116314
Ni 0.9499282747938284 9.24268695811191 4.2032982064560205 2.2201884603106348 -2.2654360192945244 0.11214894879212944
Ni 1.1724736562639433 8.086893866265406 0.5945954911279275 0.7131067746365525 -0.3073525001135932 0.26132641109246607
Ni 6.274382817627242 2.2254262435202943 11.18139038248528 -0.4207096102812109 0.342542674861481 -0.2855176636266889
Ni 8.469967853068516 2.650325711680849 6.147232802876997 0.5042961740546154 0.07981784075959157 1.1994764461197343
Ni 1.9990668486985337 2.9014899788787334 11.522186720564921 -0.5287463366771797 0.9879782714033051 -0.34707090174913774
P -0.10361433573282552 2.927489602425252 9.893127876062188 0.7901149138614909 -0.2240868100147173 0.043576084818737856
Ni 0.5353918944774078 5.760897145378707 1.7677933504090027 -0.5976192483894933 -0.5301331897223773 0.7054649418205785
P 2.6651773877682206 5.423131799114422 12.162363806922142 -2.2008079989014933 -0.5251496204648569 0.09534344719901645
Ni 2.897041828367416 5.820165993823918 1.2229160506780203 -0.16554407658381812 -0.6328806426949488 -0.25412346558612364
P 3.3196253173361288 8.101570924874027 10.373599816354622 0.3319379027624412 0.6398390762906528 -0.04966445710466286
P 1.8679199317636366 7.203338614183829 2.838094643698851 0.40657394221077725 0.7904409297423419 -0.07322039004773197
P 8.260794494313206 0.7929361329252016 3.1835587826972893 -1.56229124096669 -0.8414359327329703 -0.26655577781220546
Ni 9.3167615306764 6.279851101830204 4.66514029984455 -0.7006315249876772 0.4005567894824198 0.4252002990627129
