# total energy = -381174.58281577897 ev
CRYSTAL
PRIMVEC
9.18110295607145 0.00000000000000 0.00000000000000

0.00000000000000 9.18110295607145 0.00000000000000

0.00000000000000 0.00000000000000 13.43747221632258

PRIMCOORD
 96 1
Ni 4.63529094129641 5.697682258067388 12.848373198718955 1.2136082575354261 0.47918986590529095 -0.7791535297539807
Ni 3.621651280681106 5.966991548088933 6.2724771376867885 0.7686937678732374 0.08326928964330176 1.392238734989557
Ni 5.996343533913733 7.618479148395261 12.088645200528457 -0.25201953186924336 -0.9669962698349992 0.3093199082526092
Ni 4.082083588818033 8.891925657578037 9.554069549752068 1.6112704990788702 0.9238241053228992 -2.07560195981509
Ni 9.066173808647443 8.217637920658788 8.22572188172189 1.4672450132931183 0.6679497184839399 0.9078375000866559
Ni 5.378032981096395 0.5946490145415558 11.898035406062625 0.6170927837330726 1.018514235208633 0.41948036585980014
Ni 2.4798985108386304 1.4665251022060983 2.151930236571469 0.8617754156212707 1.416298089931606 0.9040615779839914
Ni 3.4027003398147166 2.5134370795649357 12.127641016791287 0.5684477690318597 -0.4189630599037494 -0.9024528387359748
Ni 2.7672762112771943 7.56489823213829 7.84127513513698 -0.8150895815289575 0.46146956580739235 0.6109077379682833
Ni 4.161803104900844 5.320256300835066 4.16624767679255 -1.1478553795093327 0.8609089538559174 -1.5385393899627309
Ni 6.948377994377515 5.407164620452696 1.9285457411367979 0.4841238128717985 0.810353609505869 0.033595319456942135
Ni 1.5927193609367476 1.3526059779914823 4.381852105668593 -0.904708467539371 -0.4527062177924655 -0.03823487511148255
Ni 5.517310311394246 1.8126802231170966 9.9467122668549 -1.7530516689151356 1.294512903601293 0.22012859669791768
Ni 7.975725041554105 7.1477548239588025 10.855421102949828 1.0052303736155332 0.26735127713030726 -0.1232903101209296
Ni 5.320522552817837 6.644832371812749 8.239414578518607 -0.3677772810585537 0.34620572553536505 0.3971068832606064
Ni 7.203585110415047 3.110475017069148 6.286493009303973 -0.7025210287009062 -1.6795060343175008 0.5243379231968388
Ni 1.880978447249312 4.771079452509673 5.16145351909724 0.3160492565566428 -0.290466522991532 1.5554847595678178
Ni 2.4465160208608467 5.455246056100016 13.253754696031958 -1.4299233940245244 0.6894618815241029 1.0937246591032004
Ni 2.689484726793761 2.341300582151989 6.146783249061691 0.8304215839003377 0.042133181724624214 1.0365798344610921
Ni 4.487006949098613 6.303442243283068 1.7435116304343052 -0.1560032269729184 -0.9932857996591473 -0.22580122160266275
Ni 3.777555588247869 8.489472013965232 2.196636698809594 -1.2160803732250025 -0.5818658422099785 0.8034473693043388
Ni 6.204717844292113 4.8776904188523655 4.62566180062295 2.162935392225436 0.041015008959780976 1.262065581705865
Ni 0.3780566989984039 2.8370158685575153 6.277207241877259 -0.06589891668565424 -0.29636077698877994 -0.2984847653103182
Ni 6.546062067307523 -0.10336361026316988 8.311936109963746 -0.7148494683592721 -0.8855825453431974 0.7893533531051179
P 8.72664744399716 5.117987423854714 10.453103339659263 0.20746282830479107 -0.1689127359457349 0.21987508592621488
Ni 0.26856470258007153 0.9273005693746321 2.0027070175516903 -1.358459581656583 -0.2836988652503953 0.5767390625063745
P 9.198363327541871 1.1990703949610966 9.0082658386153 -0.36346476972612884 -0.23846364756167962 -0.017288097656486354
Ni 5.758406072344909 3.470952658432661 12.674626335865387 -0.5734801892494447 -0.17745599753005564 -1.4953435713015473
P 2.8066264181101928 4.259994999926256 7.369136920860978 -0.6604050733674627 -0.7693506847309459 -0.7406512599137244
P 8.209512644632843 1.5396893108510268 4.69284911130981 0.1018812483175342 0.29549354389247817 -0.2797069704821828
P 4.7330696866933835 7.551558089691172 4.423010989763864 -0.7754740240198645 -0.9228717687119591 -0.20633128580350918
Ni 8.352526683792343 4.155100899817295 8.397573764946358 0.7006736910795224 -2.3999787624008215 0.7792759142644579
Ni 5.807488248203333 4.302026088792674 8.817279618932446 0.06809978099171497 -1.5209540727807997 -1.468586100702045
Ni 6.1884856544459295 8.949931865410722 0.5331475608522869 -0.6175527540886268 0.7602860034255164 1.810628953108972
Ni 7.432561815598197 0.8219152802629728 10.492596771696787 1.7317734762626498 -2.068632470475792 0.3012528149737586
Ni 7.078373229689794 0.9150841939168656 2.647679493057556 2.5103752472782186 0.1680233913622461 0.19621090954005563
Ni 3.2330794645838146 0.13460139461421838 11.581206563888436 -1.6873697533362941 0.6662044536580591 -0.32413383333699014
Ni 7.236664623998643 7.615449384453384 6.72274045630243 -1.3921086371695959 -0.5681628908015892 -1.1350849672175418
Ni 4.147627482093997 3.992824906869734 0.8703575332524617 2.055949475691485 -1.6639444324338184 -1.6149623461081608
Ni 4.789919075566442 8.167839618777737 6.574874204284498 0.004124306581018703 0.40514158063962485 -0.35413809300856425
Ni 7.573197949118465 6.690939870346421 4.206331453743598 0.39562669917065413 -0.1001786638041307 -0.6048561324575648
Ni 7.468698636432234 1.8040499864341712 12.556161647627668 0.2929016147955859 0.6333496119115672 1.526260572595378
Ni 1.5176179395895877 3.0210602563723277 9.117996543707841 -0.756901917444632 1.6899223445548186 -0.816686236592116
Ni 5.716613692152699 3.7087340412529657 2.7316360881075683 -1.646245215381842 -0.04788653926863366 -1.954156930433015
Ni 2.8178090013865793 4.443965938918236 2.340390734859141 -1.7713229564204978 0.39016541894576673 1.0274989552057465
Ni 7.469846274289005 3.3998174735185054 10.824931578481394 0.06791620422599916 0.18772215534275413 -0.963435291956618
Ni 4.156542332965401 0.4878314733846449 4.748668380442629 -2.4622236272736564 0.9057109406619563 0.16302362415480956
Ni 3.883312712025123 6.8548041940877535 10.494302620607092 2.1373773412506742 0.9886596137410457 1.5351195656479046
Ni 0.4454313041834892 4.070010438564792 12.353955202146725 -0.871651279974086 0.2783823381334883 -0.2895275561170304
Ni 7.975743403759813 6.283950761923652 8.58538883170338 -1.2457897273639769 0.6760486934419905 0.2356765717348457
Ni 0.16682614752209077 6.853913627110899 12.883633224230419 1.0482397872975238 -1.9765694938002605 0.20181488599039435
Ni 0.9730224615884288 8.722653664255594 11.474405548716662 -0.8226208569089962 -0.023647978436243146 -0.7233320519089866
Ni 7.277795964785351 2.0037481546153537 8.5334265438796 0.7216196972035701 1.749586850294987 -1.5180055316754373
Ni 5.912198726255211 5.571019763091176 10.689939068885588 0.4483415130658665 -0.8780954929375329 0.9732209105884723
Ni 1.3589684822694261 6.381261271075063 9.921422919043072 -1.6717788408765726 0.6957261172662599 0.6664924172121232
Ni 2.411637011117832 7.123590161246611 4.57195234892602 -0.5540035685820717 1.2470742505033556 -0.4761341097981026
P 7.20416351989486 6.907714889836371 0.354060050468444 0.00684607638755595 0.5065649154841341 0.19971018094256573
Ni 0.023558709923815667 6.8534086664539196 5.944348194119679 2.8328918567267594 3.064728743000541 -1.2302954883831199
P 3.295373247449399 0.43519162017022667 7.324604899577083 0.8824874513576415 1.1911877237483808 0.6401126416670138
Ni 7.950936063847829 3.389387740676161 3.5356142477243373 -0.14350946538128187 0.4481093424504024 1.1675032356472475
P 6.02720122060662 7.682021561249014 9.950461829260549 0.5464596947965427 0.8276905581224197 0.012196799176508026
P 4.432792536744703 3.7018298519066253 10.673626085334288 0.9939576289151913 0.6158087748143266 -0.9523774914805598
P 0.3548707418504678 5.672039437795674 3.950535829013114 -0.35919828114029106 0.43656766035939004 -0.9089325329230474
Ni 8.650141313913313 7.480606526834101 1.8422507191898267 0.27865873172332656 0.25504083519407045 0.4199465068629412
Ni 7.519708843890036 4.988212535010936 12.885890857422261 -0.19019504236327892 0.5186778966975842 -0.29967312919146455
Ni 3.2903970897024353 5.5670076211439 9.00337506512488 -0.06800233618190224 -3.50603237538302 -2.1874755434586457
Ni 1.6288194573593677 8.536029386538758 0.49749274791809434 -0.16954625576467575 0.5098842096653541 0.2912712782810145
Ni 0.5266344864875344 1.9493593013072152 11.151072813280575 0.15921787725547418 -0.05452795584455125 0.3202627804173582
Ni 8.196457116374205 8.791016156107789 12.801933344261963 0.11948533455254264 0.9139582682724131 0.09347476942139385
Ni 8.41350756894978 0.46951425508027833 6.546400850002842 -1.7164684704744633 1.4300858877443177 -0.1391164785199088
Ni 1.3883480114027893 9.186611515888524 6.491642916359965 1.0714375655702257 -0.39316178256992934 -0.6188125946376568
Ni 3.5387367408050423 2.990321924016546 3.863219868428758 0.15260654258654363 -1.108017935797421 1.0007767087195538
Ni 3.9028133744873927 8.114671852149204 13.307706528844237 0.5978606749763381 -2.56745013791434 0.22025715185598196
Ni 1.0565521353557221 5.741476118681807 7.605851459529627 0.9534995209001448 -1.0046865852969213 0.3657250265152153
Ni 4.959558313003052 1.2319111998704841 2.5740286859613555 -1.9056643821492667 0.588822990254102 0.48401608364934057
Ni 1.9992953197310785 3.093517520097485 0.349632004561875 -0.8152713585224605 -0.3987688443440616 0.9859591840907471
Ni 8.251387654750738 5.011266284277772 6.253611807542027 1.2815506870136704 -0.5824597670402356 -1.0601000290702194
Ni 2.4153737199794816 4.405745007736301 11.116256235036968 0.1266294017964916 0.39974997731040834 -0.97455197069507
Ni 2.0849641904633947 0.8743402956706032 9.437875348250186 0.31597572300623 -0.958210296112253 -0.15115052686630742
Ni 1.9824939015079364 6.457198172781953 2.2073730804872675 -1.10595719661365 1.8735569600917605 -0.04460761140704576
Ni 6.0176436925354215 7.849659318263413 2.7172447093836474 1.0744835514854012 -0.41890546719293664 -0.4316720228299856
Ni 5.877292173203633 2.4214148856575295 4.465903266078004 0.437721314347859 -1.9842077270718088 0.930213810899327
Ni 0.15683251706532017 4.949899792800458 1.2608693163828408 0.5869769381842987 0.25798526253437504 0.6003212207016887
Ni 1.0523104658370928 3.524662110129591 3.490181560250447 -0.32240090980628344 -0.8039639039294413 -1.0053686989656105
Ni 5.4358739290777045 1.4724285513413333 6.730923573276357 -0.31943231409626277 -1.416703810010457 0.7652880846257982
Ni 9.062464643094357 8.632531958639003 4.126513699860247 -0.27162522191531285 0.623481717978552 0.4822929303106468
Ni 4.824752179795186 3.584412727504568 6.168350577776436 -0.9230399188587071 1.9299664492297408 0.6749760292031021
Ni 8.077212952504166 2.8414044357218113 1.3157447681422507 -0.22686103032574478 0.48037540157295977 -1.0152314506923032
P 0.37163635377247856 1.6516161357462866 13.458568574723488 -0.37132386075923146 -0.15750783654290293 -1.249030602898778
Ni 3.8364064575431374 2.6340308655545375 8.485333172798569 -0.10485318646166458 -0.34280724137677737 -0.2463980719174079
P 6.372621853289283 5.508652531402757 6.833639915788307 -1.3782236516573878 -0.8369174760373265 -0.10754821679532446
Ni 3.85230812768657 1.1217012412089553 0.4604727049894858 1.1991902823378833 0.4893943172421185 -1.2104491430811541
P 5.918900931338759 2.2735073186767534 1.0083219658421647 0.38733591991677163 -0.2386320548187438 -0.6766768139442927
P 2.380191733842279 7.1244990904291745 11.763781057136296 -1.7678769068534264 0.24435198802165659 2.515271141917939
P 1.7285262343557193 8.808910125570579 2.9585681616850934 0.14755792441904264 -1.6960608533523884 0.07118896143999998
Ni 6.2937102742576405 9.091559558039242 4.739894000444893 2.3639936025554644 0.09761450262138027 0.7598620285142204
