# total energy = -340863.4490802442 ev
CRYSTAL
PRIMVEC
9.29749578413936 0.00000000000000 0.00000000000000
0.00000000000000 9.29749578413936 0.00000000000000
0.00000000000000 0.00000000000000 13.60782488536459
PRIMCOORD
 96 1
Ni 3.6367713103012727 5.8932270802589555 11.870486788054661 -0.5739221618828696 -0.881246894082321 -1.1187402073109314
Ni 5.840696228365588 5.329426928256509 4.5404005163238494 -0.006243409806550537 0.40181740136239835 1.545151753072926
Ni 5.969169026854535 1.8593411246356426 10.233900648936263 -0.6413899657175405 -0.036260010773298844 -0.5869239734591762
Ni 0.05613735055698507 4.937249253262854 9.59876917856017 0.07027519137647897 2.2538277456316345 0.3135473160703955
Ni 5.522368563387689 3.840349280753871 11.420394081285966 -2.730692820058491 0.7248788275708162 0.8185034923065129
Ni 8.996582455192742 1.295838492502326 6.853132169527581 0.21960717697680887 -0.6586310121861754 -0.45676547546350366
Ni 2.1700448429670702 2.706045482197629 7.045111513832042 -0.6980455094280559 0.5466864660953681 0.0932207444290588
Ni 7.113058543694329 2.651134471351216 6.160956842743245 -1.9994091174025952 -0.08325129192117275 -0.49050374825621335
Ni 4.677402837560934 6.852449733327763 9.661378516020337 1.1398263385572693 -1.0881926735413774 -0.5422857659245113
Ni 3.9792445721583 8.22568987928359 11.275647875705166 -0.03857297517719163 1.7899673109945626 0.8618327512217674
Ni 0.5584959305856034 9.431286876480247 12.203633731764034 0.38639438193910874 -1.464625316282084 0.7986167806849148
Ni 2.449388107592953 3.8680558185666567 1.8298029801285223 -0.3960198208440147 -2.071260395016943 -3.6982066529598567
Ni 0.11032408647198279 8.564221002874637 3.3816666175136216 -1.3579669582908807 0.6339350521013922 0.7647067582010313
Ni 6.078600553719126 -0.07902964498740106 12.86475635195746 0.08412829520948738 -0.13705831043929942 0.30299448025521364
Ni 6.966948395463484 3.065300724172803 1.2287133612785124 0.3281766359477961 -0.03043800477488306 -0.3514484619915431
Ni 8.316424141872508 5.268956014855718 13.614084315852189 2.1297054265277127 -0.2151421992269198 0.4390971116494631
Ni 6.090901140808494 5.1494645974161495 -0.03929400696583017 -1.7665641015792737 -0.5657532529188322 0.5035438692696231
Ni 8.63376627228391 3.514379074137681 7.544640865855147 1.1086825659646131 1.6867786567195144 0.6148029592576315
Ni 5.038638446165009 6.560787286620692 2.608402250397746 -0.38361784763523615 -0.7142923103042215 -0.2700265099696253
Ni 7.248904256440169 3.2521432019868066 3.593813160197181 -0.14780269343999708 0.3280128566764222 0.4049256079740768
Ni 4.9337905847842105 2.963493143954683 7.59557533770071 0.0520085318568072 0.36951123303052485 0.5169961381197871
Ni 4.5803462777529935 2.588181126542368 1.2482362431910243 -1.1703486755158425 0.21400217208520564 -2.666386701781253
Ni 1.8651334645877786 5.524070005139279 -0.03922241624732063 -2.126346280247493 0.3704139473504524 -0.3554943499261426
Ni 6.2990999667285275 0.8227856195830698 7.924898221342167 0.5857536073001589 0.48194917381798286 1.2508743409757361
P 2.7330361128253187 3.2102207929271254 9.165251117750822 0.7429570252287656 0.6221311174879286 -1.177833928149294
P 8.109722212794038 1.7157691927883176 8.920813442021094 -0.6550736338522202 0.16220575623920452 -0.33355461243025786
P 3.960816935264025 4.047934471943822 13.143811394210122 0.11670571492487641 -1.06589580981639 -0.3232560587177271
P 0.718873086290851 3.8406932881025533 0.432037899460424 -1.3466623319113387 -1.7376754435693818 0.12947047078971252
P 6.129625211275021 9.157810331773783 10.764674235966035 -0.9922198202884782 -0.8937725373531576 -0.09549179985142264
P 7.9404148122669165 0.8172926589992464 1.7459107447800184 0.561080272923195 -0.39879686936851966 0.1405231290594483
P 9.63322848765263 7.237626393900937 13.635449031704539 -0.9323408845446589 0.7832091878805931 -1.0105340452166338
P 1.1720144419685434 4.54762838964454 6.385594571182332 -0.2768615306135877 1.495592711197876 0.6087181865161323
Ni 7.935347676995787 5.556908760694568 6.370571677290421 0.268718332681163 -1.2933121984249727 -0.44549015966000055
Ni 1.0830188111148589 5.585823972975695 4.097710475798959 0.47240960975866386 0.6172197962292403 0.5317977219089939
Ni 3.777851513244629 0.7042630012173574 9.557074558150292 1.2115014956050683 1.1104566271459007 1.0074901161839875
Ni 8.350155457035186 1.265714605752855 11.085723277996888 -1.3608177974761144 0.6248366893445496 -0.9551784512644648
Ni 4.656864669095015 8.319938595326612 3.813892326391435 -0.6165700784603833 1.0146925474696977 1.4748320816117568
Ni 7.593348587430187 3.6508477191095134 11.915923650568446 2.5144491602372763 -0.2013258621691178 1.1454850795049434
Ni -0.16240679906247268 4.157877361083481 2.5081399139999228 0.6323491956715109 -0.8126694021232391 -0.9533573388953258
Ni 9.113451978785596 3.486068199090724 5.1503580867731324 0.5104046009451985 -0.36948757888144107 -0.999191623620621
Ni 7.426895518147538 8.04085566058622 9.616432561290617 0.9522247679527794 0.8921054340633797 -0.3960887264087372
Ni 0.7105313729601024 6.319814787616744 11.647209283267255 0.041004724547135836 1.1946826242755166 -1.1760513823275747
Ni 4.494483903021091 4.528298895646962 9.453668738385186 0.33022374828481194 -0.6620210117043309 0.19349788148426675
Ni 3.7194167514482013 4.375299302946562 5.517782108655123 0.2502634684100851 0.8871745724206656 -1.0496495231608567
Ni 2.3818232048125805 8.073536358711031 13.193779856230602 0.9744565827677864 -0.2959617417781483 -0.06727188577378092
Ni 0.6947860636359575 6.514299807069039 7.7659724047485215 -0.6176738530475234 0.2060600344199935 0.997169965204902
Ni 5.29600243045887 4.313294302720568 2.47658328313067 -1.1830931196657044 -1.0637265700792131 0.4148166418355437
Ni 4.03632189955182 2.1483909749919103 5.559626418749156 1.51480425112932 -1.5548538108520382 -0.8578879076414063
Ni 0.13377701990579172 6.488034381122355 2.054400729335196 -0.2094412921874006 0.7072834830865561 -0.8164059863475359
Ni 6.818969450554662 7.942255716457162 2.3707963746629286 3.1666431585488564 1.274346198845431 2.6643879261836694
Ni 4.2702654916475575 1.6521743207616564 12.47984559976732 1.1351039933809353 -0.033108095407878464 0.5424436316586142
Ni 7.2471749222008475 3.6895810870719505 9.607465126485103 -0.18285814238223347 0.049354896284044034 -1.308282703691876
Ni 2.6153670045841744 7.092483185244768 2.1582286554146313 -1.1792701463751885 0.8179489053546236 1.61046625801002
Ni 5.996717507236846 6.571153994560711 11.609801738221629 -0.7922980375557387 0.8714463630521314 0.49563078507013353
Ni 7.968428167444744 7.887214540668006 11.950950106911435 1.4864357272889563 0.426916253312555 -1.2991879404794593
Ni 0.818265177071467 1.6959283365156723 1.996091483733558 -0.8316040342442129 2.7383446801767937 0.5457115037766086
P 3.336304134967119 0.8988670286173049 7.280785369916693 1.2922202509123744 -0.615645766873901 1.2131148628387751
P 2.5099798884405775 0.6926773915634945 11.625287647409875 1.058259633427371 -2.3217452354092143 -2.616453564396236
P 5.904700190212304 4.9625849296185045 6.909223032605015 -1.0998536548190736 -0.6577776630469446 -0.12307896544107191
P 2.5454963228180403 7.740183940342037 4.353293059876401 0.0897708382072454 -0.7599939261063944 -0.1073895797302731
P 0.4129268966167394 1.459176900655014 4.273346681792241 -0.20649223686140566 -0.89818814992235 0.029492353032162112
P 3.345136756081933 0.7400871827094523 1.424168109554255 -0.2734697313232194 0.4846935693323394 -1.98444606833486
P 4.591717115251328 7.349809979554987 13.28488415915675 1.1043908805677949 1.293990712549236 -1.1502390492501608
P 6.485905254558889 2.0374439562939353 12.821142728391688 -0.1347358329537099 0.42109578997603603 0.3263192710240832
Ni 3.3984207051440376 7.9881202637828235 8.299221914939213 -2.596462980206922 1.0089592445303464 -1.7648440335643736
Ni 0.8034877370715876 8.229027680315399 9.951007600371819 0.06498077574675905 -0.4364226501410935 -0.6683528674596295
Ni 8.117615786821908 5.752890676988425 3.9895554951228562 -0.7876119449339791 0.9814255578864516 0.8353707003754968
Ni 7.488519321041209 7.64799926839111 7.0784774374054455 0.6556385052167547 1.9289881444768713 0.061001222273720755
Ni 0.9787845844641427 8.94055574483709 1.3093505433088095 -0.7945814342732768 -1.657815950938577 -2.74466342330597
Ni 2.913881705777159 3.1415587856293343 11.239600554311224 0.39837366578817196 0.7798826946105213 -0.3372451739079676
Ni 2.1935396151324755 2.6187977805750866 4.066222646399443 0.16769557570918217 -0.05671904995859909 0.0035373237292971337
Ni 5.058060915121689 8.623315886880698 1.3471485831826675 -2.246996067421782 0.7630424831247311 -0.785876450300111
Ni 4.904382605219835 1.2107942974105323 2.9439442290536215 -0.3609273480162558 -0.3995795131708151 0.25658915351779676
Ni 2.2585384090415968 0.17420346187350014 3.0738311766705313 1.0728560431843073 0.34841507448185804 1.936733335639929
Ni 8.616519417370249 1.9813893534505522 13.57398235649175 0.994196998619507 -0.482191371735776 -0.4966918793447962
Ni 1.8761045097619686 2.014376868940405 12.981130319018295 -1.1108186384710095 1.5158758869269442 3.236550425062955
Ni 6.27022194443104 -0.01928765526598081 5.780427070626051 -0.9685391888420867 1.5255038969350114 -0.43263027297819684
Ni 3.8006954606963115 5.853219955356803 0.7875676348243286 2.3198966122362497 -2.024602071728455 0.9960700472725039
Ni 1.678848836528395 0.883118930044387 8.767521907949108 -1.0265646163169353 -0.8794599773852273 -0.9810671461057684
Ni 3.13214971976808 5.07242554630315 7.599576050190926 -0.6338293797614631 0.1396461257711337 1.7975541222028848
Ni 7.1589602810036315 7.331503210107546 0.33718391643364026 -0.2232802549530219 -0.8480135859504879 -0.16471438159367116
Ni 9.385171296765009 7.461658855356264 5.464412622630643 -0.49205515190373317 0.6333418986020836 0.8193265024284406
Ni 0.6251701332577662 2.833616423583275 9.363421664581972 0.5518063038204367 -0.7857242409929629 1.5543365048959876
Ni 2.4094367676662625 0.3438548697493024 5.482974143466027 -1.519774193540086 -0.21489897286786214 -0.3275318032749456
Ni 2.175158465717752 6.495360807899695 6.037506551545057 0.8983712124674335 0.5598440865232488 -0.6256077631826193
Ni 4.570937211891739 6.965302738687355 6.008480699062596 0.3715598880294375 -0.32526511872795594 0.05631127299721915
Ni 6.914147916188717 6.0739889957476025 8.709552020948198 -0.7750019694794523 -2.1654005659364772 -0.7723257081988698
Ni 0.6805832088833365 4.027517170924736 11.772102545830723 -0.03938210134204831 -1.4044859277880262 0.5085300096303049
P 9.602546751148537 8.714784651646532 7.598296714753665 -0.05012391323958464 -1.7363454119040485 0.4666459678020093
P 6.038258718964202 1.829096370439337 4.492487730649143 -0.1907876816419553 -0.16390062744312417 2.13622137326936
P 2.8231939306677942 4.648506220271627 3.5100566682889682 2.8279959620870394 1.5896390368520237 3.091621196516011
P 2.29856412893557 6.427386815299268 9.6704965702596 -0.14623843427667071 -0.20391856259695848 0.13869764581493532
P 7.520521301964568 5.546151557926314 10.72657216797591 1.683894907413816 -0.00010361545739982157 -0.032324166054002394
P 6.7582660997561135 7.769312995029104 4.518450987978741 1.1073535627405446 -2.0663161636377896 -0.1357825290506694
P 7.015286076701292 5.515618581356789 2.224484470770829 0.6346261646311457 -0.18385830151197366 -1.8617481403822904
P 5.411375057210162 8.156693162133028 7.650523538530765 0.6110710030190251 -0.6550021571843364 0.719230371035787
