# total energy = -381177.6207184837 ev
CRYSTAL
PRIMVEC
9.12708506367760 0.00000000000000 0.00000000000000

0.00000000000000 9.12708506367760 0.00000000000000

0.00000000000000 0.00000000000000 13.35841157058885

PRIMCOORD
 96 1
Ni 7.552872738876923 3.3770488216069863 13.3622851424923 -0.1866186378659302 0.7081977673707094 -0.25344109480711835
Ni 3.135555280281918 3.107863704471031 11.758889053240601 -0.3082595853088949 -0.3281761217271638 0.11999415586816108
Ni 8.450777104441666 6.575863927843174 1.8162232820906654 -0.17550581578222033 -0.9710179893998827 -0.023046340296502245
Ni 5.408099040854404 3.2138017797633727 1.1302297500335055 2.0397818647926873 1.9699121363847425 2.172311177013382
Ni 6.0450326657597255 1.5343177466265518 3.0411492768541297 0.2962360784854576 -0.007505050127793526 -0.21090450699648836
Ni 7.85773563117595 5.584927185139218 5.443646298702348 0.2756700814086478 -1.4803540398712505 -0.1831365928546007
Ni 5.528969027164087 8.367528962394502 10.500525982675164 -2.965812490848602 -0.8275026104813298 -1.1820680208352998
Ni 8.66681520577446 4.251460070448849 9.01422948093042 -0.6022114957458661 -1.3291320363370591 -0.9734921619719878
Ni 3.647977211972961 8.072085221788566 5.732628975855244 -0.6308093619882168 0.7107009934085373 0.2034213112455658
Ni 4.304771373781542 1.284043949556568 1.4642153450673299 -0.9486115966802245 -1.523135396702835 1.1467333500897476
Ni 8.716302260503078 0.1838669522167038 10.206935040318935 0.0605268537404635 -0.6295852597731286 -0.27153086242929364
Ni 7.584534596651467 5.892427804995708 7.57926918133001 -1.3053529316395907 0.817803638026011 2.372874964205494
Ni 6.425741634192065 1.4790076116845692 8.932181550557326 0.24163921707618383 0.04766670994834372 1.355607971140401
Ni 1.9454655434469288 5.336414915469201 12.78687172114522 0.5640468117506867 -0.5052138007728783 -0.24472582642130755
Ni 6.793252837752108 6.489768135284145 3.580414878161982 0.7429061173861721 0.47548259225703265 0.25912194724197957
Ni 1.8853180534687661 8.992451343474139 9.56459544298356 -0.16058339014443312 0.14188581373492984 0.767837076299897
Ni 2.7181645573393767 2.777974345173504 9.462190462284623 -0.45964074012876965 0.3470984125529635 -0.6927616353212972
Ni 2.4688034687667857 1.1780967471792525 7.62204235235181 1.1663945759641008 -0.5131682797332646 0.5195551570962148
Ni 8.389534364266634 7.834698868701763 4.994789950312202 0.33199292437009276 0.1703461259581518 -0.19438156964080072
Ni 3.3115163514942085 1.5393011350223145 5.310730385644081 0.4046695260992127 0.3346735565260494 0.6443557332140838
Ni 0.18217205253704605 0.4872996303003159 3.6368138743413536 1.5728193941915234 0.3873405479024619 0.8900603786088929
Ni 6.233452207961423 7.235405342228907 6.194522452422143 1.6777438002107556 1.1260292847731768 -2.5788426960219977
Ni 5.598061060416695 7.8708147439435825 1.8653014434124522 -0.304350737172792 0.7298960782797494 -2.476704337388335
Ni 3.9581338135568633 4.750328280953614 8.647928528837918 0.31782537462045907 -0.14370281233901058 -0.676929296274731
P 5.709457132523443 6.502080572913969 11.787408455658623 -0.26692987332217255 -0.22523866423097336 -1.0645866040866632
Ni 8.777243806873972 6.346911001272279 12.389499433675988 0.7929495550968085 0.02911028710239503 1.0785392096120134
P 8.014958796936773 8.31559584889287 0.34592017134572806 -0.6067975724546517 -0.9265965258617139 -0.28038677015802677
Ni 5.5085517380774185 0.25508833439372885 7.061950568550456 -0.899380370458238 0.5247783531683672 -0.8723879010297944
P -0.1034901911023351 7.691878243029793 8.726261735626625 -0.16758141872882107 0.1964849891370487 -0.24306849332354266
P 4.0810847752406 0.07261143721855375 8.834104633553025 0.17983889593993543 -0.8316899090897999 -1.3381684355077146
P -0.2309408056782168 3.619820154828404 6.202951315395563 0.19884037674310273 1.2598068675786755 -0.5563214180819709
Ni 6.805966867120786 6.239457829874266 0.29823480319096213 -1.3451458952668125 -0.6978436778298949 -0.3888276739709497
Ni 3.2500545612798004 8.275162862458386 1.1013808598479249 -0.04454976158591682 0.3778585765539557 0.05809279037767415
Ni 4.519358268603481 2.5808201826517605 7.53458479871467 0.1342995167472397 0.06194918800928686 -0.33617199544844684
Ni 2.3172299686048214 4.695885219084154 3.77926850390587 -0.05783388028933266 0.9119314676503713 0.2921104863528582
Ni 6.8460895326661575 8.325790802808745 8.621932765415186 0.9970028434994184 -1.9494443554486944 0.4755993203405551
Ni 8.59934779364721 1.2491602307862288 12.571854940621009 -1.0399736906339896 -0.4835712828024381 0.5663186385039989
Ni 0.6523173266288709 9.208316030192426 1.15399485388861 -0.457737866679102 -0.27187641869417045 1.4837697504210188
Ni 1.435151968384862 2.4398432281445226 3.9825031304372414 -0.14671923056783118 0.8756868834960403 -0.08897071090345324
Ni 0.6520836732535384 1.6609195422998584 6.4182227415905455 -0.34682381873533813 -0.3838127372548616 -2.0420948291965804
Ni 7.385518508795043 2.1775125518239853 6.961361877761331 -0.6724116109100355 2.4775062644643397 -0.609019519806635
Ni 1.4155469898608724 6.994806255231284 0.8762686106340563 0.024139316250364876 -1.0322552389438093 -0.4752416798908203
Ni 6.28898139294278 1.3893796372406306 11.470093481329673 0.5045129180511118 0.6183659940185415 0.28025410123490446
Ni 6.711684079340145 0.9459493408674828 0.8162406854690523 -0.014688969470742445 -0.33674123768835557 -0.7449128634035559
Ni 7.21950596020433 4.639069115121475 11.284785362395587 0.809412071528206 -1.0272295035944439 -0.08349708938339168
Ni 8.367355547779997 2.2658262260316784 1.9418055823723848 0.7557153533356985 0.27397315332219907 0.6859091311758381
Ni 0.632781713950683 5.732302226213177 7.10688868412807 0.8294646193037069 -0.8301932699396154 0.983399908004003
Ni 5.057427309071252 5.7499266272978256 2.3451497215400563 0.3687360454273972 -2.5202179444002537 -0.16972237633122383
Ni 1.1364681126131828 1.8237102298947756 11.053898406518714 0.9901359411762561 -1.0005365676842897 -0.7016280845729916
Ni 3.1724652119164687 5.983141902551544 6.659235285537488 -0.6385311561125069 -1.6958595359748598 0.27381297359525103
Ni 1.5478897219827774 7.982320341070018 7.421986689516856 0.19173333338467627 -0.1720368833970134 -1.6212625772945755
Ni 0.9642126379003058 4.386221480088844 1.4511508356356542 -0.27904799674194525 0.5717678345440282 1.5733256444039807
Ni 3.0571627474408802 3.3779067675945353 0.7343762095039338 -0.23909022540208502 0.5066240508568436 1.040390466456434
Ni 4.906994694531028 8.875798070422409 12.868745324195311 0.7302604035977035 0.6635461900996056 0.21709983717392287
Ni 4.987112246432138 8.50867020443127 3.8455658237394625 0.5195739261492923 0.8392908613655093 1.1758220399255879
Ni 9.011244011435448 4.7815794199043316 3.661406804803594 -0.1545999188674886 -0.5222368176934361 -0.43092691713384496
P 1.5108155028186963 1.8744476952648221 1.8935680255766967 0.7767670317996752 1.3281452469437578 0.03416070504210891
Ni 0.8093168788078331 3.1161145892874584 12.96258818648021 0.3043157701697985 -0.1384348790718519 0.6327795983407103
P 8.146616997685634 2.512394426602249 10.757622275763158 0.19114995007738048 0.3228765638911214 -0.3161839823622942
Ni 1.0582033589617803 8.60160218363577 12.276687750689785 -0.12726574982890987 -1.0780278171932338 -1.1064739883490688
P 4.755676752748334 2.0360062263882597 12.89805421946358 -0.8033355263168229 -0.6256805254020836 -1.4931113395369189
P 6.678059898296207 0.2729682938576469 4.8823260092635055 0.8908090838494592 0.0466377544631971 0.5783660565868362
P 1.9602422940197122 5.062419824551989 9.369964006748608 -0.3274618692689586 -0.2850101278626511 -1.667213590103393
Ni 1.926070487877339 3.580637579035346 7.068135994037284 0.7913865814850629 0.7955720803213202 0.13471629256968412
Ni 4.691130007812739 6.15955932801253 4.716387390061081 -0.43288481219116415 -0.5281968919316129 0.6650358872712546
Ni 3.2347301856085813 7.075580957250515 3.1835098974434146 -0.43967329586790727 -0.22260508326286824 0.39944041648978945
Ni 7.985943793804666 2.3262657827290067 4.457434647889392 -0.09283199363107238 0.4245791205389462 0.6901334536698307
Ni 8.305957647160406 6.236546289767584 10.138981154562575 -1.27220446991208 1.4973881125354018 -1.2331877223292504
Ni 6.036078995400305 5.813642807500792 9.47708495225357 -0.8104304854903913 -0.14324901263104362 0.7929297576024666
Ni 5.273784858378132 3.2236042690253672 10.22355272393096 -1.04878794649151 0.31908341539727625 -0.57107569357301
Ni 0.9739056021426136 7.4114759384608835 3.0943154595357374 -0.5461007687952272 0.6091069373141188 0.831100098024601
Ni 5.270800301591658 4.137937387543176 12.316334895108014 -0.7113465974123362 0.8895147905180681 1.107636384088286
Ni 7.560010119326531 8.613147946127784 2.7559470382974345 -0.2887873355168962 0.44554518126765197 -0.3406529140379359
Ni 0.8581750773817484 4.187962940285256 10.923466885990349 -0.3590509569291494 0.37436624712998107 0.7135821716110743
Ni 3.2045925510246827 6.986445845395168 9.307793954740225 -0.1710647492917312 0.7710476128173946 -0.21929118839828685
Ni 3.7754917161436605 0.9577141533988716 10.680784998201677 0.22357413204435686 0.6478863720751616 1.6665124502713107
Ni 4.318334222052793 6.264949778206437 0.16502956153902104 -0.11627145560093526 -0.44553463974469076 -0.37970951371976536
Ni 3.35096361275151 7.5678229040642115 11.875427325021658 -1.1258451937868288 0.45537193755008665 -1.0765818287753264
Ni 5.5245606451216815 4.807053114066555 6.664858482589923 -0.14298573166732795 -0.5284606871159608 -0.18570666757462212
Ni 4.871946688231158 6.979062033651263 7.7636417740542685 -0.4683863475318837 0.8795764483584335 1.3753879819808055
Ni 8.133857332892086 0.1242944685918986 6.936141003852886 0.12249223969966644 -2.032560664453899 -0.07878374306812239
Ni 1.4586907205326132 6.437698115507906 5.156440664993877 -0.11571429754588458 1.0194102646603411 -0.8864718899266862
Ni 5.508405704717835 2.1940873381366317 5.149387253726028 0.5282164323156386 0.0050506750500300115 1.3100865896698342
Ni 6.027271358400468 4.281917153006835 4.2254259732692265 1.205772049320459 -0.1521152047724219 -0.9251752200341551
Ni 2.3513470122373508 1.1197107846010574 13.253507631064572 1.1383011601619943 0.6601106820554954 -0.448576254784492
Ni 4.05545592063382 3.2724889361457072 3.2967888871802837 0.28042405115386543 -1.1607106382054462 -0.40492766485660586
Ni 9.266273019776847 1.6434229204048452 8.686828164996784 0.38846463420457616 1.6105845287554392 -0.4797969033616705
Ni 7.367309974272064 8.34284932462501 11.533532198149432 0.7961220392875192 -1.8153065610902994 3.202815494704355
P 7.401536542924281 4.373936423713942 2.10155877608798 -0.07550095855179256 0.5600024664779839 -0.0749301736499871
Ni 1.2476360075955832 6.721313153987635 10.688278334965268 1.6267128017758696 0.44435141806986694 0.20234299057972246
P 6.362034581074071 3.7231113754783074 8.469032187098014 0.21825760492744994 0.604201015372069 -0.8343607710537438
Ni 3.464568439421948 5.33829509497383 10.97919777954963 0.9609035266736999 -0.2607921358555509 0.5135182068735157
P 1.8085136334131915 9.206855696596598 5.314911503270636 -1.5859623593313847 -1.1201275745767612 -0.023726911303294622
P 3.664396837841051 3.6812363096179417 5.482465616513444 0.4192772487100585 1.3268794928574568 0.6238213607061579
P 3.0063522653910426 5.471851729397267 1.7875687988150295 -1.4796292458900842 -0.9670813733496377 -0.9636417515404694
Ni 2.773228260987063 0.2980148404430905 3.261081905345296 -0.6146916304907478 0.47676608695514666 -0.3919407656786347
