# total energy = -340871.25591593306 ev
CRYSTAL
PRIMVEC
9.18250187814587 0.00000000000000 0.00000000000000
0.00000000000000 9.18250187814587 0.00000000000000
0.00000000000000 0.00000000000000 13.43951968017879
PRIMCOORD
 96 1
Ni 7.828771641554361 8.857946465570329 8.993095448237614 -1.0850518139195504 1.7363078737978934 -0.656834582407385
Ni 5.886167431216229 0.758141340271298 10.04128356089212 0.6533985601426425 -1.9669530537564188 -2.2065307603178836
Ni 7.5333521872517055 3.663294894873321 7.764817351633711 -0.9926463663029356 0.07382048552557609 0.260214666085526
Ni 6.484701276496464 2.989684913251593 10.284256236778916 -0.09389128813352217 1.68873346645304 -1.2407763333097857
Ni 4.420787032253309 7.614957082514285 2.7360844095514842 -3.36299496454215 1.4449013554905954 1.6069978398454452
Ni 4.996171789994785 5.644520708618048 3.1134935059504656 1.281549658572406 -3.2595335162216896 0.0059821857253638915
Ni 0.26347169334872705 5.204137095261681 3.5862151365957082 -1.1806577707513344 0.2652658553561883 -0.599641935246477
Ni 6.16755602246485 1.6752923946535423 12.00933983027029 -1.2325189783969999 -0.8597599278531386 2.6434414058389892
Ni 2.381151323294757 3.4706551854422814 10.509355172525213 -0.5685475278345177 1.6976258838466634 0.4983114172260901
Ni 7.242707633988381 8.008877235757156 4.109805073563232 -0.46321534485390553 1.799351323312624 -0.9471416970029173
Ni 6.248316127543547 5.690047553527677 5.415898446854843 -0.858712717535547 -2.2117871236208164 -0.02859092426381528
Ni 1.390194072597442 9.455956908236637 8.152722047817225 -1.7280438340168887 -1.99272836294831 1.3853790317552463
Ni 6.354796420720644 5.5531731787348315 0.5355418815690508 -0.8199445956284137 0.5652169207993879 1.9253016967642198
Ni 8.72145775586143 1.3070373344970798 4.970216529845217 -2.2144495009443284 -0.13024051618651764 -1.2095268883772008
Ni 6.04407891808813 3.6972885172725634 2.3006712845270205 1.7670592960481375 -0.2817998484554695 -2.0772567218096936
Ni 4.993591506933146 1.5528896430106727 1.1001675017186312 0.6618214940990151 0.9633177925421474 -0.5174170277072896
Ni 8.20162713521218 4.424542675570784 1.3378207541975717 -0.44925528312938756 1.1782473615376288 -1.0091173673747653
Ni 1.13068738361176 1.2666618732087305 3.199304905378656 1.971472281783011 -0.8931400459754811 -0.7023667625112291
Ni 0.23327319902555335 2.3134028235482385 8.550451102889163 0.43375075973588517 0.10116365342521931 -1.5786496277200555
Ni 1.5919428240112072 6.357238966252303 5.238563213505062 -0.48141104192632567 -0.84695017768298 0.467525285083169
Ni 3.860351387765743 8.133015480277782 11.382655188612594 -0.7291810544905959 0.36035604889381806 -0.8868876373078661
Ni 3.2897874435735934 5.555845286816458 12.053878637964857 0.5417599753280283 0.11129842786637606 0.028708937898918298
Ni 3.772621763670021 7.56168938841974 0.23863210719200337 0.19212722638898522 -0.11268116714651562 0.4089599259444506
Ni 4.143585661916104 1.9810697112107487 10.704900225588647 -0.7411757649586267 0.08561490705734287 1.5290185949564892
P -0.01992143808621199 4.921628238769217 7.0220952687186555 -1.1686193515295618 1.3892850516778719 0.327916440307874
P 2.8281738855961964 9.091760513963607 2.5806971924790307 -0.22004529295549202 -0.6032275957152063 0.4050809026050185
P 0.9951077416007343 5.914008777276333 0.9972243083114383 -1.1222271374182675 -0.09939036357488043 0.4440400574770353
P 4.65429805808063 4.456185577458355 10.500955019696788 -1.245054134749533 -0.16052116944793 1.4463473439085026
P 8.490288268043782 0.3006626629439222 2.6967337154861912 -0.4669930667287828 -0.33383434845420573 -0.8987890167311424
P 4.1453119722918625 0.6613430772016449 12.805160649243113 0.5355785291076647 0.2450248457189651 -1.295512548510401
P 6.522670922261151 7.545730199945973 13.430676358396374 0.6160167770600745 1.1309220940891038 -0.46448572692589685
P 2.618583277475529 2.0284238740181215 7.645541241921404 1.0982906812073276 0.9922786985508718 0.866728902971804
Ni 5.861145113269731 8.661330732773845 1.7558862964460633 1.7626740224962483 -0.1436984414636364 -1.0392296133791135
Ni 4.292691129371237 6.476060542115674 8.366853403176258 -0.04225736600731432 -0.17595421617354856 0.4319414744412884
Ni 7.7391963345568975 5.0139215663583006 12.083579440679701 0.26981979327545785 0.11449867997122863 -0.25502823678858016
Ni 6.762710707009557 6.783389701510663 7.8062240078965175 -0.08520250211027262 0.9908918455056741 -1.6669983887687938
Ni 7.2376113453790945 0.5754224059996695 0.3212296309206438 1.6961264164830014 -0.08133736272791153 -0.12502940429922338
Ni 0.6803958505987784 7.734999931143484 3.5642414093127837 -0.18494562103888149 1.302088659066022 -0.14349121054883673
Ni 8.425303701398876 7.410214835448938 1.7208633155727648 -1.7495822223092965 -0.9092017274240343 -0.4042738333226909
Ni 2.658453701153949 1.1425236286881035 0.8902527512774089 -0.9194581150447196 0.41141764345632376 -0.09322100153937493
Ni 2.6046350569394807 8.649705685243472 4.8093721518349275 -1.0884127599719835 -3.1000217618748804 0.31892760654570235
Ni 8.299641161546464 6.525499132876755 5.562993864622458 1.8219880868755334 -1.136430682612159 0.6191491520414693
Ni 1.5553230060403322 1.1499339078010666 10.294645319540262 -0.19636003352341022 0.30201951793645404 0.9905599160875521
Ni 5.638175599736936 6.175893734279682 11.789442781906265 -0.09236610973824738 1.1798262759889746 -0.6310271344259777
Ni 1.1183093709174925 3.696370267072692 1.6759755728022467 2.886857255199622 1.0781093211634465 0.3247940926288084
Ni 3.3209344903532343 3.051529064212938 13.23955359829552 -1.775831900034445 0.1144662840713964 -0.25392034843638206
Ni 5.028843132106212 7.459708521222011 5.806262217073612 -0.5711201736577003 1.6315377339683383 0.2588411827767671
Ni 7.835539145527414 8.702000034126153 6.364728214882454 -0.8189912305762088 0.43807818346664557 1.0507761805661324
Ni 3.31446082644414 5.371956501790193 6.537331704952299 1.4294873349283703 -0.7846790875579002 0.07772521989662098
Ni 1.2721346443999644 8.455679418010625 0.9192253815837542 -0.05924181638045281 -0.8320339226927801 0.09991409728883437
Ni 4.0105863029667175 3.4276443460803003 8.70087976888231 0.08475770126337016 0.3578026863443451 -1.3032744518440071
Ni 4.305335434623467 2.9748459900216697 6.0626881766387255 -1.858170193223045 1.4668614047014543 1.1094091597179925
Ni 8.138019943867082 3.6986934400783666 5.333783004481136 0.723243091739606 0.7836267350339858 0.25977449322431395
Ni 5.181713425380818 4.022266445509083 12.733111983810597 0.9906645599862164 -0.14323332890175977 -1.4801761195324896
Ni 1.3198377422832883 1.278938878381012 6.209313450304005 0.8868477852088662 -0.10124824271922563 -1.9934711546516057
Ni 1.232043840673575 4.56569609629503 12.650915735419302 -1.1044551581468267 -0.9125896700596605 0.41416435296352544
P 7.276756351399617 6.01506221177219 3.4600980628943585 0.5236797207875498 -1.4972397598829956 -1.0638350706326194
P 5.407887632111164 9.288927196880012 4.197135258822009 -1.1705847027860485 -0.5982730799234084 1.0311751185057532
P 0.704221688534844 8.144649710310153 6.0892182614134125 0.26195941669077466 1.027613883517056 -0.6517725945034453
P 5.458079188036141 4.67008277901642 7.28673313982122 -0.1547572703809593 0.21296601751120742 0.023967052338558722
P 5.425196648378742 8.680108949361216 7.915191840865067 1.1306665264348723 -0.6894148303362514 1.0325668566469572
P 8.252635933815041 6.033537405793605 10.16405361261494 -1.055375884121673 1.4693312063981856 -0.03205394311175125
P 3.9646646104711443 5.3106265709407765 0.8269164437412728 0.1904416111564462 -0.3187463437728317 0.2611065817721761
P 6.781387916074943 2.970245556520313 0.27144853283501075 0.5121460091163373 -0.37283438386648693 1.2952310127142401
Ni 8.524226795431032 2.8392847130146412 2.965859993565727 -1.8793637965815244 -0.6442593168455355 0.3258405316154517
Ni 1.232282585725542 5.96904869425663 10.70816552329939 1.3128561819951712 -1.3772371193744024 0.5868334706278991
Ni 6.20913439151503 2.161588518003485 5.271786423986612 1.4289481745954487 -1.4843063396507794 -0.6464277852517643
Ni 0.14358127425270578 1.9088676979948536 0.8562802486327633 -0.37605314791410077 -1.6303095179881923 -0.8841661246116449
Ni 2.5280162602622034 7.623928386967029 7.246091385974908 -0.280627168303607 -1.2761081758418602 -0.32440379916892514
Ni 6.5736705383620135 1.3400300641784626 2.932476089299199 0.7616062648988366 0.6706658318635224 0.3450965516315863
Ni 3.4455043124678006 0.32450411113338556 9.10053072162258 1.7228509769620393 -0.6653732160060154 0.4960763572479843
Ni 2.4439780019699646 5.8656629042530986 2.698078033778803 -0.023450517713456385 1.5898452393255587 -2.4352093034683415
Ni 2.853737971160619 4.278559258795214 4.160606347620922 1.272596048923544 -1.0340429269718514 2.3083698425435726
Ni 1.5378303397327804 3.7533017794647248 6.37933665731221 1.0765077810042813 -1.2007170033950547 -1.1560268595765317
Ni -0.09170105621016642 6.996010535290907 12.741444186124232 -0.6102960725262134 -0.8152811287144732 0.7631612680907824
Ni 3.4601871331637457 1.33511742560915 4.446088498260568 1.510189120954812 2.6986872136861715 -1.184654293505237
Ni -0.039495777596872554 7.197566454162699 7.953333199417129 1.0461937034017725 -1.3451623503270447 0.14310837328812126
Ni 5.689514968411752 7.547383050305742 9.876487952271782 0.4239795392817343 0.757002190467922 -0.0834415535551079
Ni 8.347151426887814 2.7398841288785527 12.218109522712274 1.2196850598571252 -0.15198716383498986 0.16131152655970926
Ni 1.6327131328855014 5.0226357607550804 8.48887140798538 0.25010071757997576 0.41387253275471947 -0.0594665307967492
Ni 7.3859179351603395 8.2393672184269 11.478451640714187 -1.401808123845547 -0.15420216920843768 0.609171472003467
Ni 5.655392790984527 1.8218726740590285 7.645379629886228 0.6627409205894909 -0.6912907072027257 0.9042135301808234
Ni 3.4441269371679937 3.1328860319215517 2.2437544641381857 0.7743820765072664 0.19203492378549508 -0.3419983723222368
Ni 0.22859379600700824 7.927061142948606 10.324897990625228 0.6229543847201722 1.1017431585323025 -0.797726921880794
Ni 6.324044221526949 5.198214381472509 9.365276027998528 0.012105267903966248 -0.0764124146224684 0.5585461936474315
Ni 9.023167224033205 4.106846471419246 10.08265073239633 -0.1884567195159335 -1.3636781497430448 0.24204673692724765
Ni 3.892949269861181 0.24475959077574586 6.722596028777971 -0.28945325123566923 1.8866508171612413 -0.8564668589241637
Ni 0.07481718978512931 0.35089829487849167 12.105607344724417 0.5393703920499292 0.9326417036145292 0.6938895782781533
P 8.273333293320146 1.8087784262088609 10.258748164476685 0.026672624195179868 -1.6798222800063394 -0.24213209755220236
P 7.730050562566178 1.6334569155473972 6.907873208106442 0.5085989151950272 0.44445709040979586 0.5161595011511045
P 1.517840032881578 2.329104901966041 12.21691304270184 -0.8107359325459522 -0.4367260403141253 0.7051993468640178
P 4.986667900426115 3.327803001848273 3.945278512251457 -2.1023303769488697 -0.26588009190141954 1.356894036941676
P 1.7342348749832934 7.769599598674643 12.076349138605911 1.257068899822222 0.8929004191608493 0.5582695429472773
P 3.597722648100498 6.333493016083626 4.588762541315801 0.3281828065953831 1.0938187614789034 0.4617834975033854
P 2.285515564978142 7.327700872488487 9.388606929076863 0.7722208071898894 0.6554839819167614 -0.8155549512011503
P 1.0866021915159296 3.2326814636435857 4.0129599797333855 -0.33966972418906016 -0.1973915601117181 1.6980542296333336
