# total energy = -381169.71864050225 ev
CRYSTAL
PRIMVEC
9.25300333920349 0.00000000000000 0.00000000000000

0.00000000000000 9.25300333920349 0.00000000000000

0.00000000000000 0.00000000000000 13.54270569483134

PRIMCOORD
 96 1
Ni 7.615064348864886 0.27770946033641875 13.303757986297668 -0.9640045341965269 2.3238298858523847 -0.7416277648943808
Ni 9.32045761330199 3.109231153939965 4.513580734520884 -0.7924060238885127 0.41905587672787187 0.06892047712079744
Ni 1.0861082649403588 6.920395132136191 1.4625713274407293 -0.24204288027250573 -0.6223969695548055 0.4218136419786671
Ni 5.059431124564096 5.92667810434583 12.75794645886798 -0.8113349995825317 0.02820371612772562 2.444188109928184
Ni 0.43822685899273184 5.302128146017002 12.41134746425961 0.7166572109919722 0.4016559360838695 -0.03345930809971012
Ni 3.1226665146151578 2.770256633984734 7.49125546458228 0.8459073382407626 -1.3136061727873185 -1.7909849536257996
Ni 6.478499457366797 0.19565567838361533 6.96762708707181 0.8107410747522747 0.596832747932456 -0.6272139313274747
Ni 7.322253061973384 2.7720054515932815 5.939058622653961 -1.781418650093603 0.11615112797298707 -1.6495909919256235
Ni 0.49565377287595924 8.99600105539867 6.0018837386156365 -0.7158339437597284 -0.04765873952854372 -0.6460066385539455
Ni 2.292588848767479 8.061743826298931 4.896012909398365 1.171093781211983 0.5215058530646824 0.07621598234094615
Ni 4.339121835913254 4.820018919254229 6.885436360671354 -0.38692068675622393 0.029127770603891767 0.8860800538049062
Ni 0.020470419023228652 8.060143056741902 12.980642188560902 0.8486530193066997 -1.6639477748679277 -0.49368368864609175
Ni 8.33089518395733 8.217231292404946 1.5291883241218913 1.532181308955187 1.1068218586067904 0.6161401900118163
Ni 2.077993198093195 9.251855847430173 0.1297178521387888 0.06750894148525148 -2.0863260311008136 1.2995826048147168
Ni 8.047975357507825 7.582429006508547 7.231709649566387 1.1825261914186407 -0.12007206029394804 -0.10718080615357671
Ni 0.269123598648739 1.0343192059189736 1.2501649373282568 0.1369750066968738 -0.015382395993341248 -1.2688967456950855
Ni 4.267642386040071 2.7775480005219593 2.8328763332749296 0.30083938158542384 0.4140203711864934 0.2586678904236964
Ni 6.3116863153197125 3.267004111841277 12.077005923016545 -0.1669381287178673 0.011705461362386293 1.0670870019110137
Ni 0.21695794239630667 7.818917262800949 3.573066624643897 -0.35728795149145565 -0.9653037126239248 0.5372417757427006
Ni 3.098516176211403 5.113542687393658 11.371227550622123 1.2462489263885828 -1.6151618637134764 1.8300333257775128
Ni 9.215778387876059 2.1319844718809 9.967336919000909 -2.482493947486918 -1.192037987563818 0.054292957015609725
Ni 7.536293532454478 4.9486726760227375 13.33517748403092 -0.9081558026580231 2.3695163321459063 -1.3140671715841368
Ni 0.6340352119294744 6.630711360332992 5.684388215034596 -0.8496331238317819 0.19995623551510078 -0.6867126009137399
Ni 1.9924214243162122 0.493114748792438 7.6574930698290915 -1.5532607553333055 1.7095588878388235 -1.4720118385541423
P 4.7845891699255025 6.735270296717064 1.2645070923189925 -1.6083337850480495 -1.04929599647618 1.6417887222723853
Ni 0.5973627842683243 0.9858519750535071 11.976735753624864 -1.2912172635691568 -0.16351341930703453 0.6099929394634979
P 6.3309973330394955 5.5498680542247145 8.48327271568116 0.675127724289618 0.1686096028830193 -0.5713130063947968
Ni 1.2509597703048403 5.525884269878918 3.7460339391324906 -1.2502055970434856 -0.42356996254814144 -1.1754790547638725
P 0.8478767428413424 4.966438442204811 8.97404645465898 -0.32881015576673694 -0.8627650332280495 -0.8285529061227149
P 5.043923091167662 1.905480206062695 6.9684672597641715 0.6819930839508835 0.529206821253366 -0.4900095822286141
P 0.049306478257505094 4.654917582802813 1.1146102907583997 1.055514723692382 0.2220962619472498 -0.09111243983680437
Ni 5.937707684183866 8.334476096203405 11.255153251730974 -0.3528767097976374 -0.6356785171550601 1.817365500501857
Ni 1.9293807133795144 4.911919747233576 6.760382947455681 0.11033246440868096 -0.44455839187435053 0.11678593334350855
Ni 5.669925771002003 4.288026752133356 1.3950882496581913 -0.6532010994198557 1.3973228343806838 -0.5373109384177391
Ni 0.37162374181639957 0.8022187237534162 3.4943022853357433 2.688086298241874 1.177287825837837 0.37823447183613573
Ni 2.807074333796435 4.58996150019961 0.3175871283129177 -0.12168954129271302 -0.4283609561788816 0.21920119978764185
Ni 4.2201004554965875 2.7996626782173517 11.027446095494192 -0.23785789565688065 0.8097509429248636 0.2209366944215098
Ni 6.881032856439037 1.4123321464586653 10.788728790726134 -0.6234863459642422 0.4476907668557451 -0.5373124810796359
Ni 6.556631816555036 8.046892756131106 2.893873055800367 -0.6993194910444731 0.3003740119132311 0.13893958662241232
Ni 5.729024702567052 7.0685634726953195 7.028732069734921 -1.146947780093399 0.06859703234310766 -0.14762811553534574
Ni 1.6203859238565301 3.271519577412554 11.181791741002877 -0.18520401690659072 0.6574614173581064 -0.011168872132625926
Ni 1.1052804876118456 2.985611030923044 13.493735096605272 -1.0512983716181894 -0.1639808458617563 -0.0552244676909436
Ni 3.489585104294274 4.978032455239256 2.660992545463378 0.0987910394279847 -0.4824690508771948 -2.217748483410574
Ni 7.231397823357878 7.195560941887479 4.992856691697745 1.603740509250412 -0.25207815302132075 0.5153506320965641
Ni 2.086357913003921 1.300555867563126 9.912082610273698 1.9630537187020127 -0.35304563127533395 -0.21880293590795866
Ni 6.581707455280775 8.174445405516455 9.043859438652271 0.166277612315733 0.12658029372611104 -0.04012000794933736
Ni 7.6727383179340825 2.9785139774534346 0.7773827378110719 1.7568283623487484 -1.2324827258424258 0.2684807627490602
Ni 7.793480756949637 6.027267502348595 1.9141669254854707 0.09265895838831784 -0.7704009803723313 1.0361460893577834
Ni 2.401348648613354 3.4986160354368274 4.4747810414194955 0.1269291924250975 -2.1053264834627163 0.42896105165672577
Ni 6.944249374436912 3.5568544377024343 3.241825764779799 -0.43625681398719063 -2.14515981340957 -0.27209881911762174
Ni 7.6827223084082785 3.296511939109313 8.131650265624744 -0.7773748405870031 0.7122372275474056 1.8433547254767673
Ni 8.752073384517526 5.081527296253048 7.007090220504061 -0.37502907752496056 -0.24657444959427213 0.3523738020192899
Ni 8.136952236469705 8.759466534090171 10.906143849783836 0.9947251032088352 -1.5198302435890019 0.5120717042349762
Ni 5.000535759069881 7.7752708466130125 4.720431621500171 -1.1763709704505223 0.429675304114931 0.44514460339512374
Ni 4.236755861292281 6.253531190083084 9.066773575825858 0.1363653981373329 -0.5355726155703937 -1.6026449621933883
Ni 0.9098949969222492 2.9206456953166215 8.167930365949372 1.0660220509816092 1.7322020791596362 -0.6534384122416423
P 2.267679764099698 0.10581827012229136 2.292915479781139 -0.44661784550654055 -0.21252892997378883 0.9233646491879776
Ni 2.7825816342735465 1.5127642434066941 12.327518956289241 1.7543773297050949 0.6596946775639994 -1.4495846198988778
P 3.4013484655899804 6.764445015869186 6.275391410189931 0.4154704733694587 1.7808980017034426 2.3409482907002266
Ni 7.484856087555446 1.1371848427138174 2.4256202013592887 -1.0559307281838781 0.12646562252511767 -0.6292317330884518
P 1.316933683262224 2.0219755166003472 5.999540878200376 1.1567647661838207 0.08040996581763571 -0.21414795363445052
P 5.672914491042007 1.5078138866840853 3.8263694383873714 1.409018268440741 -1.0996729062668351 -0.20490458065931166
P 4.520138337902777 3.493101245517809 13.220240379235488 -0.21760788715859297 -0.2113487936227586 -0.5556045945206044
Ni 3.562822624779224 1.0434056550808462 4.40418247745284 -0.2566863412172934 -0.649466829188404 0.05749192356888164
Ni 0.6022048808532612 8.72037259548639 9.417976864836415 -0.12261565265140818 0.2696447011501743 -1.4189229291489627
Ni 3.345395555119672 5.455431903363136 4.749304692747327 1.5877816719283107 0.6667914365097807 0.5268205804093765
Ni 5.898104830402996 5.804908581972874 3.5180834289110265 -1.1062220202392625 -0.41980175375496087 -0.15863860771323646
Ni 1.7519821356489444 8.345764760131596 11.364280395804677 0.620756348627589 0.07552152737708284 0.3678736974271019
Ni 3.2802451594488526 7.29912055392381 2.9622906869081076 0.0709562766039036 0.4174242546617199 -1.456427868072956
Ni 4.708918109593737 0.31132839693502506 13.206683804218114 -0.26771560244826154 -1.3556851042352394 -1.6841497037370996
Ni 1.109592387112286 6.9142974030143245 7.92264527949588 0.7816441573863184 0.9769289555676788 -0.6289018605528588
Ni 3.2797084852621023 2.2467402178132243 0.9970610631540084 -1.4195273955021812 -0.9624467027911039 -0.9299806118425983
Ni 7.777325013327815 0.409465749084536 4.561751869283316 -2.1534385084785943 -0.40200483478285604 2.0688183612343534
Ni 3.7756879638514 7.30997432670067 11.030736463439164 1.5300218394100231 0.7447660534130464 1.279300714637229
Ni 5.672100226758662 1.8460944313978296 0.8866477516327498 0.3844380295436863 0.7639657662699488 0.336420364013827
Ni 2.5150495521786183 6.6760325701037155 13.184284134023553 0.49392794344641394 1.8667651339809077 -0.7185881094660979
Ni 5.056127802414617 3.236237876135344 4.99377829081844 -0.6527706967506565 0.15083505250841764 1.3575211290027136
Ni 4.174686715693665 9.08931759287065 6.7353295159376705 -0.6050911312865063 -0.0283150448946093 -0.7827821276455035
Ni 5.658285492951457 5.516742302697726 10.743807310694507 1.4294968480100672 -0.4553860786174738 -1.3904685304630118
Ni 3.251986487615494 8.42422097443253 8.72276172091775 0.7617034525983334 -1.2602236434011198 2.3588717079478663
Ni 8.570575726360572 6.4145519521145555 9.475492607550553 -0.9865610793408043 0.10345090679749924 0.004211724088502424
Ni 5.358552959651522 3.6907916593094647 8.990013437015119 -0.006841962622497894 0.20307832608385024 -0.3572668684455331
Ni 2.884966114900959 4.102133917446983 9.252132512226448 -0.11366898498108166 0.43827487285848393 0.5026920627922891
Ni 4.435417840422019 0.12531249730582802 2.0184047826578153 0.21795190076157303 -0.15935748815713202 0.8652659452730325
Ni 8.752508275668859 1.574777870985991 7.065486849124727 0.2071830922808432 -2.111042560010887 -0.5351121309942074
Ni 4.665530777495957 1.464380289570206 9.19889628350148 -0.10799481741443982 -1.1893157035366486 -1.1646925056713295
Ni 1.1300877892442083 3.011214090832312 2.3420757605877704 0.2869615951620671 1.0418966186883154 0.07783577733255627
Ni 6.422722353957665 4.990598033611784 5.97230558852313 1.4557843209516863 0.3949813522771714 -0.251187008665619
P 7.931331998918656 5.048096195619805 4.198306857012923 1.216577624576395 1.5514542982521862 1.2807767849621232
Ni 2.0151838122369927 6.406779429409899 10.046859079272766 -2.182728001471331 0.6931753258199481 -0.905498053320202
P 7.636299991254394 6.439849662917569 11.46425261849268 0.11726724385530127 0.23262338673081873 1.018364082784014
Ni 7.809534717536041 4.144771756283957 10.614800089203 0.8310113949655366 1.082237227288891 -0.8241612048129227
P 7.572296967982834 1.0365121676820732 8.740746783276133 -0.48719293871542546 -0.9309694581184288 1.185083924843488
P 8.658321955894214 2.727035855944911 12.016456120546625 -1.1302767471956212 0.660917751337823 0.823182385839421
P 4.126386038886155 0.16607752829110856 10.82633669701281 -0.7059930464099067 0.8672606071055581 0.5487094100626678
Ni 6.402051144764566 7.707677658092158 0.5143244827729311 -0.4521801700856664 0.027624703695804033 -1.487292933082929
