# total energy = -381165.5513476779 ev
CRYSTAL
PRIMVEC
9.30571724873277 0.00000000000000 0.00000000000000

0.00000000000000 9.30571724873277 0.00000000000000

0.00000000000000 0.00000000000000 13.61985782984356

PRIMCOORD
 96 1
Ni 5.713245079507525 3.2254918641394594 11.757192084274433 0.2683619777830088 -2.471490654397879 2.481866855425881
Ni 2.7988991759160147 7.082125386439093 5.500147877744041 -1.5493375090194994 -0.6429758221474217 1.3530944606899278
Ni 1.2801875162274619 5.269427508733109 8.444515886190192 -0.18975769771554415 1.037327254150078 1.0311614916589982
Ni 7.052793765801243 1.8465148540378191 3.9705969186522627 0.4327976517939966 0.24703262017761327 2.0224500583824585
Ni 5.4445797180115365 4.915670669092294 10.666950075970064 -0.3402489937312979 3.1379792149552603 -2.344770492659794
Ni 3.9449633900326497 5.823862139952358 2.6473872106313663 0.1610652148768581 0.24112319667171375 0.3412185567334188
Ni 1.359621118310166 8.715167087738248 0.7178178999454284 -0.4340150691408654 0.6601536194782889 1.2937336022331074
Ni 7.449114955948887 6.675856384596695 13.094893585702476 0.3576898149155646 -0.21470022659349475 -0.1574826397319223
Ni 2.027939116714061 7.203806944643572 3.0976731854366735 -0.39154661556400955 -1.1009018935779298 -0.6672238960615089
Ni 1.7605765556271147 4.977097708378602 1.7131741627441381 -0.03920289545170668 -0.3623669086762598 0.18542358911656454
Ni 0.49225103712397617 2.7108763968508436 12.2989904820977 0.17820033189524795 0.24024285094928946 -0.3088679083168552
Ni 8.181744765973397 7.353573157380104 1.8764345960031787 -0.17891381302250478 1.7095010380176945 -0.5240769562259684
Ni 7.853104057075462 4.390493212773234 12.074562639062439 -0.40889770524794733 0.03469138073459832 0.7473039893435517
Ni 4.874418424711714 1.0249782218134316 11.904953845524483 -0.07901668501453488 -0.9369382741073541 0.6868712379787912
Ni 6.4834979042017125 0.6158123502043589 1.8091933446056618 -1.3037066542854192 -0.7277227247775144 -0.5956695808622903
Ni 4.886739194294364 6.0647034069981025 6.316018258760819 -0.6283089641638663 -0.09605898520880231 0.10973339737210135
Ni 1.7072454903112784 4.810599816103094 4.088994489254237 2.372828684348591 -0.4994709847518301 0.386220832475722
Ni 8.572519748665407 7.265103703888977 6.787769731448527 0.9198409523054352 -0.0766525556577325 0.38669700078119207
Ni 4.1144111946629165 7.849130515827884 3.8891914350933026 1.2084105153845706 1.3796115331438497 -0.00582740531505448
Ni 8.046458249211641 4.84495652403296 6.938132440658055 -0.6362323327760011 0.3969693292414776 -0.04766182485233727
Ni 8.976024952497195 9.241870681679329 11.100756556172717 0.7197715882512379 -0.7746060195926143 -0.8636821457256803
Ni 7.173405166526868 2.7835075196549095 7.836376099823368 0.377111413975286 1.5884571007287804 0.007434087680542036
Ni 6.791340335141021 8.488721765212414 9.488028304965683 -0.966166317734536 4.062344023272978 0.5014990709254523
Ni 3.884504145335915 8.96880371594422 9.964941658988357 -0.0652168030169651 -0.0978916675421669 0.5770715061451288
P 6.971424574539392 9.1664106208442 11.750151378635286 -1.3293127848892978 0.22242639159315888 0.44340936587157187
Ni 2.57325414507002 0.29002663534566536 5.212510020005525 0.7713733715879296 -0.7262718512636007 2.1269134656048725
P 3.139832737244978 4.594567591132384 6.100470861656617 -0.3270216964077465 1.10090986399773 1.3660921585011763
Ni 5.506258011662446 2.9069013298255584 2.699319626650925 -1.1822839935008478 1.1941416641703821 -0.9974772120326756
P 7.092380286801691 6.12042604163625 8.37504126266289 1.3935708235374191 -0.2364723281632637 0.3236941746964103
P 0.3751916286564316 6.432614242511433 0.6198259060359275 0.5189198375050611 0.11658744417945728 -0.4027627959948031
P 7.888214528099131 6.3655758557490385 5.024324223206358 0.7774080078177837 0.09698946744287168 -1.3097292063304153
Ni 3.532078023255764 6.067253173512941 12.220649371215151 2.93580874539766 -1.5060622432706319 1.886836707919802
Ni 8.540321967127666 0.8341458790404682 6.952977851319084 0.26791846248768697 -0.25916231356161173 -0.390439755653076
Ni 4.493321387915442 8.66028196764877 6.345532271455935 -2.6161185496543204 -0.6713836838661534 -0.9417038138167976
Ni 6.509135155108209 1.7437145960472342 10.146902861547467 -1.8479996804479464 0.18423805344889563 0.31500333179063167
Ni 4.22891804490046 4.16975229489556 4.338102024895349 -0.31443820331578104 0.47167453136485216 -1.21205659677759
Ni 4.371798026903488 2.146000750924847 0.7337223012246633 -0.1868847470431233 -0.7324401848578419 -0.6017579531482153
Ni 1.314702421349855 7.797641982519122 12.204863152544448 -1.8367570176545915 -1.7457589919084644 -0.7861387028225623
Ni 0.39652405478276603 5.532239574105618 11.044982740089928 1.066245736956641 -0.006522888720182314 -0.1578870742591926
Ni 8.71479485904995 8.379686676692844 8.810794498905338 2.8464194588995495 -1.5246760017170773 -1.1768129430839473
Ni 4.150312651649219 4.46159819795528 0.88007889917639 -0.10453822632440705 0.01801803384397542 -1.1917171138892895
Ni 0.17597390410784453 3.1812617902524996 3.3071197543396775 0.18944016647512535 -0.5189712595682868 -0.28733286245855677
Ni 1.9954156350740597 0.12361621681190652 3.169327207933958 -0.9991191185114727 1.4707273154147638 -1.7198314734094253
Ni 6.558297259115112 3.8309311313726853 0.5409450635553452 -1.9720412669126035 -0.5283645278577287 -0.7097314304064164
Ni 8.600260091660784 9.053169348146868 13.33009558812051 -1.1083490938845946 -0.3808539117368538 1.0820670202596139
Ni 6.092415832841857 6.147459150123862 3.9628061722061947 -1.618253872375239 1.4360318209151075 0.5410122985287263
Ni 1.9661212373050398 0.7398398797168342 11.303106585133328 0.10295802632148074 -0.22338901261674432 0.491294876698941
Ni 1.887729875549569 4.926539746790584 12.970994475087464 -2.0355320883773977 -0.8563781558650994 0.3697436607563051
Ni 5.544467286516193 7.475440829928734 10.893789030333775 -1.9955547766535118 -0.9102954747088452 3.2659065096275692
Ni 6.065271055747756 4.070357929402898 5.534129565270448 1.303938053569935 0.05175450686447216 0.7658706966021455
Ni 7.718487551952641 6.646934215515973 10.516395668986062 0.5174841334997992 -1.1888385067899139 -0.4599842395111175
Ni 2.872786570543085 6.922932482171425 0.6248053953136283 -0.22596757197719794 -0.8437697230724694 1.5896434077273978
Ni 3.3846661569727132 8.298699019836498 12.541396970777734 1.9228534923340432 2.2235895155723835 -0.6449221472405151
Ni 3.303790168722856 7.724070982277104 8.031480697366268 -2.708477717414032 -0.3667555246622587 -0.14607954010130325
Ni 4.728569918919514 2.6850065030141614 6.854329804346459 -0.092267379376854 0.7454599941562774 -1.6721606496960235
Ni 6.243698877483203 0.8063320208791522 7.737509368496368 -0.8097864241484892 -0.6228574541309919 0.9978135123261719
P 7.60458557333358 2.5885248270074284 1.9850397603877648 1.0805174163843068 -0.469658529376088 -0.4162981114770766
Ni 8.478317973374496 3.6680996916769075 9.953705005460373 0.001162395739217353 0.18125531667148784 -0.5099034929390638
P 5.584854099196481 5.280063943501212 12.80586731495661 0.30523005445395174 0.8926091131726757 0.6733253809735565
Ni 6.503039910337336 8.092921695228387 6.598330454541517 1.9259794395575347 -1.2035184773995917 -0.2257220316252951
P 5.227533169865216 7.922775961807561 2.065233639566317 0.7604662377571225 -0.4490791625628395 -0.44476973655420826
P 5.8000395039013135 0.7909161697533077 5.657593168320153 0.32979308850529654 1.2702082654176576 -0.9573039822478997
P 8.005010584769705 3.010715910991754 5.560974698270471 1.1258760470247644 -0.17247834180980617 1.0169291501097002
Ni 0.030576725600204944 8.108359880075529 4.090397791409119 -0.31920965656249545 -0.21101480732210753 1.037695179012458
Ni 5.391276569847323 7.171357908741231 8.555844834001396 -1.9923943766476586 -0.6826530861323855 -0.4535425976508318
Ni 2.429043445506329 2.7870436921937363 5.188293752116606 0.11156839369831108 -0.5901239684537127 -0.3353960365143707
Ni 0.7173656420891468 3.546995087939289 6.904519259533064 -1.3476558061728596 -0.65127817136553 -0.6665083580517231
Ni 6.891004566432699 8.87220106561379 4.249708878285323 -0.20679357015190836 -1.6754825149804047 -0.6423132488627583
Ni 2.6590621634398204 3.3335777695038704 8.218345082321978 1.3429802550740613 -0.44609796844732846 -1.0727477997412171
Ni 1.0332510044108452 2.1162875958814924 1.1087380518258743 -1.7209265062458168 0.9796239859013386 2.472876993222444
Ni 2.5259717959390193 4.096748943403197 10.653248337953832 -1.8730633082847936 2.287505083279422 -1.760208334564575
Ni 2.9436216899261147 2.83889514847359 2.784252907603226 -0.32246467316468336 0.025467033922852916 -0.6725882456972159
Ni 0.5324489437449529 1.2803736305716105 4.876794174314774 -1.4223656362819246 0.43004400030825934 -0.46440422295568407
Ni 9.313999295754193 5.827472758228845 3.1511996708138654 -1.2216077308011348 -0.0869624222241728 0.39504691540778414
Ni 5.636268186767585 8.373479763315482 13.416758801901675 0.3720954488179333 0.34684515889157685 0.42758191192101197
Ni 8.421087812548743 1.255871677164422 9.35725133876265 1.9407059471344321 1.6078540171981535 -1.2924735045737612
Ni 4.055682813366766 5.0649250673824175 8.67056478516299 0.3966091176885815 0.25954103705726916 -0.6316190023737057
Ni 8.60263304954868 0.6017569949342421 2.702956300935592 1.8458458673297373 -0.11935986471827185 -0.8291298616721077
Ni 3.7745198736611867 0.9185505952553866 7.8984275527342955 -0.8532419242289627 -0.4763099732543345 0.9556538482389864
Ni 3.068113574727241 6.532231945217074 10.293425101265488 -1.0381795748480442 1.5357649125413873 -3.3051705973345142
Ni 7.300874880834375 1.8430717386710667 13.072571031265268 0.22914057038854088 -0.44413518829400284 -0.19262807728480374
Ni 3.5662672282758967 9.249668872699162 1.3446351913193053 1.0423938700397082 0.07314711360763532 0.21442743254808233
Ni 1.4523991188683385 0.29376101966101087 9.024122482455567 0.5286856586425733 -0.461478821778773 0.002596557082582625
Ni 8.682057345914178 4.234129246536627 1.029868376205941 1.9150221692150826 0.6866112994491853 -0.09851156051435292
Ni 7.3523727198603455 4.371835249772318 3.5965824632225725 0.9868598415281454 -0.8811746460834889 -0.8095529679814444
Ni 1.662373321937005 1.5474291029907112 7.0378571591115815 -0.25653721723393885 -2.044860564867175 0.15169945739124194
Ni 3.5025416768393502 2.1103226311515235 10.205686146575141 -0.0008770032883146185 -1.611772121305637 -0.5533962740153759
Ni 0.740018549487217 5.61491156577651 5.999765320609427 1.0107983546216142 1.1529091398831561 -0.4388914233965603
P 0.9968563444125491 8.540107935631895 6.952528385177965 1.2389799035309954 0.8666111464470173 -0.5784172215397457
Ni 3.3507002891655584 3.0421413180012777 12.273739418455314 0.38620206342264457 -1.1941900009098143 3.031414445119127
P 4.934942809428901 2.7744437510948634 8.93589311646839 1.8163023493446655 0.9616419475016212 -0.6079910785421206
Ni 4.444968881305585 1.0658303203540913 3.8498301124492746 0.03808112314243764 -0.06732047962352922 0.06236030740477648
P 2.0805908646737543 1.3609332244364147 13.293117459653308 2.2881969671401237 -0.9023319968873944 -1.275029598065701
P 1.0536491365295528 2.7924596196084663 9.40229194061838 -0.9418722210738617 -0.7516740933867893 0.7895238172447113
P 0.9839027860597933 7.4192994380162505 9.966916332179775 0.3176142870509175 -0.4775770128922162 0.6139082153575041
Ni 6.327133937965106 5.957203761817761 1.5777648105152435 -0.909061602301744 0.2959136621490323 0.03618467745067317
