# total energy = -340897.5403774772 ev
CRYSTAL
PRIMVEC
9.04306470199866 0.00000000000000 0.00000000000000

0.00000000000000 9.04306470199866 0.00000000000000

0.00000000000000 0.00000000000000 13.23543927836904

PRIMCOORD
 96 1
Ni 6.486373392435173 2.011051022549323 11.328119846249848 0.07877705819990302 0.21405770791348938 1.4058897501140883
Ni 4.486924622104652 0.22369377397539114 6.0789046457076665 0.04465851924963922 0.25139912467642506 -0.7796795774607798
Ni 2.415827648867213 1.5646039533442584 4.741239118011524 1.1879517333095864 -0.3011103758586234 -0.1620759155295596
Ni 3.2861050820558093 4.061556937094467 4.687132652325208 0.1458363137422456 -0.0023970394772668394 0.1272158704275809
Ni 4.812881895079526 4.564649764599285 2.423739426315561 1.6682196627704042 -0.10908136561039923 0.05983754098292275
Ni 7.26405888449491 6.04928589536297 2.4590516902977946 -0.27390938996379927 0.14445563134463507 0.13595505007279168
Ni 4.924590875328067 4.51559113771931 11.365761603740706 0.5157314124747504 0.7546917971671906 -0.06104107437272068
Ni 5.621322850737198 7.8038032538881215 12.409058188333761 -0.2529991221736933 0.422999177646336 0.29549148700994915
Ni 1.8914926619999872 6.673329715405974 0.38313657210152496 0.7060161863383583 -0.08076580649515769 0.14280858265951535
Ni 2.790255749505988 1.5317233695035968 0.3542702047534019 0.26986633024267714 0.4234547771265159 0.6242697610974861
Ni 0.49563049038014434 0.1052576577755124 4.822954060723567 0.4457788945450129 -0.6760173259834229 -0.006781027477575419
Ni 8.565346875167997 2.49739609392848 1.4478118663364126 0.24086145836989487 -0.003779778757406394 -0.1355822401144052
Ni 6.792833817566134 0.6923008736264242 4.911115804376204 -0.3623949337007178 -0.5142517426054305 -0.19258231164853287
Ni 0.7997957856489607 7.334594790423721 2.4534929183267122 0.808768010186304 -0.07345487465604124 0.6152331048165146
Ni 7.506847089927825 3.854226588988074 3.7971946918186847 0.09149990508321017 -0.01330443041838999 -0.040980041956787484
Ni 7.714656720471939 3.8812834390571775 12.704076423493989 0.0026430940498019 -0.14615281654139992 -0.5816737808038305
Ni 7.738955435757928 8.873887205217372 7.261399319118799 0.3324341256725694 -0.324131519344145 -0.8847885886869923
Ni 6.924039645658586 0.794018171508202 0.17340981180652476 -0.6752192555621598 -0.34352560760004064 1.0848391836881124
Ni 1.8405530776285774 6.330932150510769 9.308497806823691 0.317783208528614 0.42014988112299906 -1.1372344094603768
Ni 0.2624080389589598 4.979093427255368 1.4093363382652184 -0.2967199601004116 -0.8571201762374464 0.13680325700569987
Ni 6.348819332809128 2.0362902165810297 7.12107717733829 0.24314716908027806 -0.056650915724825016 -0.5447110875365522
Ni 3.3278026541375723 4.346250705100987 0.35793264602278246 -0.28964659819339794 -0.10807220761959452 0.08134944691276957
Ni 6.237770496295561 5.81685199919781 4.8106591097362825 -0.7813461665299254 -0.8731723446043026 -0.22192348381481136
Ni 5.426878870060107 2.8020479060869077 9.44037553463544 -1.0896600021155234 0.5429604233940326 -1.2056470937068202
P 0.21183108148854302 5.586407577302436 12.583912177598851 0.06411688508456699 -0.46751345800862704 -0.2722535995279311
P 3.8920446862437523 6.257629066733981 12.59708068865187 0.6678201348846111 -0.14562265506954275 -0.22490673481285137
P 2.535404095546274 8.626559381223396 1.5183694756208947 -0.4384659058233674 -0.5767640022070389 -0.3773207017726147
P 6.296595633227218 7.793023920571821 5.905348336250366 0.518207899039701 -0.20449988902172522 -0.6246880795818274
P 4.7593831233519825 1.0983163998304997 12.578432080292076 0.26313672482832745 0.0524445909529613 -0.20155109080604644
P 4.015111755959803 5.967382856901784 8.241682019135808 -0.03460319189616621 1.9570828458305582 -0.04743325378129896
P 4.667378981439196 1.037501788629056 3.903674067657144 0.2899109075983781 -0.08615098206647098 0.1487228912614213
P 0.2167586475322109 5.539564501313816 3.577446407042876 0.04233784153626257 0.4114197003388527 0.8421486425292787
Ni 1.2813932479752166 1.1448881838732405 2.5587541933281694 0.3620789451221958 -0.6208460801279179 -0.1723446444454193
Ni 2.1011289916463607 6.341051340092095 4.963501374819155 -0.7596666246739626 0.7295134981293501 -0.7167523418089398
Ni 6.019642728743143 5.569668864241638 9.167593291666025 -0.35504080732849175 1.0863144826820583 0.38672425447470166
Ni 8.683955713906752 2.2985662267929947 10.163600072866243 0.8734739350051215 1.2882324699092202 0.21445674312412097
Ni 2.4306492321771263 4.990650464149858 6.953807606573518 -0.005006452075655894 0.5365018122528824 0.0028107299759177404
Ni 0.5600695619785452 0.09036011272075285 9.244265821410645 -0.34078738273327114 -0.22060270812085878 0.07189498636808908
Ni 1.6078931048418508 1.1512997168608725 11.447027106129074 -1.0548230969419963 0.203903650198623 -0.6317763538871765
Ni 4.255494506139249 6.817657030614158 1.5540525052624972 -0.07205130944029527 0.9360676985769427 -0.06762386979656096
Ni 5.560851876000536 8.074543572811544 8.013952325312209 0.29278180138827 -0.5677831388646672 0.9682152298437647
Ni 5.336475350628014 2.8484569149621204 4.9235572530142635 0.05330256807788239 0.10591325229506275 -0.199936695131075
Ni 0.5634200175101638 7.486708184478663 6.974865287412727 1.0314620536185526 -0.5849236551996959 -0.24036009325344412
Ni 5.145775198804068 4.445344609866104 7.136429588555643 -0.10118730757430315 -0.7122333708926637 -0.5475033055697087
Ni 8.252538218503442 7.1106342460348815 9.261631218866425 -0.5145399632698107 0.16088138100082616 0.07918354960970234
Ni 4.66129299878662 0.4534174636012094 10.28426711316774 -0.5531815869014086 -0.16567083196966953 0.32808896132999626
Ni 8.280146695529167 7.2440827542132755 4.645096869617581 -0.558442835300348 -0.4419875458233808 0.035636775367003146
Ni 7.296668176389692 6.156590903023389 7.0202759419271015 0.019650427241075834 -0.27581174919283463 0.436847396383338
Ni 2.380424049929867 5.195213634408274 2.6397158487371515 -0.3224291919410576 0.06661599735733688 -0.2731105482115877
Ni 2.3436097328739445 5.267078870871898 11.390101917125065 0.4099215185267715 -0.4194595399241937 0.6556063664272387
Ni 0.8451087750628185 3.3384825137403835 3.655707803283865 0.07363150944322158 0.41610887828440596 0.11333499868043062
Ni 3.7046271669649546 2.582690281713166 2.6123054148319182 -0.5215269361106051 -0.5076676616300095 0.09784950145032181
Ni 1.1186994680309537 3.436355604749041 8.166729480328069 -0.9487504362509338 -0.4382661311077355 0.03643870244300821
Ni 3.4861376768180294 2.4912468098218654 6.757380481772043 0.31512391652889604 0.636188109801627 0.5107537567545011
Ni 4.255729625825678 6.659692773593071 6.133011111393983 0.040204854353659794 0.6837848857439837 -0.08523335534820804
Ni 0.8380361940337255 7.266663287175358 11.39033974973095 -0.27194686692078973 0.7863793580784586 -0.03078844613576633
P 0.20845530537530899 5.538759668541037 8.037882083551802 -0.035652201985970855 0.09906280503213262 0.04963488941830807
P 8.55763314084014 1.7201446689821507 7.956841753478514 -0.16593308449212069 0.20995088483396743 0.25518687385363154
P 1.6939016947506877 3.368876254743811 10.412995141487823 0.4032227663503572 -0.7230134922273033 -0.2724657155387372
P 4.08173201480308 5.941402131551338 3.846324758911075 0.15128576689259104 1.6431066697528602 0.5381529747030602
P 6.952199749640935 4.044447458374299 10.448744185502923 0.17712869609762397 0.21369775347090936 0.6108486025955738
P 6.334802582271991 7.98183407183947 10.244428795221742 0.2758505728505701 -1.322840804011709 -0.21509231982559085
P 2.461386609645335 8.368235190356417 5.976952228139458 -0.9038548612898241 -0.784128614371069 -0.5832539808067567
P 6.847833738060881 3.9853600725616256 1.5814095850850407 0.300967679633172 0.40778133225531704 0.3005632451059017
Ni 5.340300567064922 3.0442483123037496 0.3423216031503584 -0.4345632283348516 -1.0869834837246248 -0.4363537445763711
Ni 1.4552823422194627 0.8928073249874479 7.111759203303798 -0.25736819777566644 0.5916751149909165 -0.609747399111595
Ni 6.9925137327987095 0.8517346286876954 9.30724082080778 -0.5312415922952077 -0.6943469775305462 -0.4509673807244879
Ni 2.603398900248676 1.6716014967993482 9.119204755892374 0.5103824894580112 -0.2756261155445898 0.2973709634208492
Ni 6.381048815979676 1.991129150656865 2.5190216792410642 -0.10952925178109522 -0.07526133173716071 0.47314083149773345
Ni 4.123728008025311 7.000806223277777 10.35400451646918 0.4736733069624358 -0.2996841849350581 -0.0834343544662563
Ni 8.202530069812886 7.184660775000683 0.347312470648065 -0.4477211058730483 0.2531207353532221 -0.051093990462337806
Ni 7.558582464007149 3.8655485061961348 8.28276466280691 0.8602029289278281 -0.07575112688938568 -0.20828918086082837
Ni 3.12145800010121 8.49137460459137 12.332146921676769 0.5946563091064274 -0.4917749016591531 0.25729106468082785
Ni 0.1097764772873877 4.9948645323758605 10.511572687249283 -0.6975251181482116 -1.372094141720882 -1.1423483336481746
Ni 8.702891891729179 2.189344089381689 5.705149349094674 -0.7786439371074139 0.937408014654921 0.6327405175726586
Ni 3.5635734412370565 2.6255091938378996 11.30511700215868 0.3020735111028411 -0.104300142171672 0.45256197890511735
Ni 1.1235194216027558 3.330669305699038 12.733869704990532 0.052394968661948475 0.3767784561158995 -0.1320264044423468
Ni 3.1761142841311765 8.245475584845698 8.206792970589149 -0.44515437358713655 0.07308360735955155 -0.39772163402646993
Ni 5.584309586254297 7.770904583917735 3.528581301750962 0.027193272585340263 0.49820497355521287 0.23941418440040707
Ni 3.067823582400725 8.446358227705009 3.733929410039458 0.1200049545014385 -0.3819512585660906 -0.056618005604360554
Ni 3.3877762603067874 4.234794930668602 9.155668202031626 -0.07724828026020245 -1.3879424216070484 0.861126212073046
Ni 7.210496811313326 6.110661176585898 11.430112053303453 -0.21110608148433319 0.17843070273849918 -0.2587758767564705
Ni 0.6865042690494539 9.023522799499942 0.20518623742745445 -0.045471502069237814 0.41091910655335034 0.18398145735339927
Ni 4.6664475457583405 0.44221581915582236 1.784256381632523 -0.18923679221506765 -1.0165460557386687 -1.1243958629348119
Ni 5.95700141843944 5.455038974042456 0.18867902682714 -0.40589877052062356 0.9625346345192198 0.6298369707726185
Ni 8.050968302714567 8.793214023577509 11.362042191162692 -0.014577640703858766 0.3776516027494722 0.18947564769875108
Ni 0.10363442763266348 4.893075794281668 5.8550670870009585 -0.43384460500127214 -0.28789053473423964 -0.48907807155328026
Ni 8.093353147725894 8.77362674508497 2.372174966162141 -0.7527490716185229 0.7385241862683926 0.26264564412452185
P 8.32634771391254 1.5432171049440482 3.573806573435652 0.1879512406344247 0.5072017777371846 -0.25229078325275905
P 1.8137223041810409 3.1779500262982983 1.6831241700473598 0.19489450472147724 0.04754946764418908 -1.0548806896528091
P 4.58584670863738 1.1473388544510237 8.149020446407507 -0.03746405838372903 0.15081705478628865 0.18329060193396177
P 8.56550060727066 1.769655449105259 12.363276768160016 0.45835441721717834 -0.9075595638349209 0.47096619244391796
P 6.380831782422972 7.948636980728615 1.3282426541092416 -0.8075418510886866 -0.7960824442988353 0.4898946539173047
P 1.570120222910486 3.2204614742177013 5.772782431202569 1.009356479968765 0.3013823985730874 1.3181549685002651
P 6.975223392781288 3.994882419862015 5.988546341599886 -0.18436532305537925 0.19869588074543845 0.13861177096934837
P 2.332106954368631 8.395319169620109 10.24178189013644 0.32430609724879633 0.5934707734387585 0.013821479264124583
