# total energy = -340891.6847487626 ev
CRYSTAL
PRIMVEC
9.10106756535000 0.00000000000000 0.00000000000000
0.00000000000000 9.10106756535000 0.00000000000000
0.00000000000000 0.00000000000000 13.32033233189616
PRIMCOORD
 96 1
Ni 6.412020553982512 2.0907427193306685 11.657208722361531 0.290858359113312 -0.6284498606171048 0.2701344963023993
Ni 4.583315768594464 0.1789215253734219 5.9787915413562045 0.01591461434772743 -0.7007677934552253 -0.28562385018725006
Ni 2.9074907141861384 1.6693541954532967 4.972999813912427 -1.768013946651923 0.5314765911241491 0.6984689701187197
Ni 3.361051511489711 4.394459517995571 4.797890725692678 -0.05769298383609419 -0.5646067980192148 0.35347114884852676
Ni 4.7974638856294005 4.520773233096628 2.657273246644069 0.952063816894883 -0.38794192893188667 0.16891067906320587
Ni 6.996536610785264 6.012747624002076 2.8660963291155905 -0.04777752449459514 0.12398913596016713 -2.1996468887138567
Ni 5.24931368225288 4.576471765874096 11.592925152661028 -1.0709246304895492 -0.4548829137288102 -0.07789671247747876
Ni 5.982213542716389 8.023537465808227 12.354714531522497 -0.7308504717732187 0.4238597258744184 -0.08431675707120963
Ni 2.0713574456679225 6.4335718816977145 0.37308642861432423 -0.5592635314294304 0.3944277937665465 0.3070797060681808
Ni 2.6487109623896505 1.2959920044953193 0.34944731602671086 0.631321525737945 1.2980461135655323 0.3484148173715419
Ni 0.6025480017360846 0.2804939886189978 4.704581121582504 0.13292809032100977 -0.5531327359413442 0.5457837517754407
Ni 8.514631065264457 2.407833010261999 1.4072935088420573 0.03943558028780305 0.6564664004346887 0.000551758738411953
Ni 6.73080364345904 0.9601808178248958 5.010002933939654 0.5612533081659494 -0.5010154464208146 -0.7443878441380213
Ni 0.34961204534750695 7.219731188862815 1.9813724614962471 -0.1007165385854717 0.2881499590432134 0.8974618132792866
Ni 7.553858678055487 3.860709215413851 3.820337790324379 0.9193023061931458 -0.036974263231504066 0.496281531280255
Ni 8.044906772174482 3.893900808394149 12.470907859622157 -0.9838706769928345 -0.21922485393672567 1.0924131393806285
Ni 8.04659957071968 9.157039012099476 6.989152004658526 -1.0636149842020135 0.270749761288895 -0.14312071458329545
Ni 6.67450444023005 0.9665060597007683 0.5888891197111789 0.8067790047807331 -0.8918503806297802 -0.6411117723554894
Ni 1.8966169506797896 6.582292424854021 9.46827822676894 -0.0876008271391201 -0.0011742228137592682 -0.5700495663013408
Ni 0.23445532883009318 4.855383078864008 1.2617947435620946 -1.2237983106945503 -0.213413132350955 -0.15590423950120894
Ni 6.171160803989754 2.145776874184483 7.265894533275747 1.4752339450358656 0.5996601900789221 -0.9071283898347733
Ni 3.4627741423481675 4.151761352378459 0.4481347408914931 -0.8915665308407742 1.1675122345083118 -0.44937972452239383
Ni 5.831891211689358 5.506801082471853 4.960038983760729 0.18319264290351675 0.3276261627609648 -0.29313584229357903
Ni 5.374717290609207 2.989300209469906 9.634462808249866 -0.9030840445620704 -0.7502463598013273 -0.9857954048193732
P 0.26880184726945333 5.636018038088597 12.45139335080166 0.1419868580891684 0.4362519288911842 0.3639874749988183
P 4.128025768475905 6.1333640708811235 12.754923961343259 -0.2527990903477453 -0.28997467095677804 0.807518454049919
P 2.2461707491956338 8.44235948866546 1.6379609734005849 0.007997416383179775 -0.8758717458133367 -1.409453556205947
P 6.542020201399725 7.867827302852395 5.61262829474904 -0.6864153813882952 0.16383866385693718 1.4516818687475386
P 4.7644907182678375 0.9241587928684879 12.794991410779991 -0.29667599423635355 0.47082246777720205 -0.15446390751025657
P 4.124813091667009 6.121578188536873 8.318893497568661 0.2341907312179386 0.5375634207481773 0.12144734337491989
P 4.59104257485722 1.1677943684326713 3.92844573010386 2.397727761583116 -0.5251650470838245 -1.3938431033621996
P 0.11553350070973194 5.433510186318756 3.498504933146262 0.5574642734371624 0.6302856282742629 -0.7036155473166656
Ni 1.2790822211782384 1.1258020432308355 2.3929846187217314 -0.28206904295645613 0.03739875236343237 0.9059055731712656
Ni 1.7185181618036034 6.686799982351351 4.734258792421401 0.09611169282360868 -0.8087631250902974 -0.5679374050543445
Ni 6.142783675689078 5.441937774774955 9.29439505233434 -1.1137396687725465 1.7642668209046648 -0.3894856192699228
Ni 8.635311219615637 2.348321130224113 10.384916807605723 0.19277283039278412 0.7315680666655338 -0.17688418418698568
Ni 2.3496953914086554 5.580337707446025 7.183069358864862 -1.7683109090670512 -0.8778023871771462 -0.19260905112141022
Ni 0.6812431117393861 9.281450604104048 9.275440259161853 0.3925447178112207 -0.936194196852478 -0.13293014720353882
Ni 1.4182830477846704 1.1244823884509771 11.343115412940598 1.2475254791081611 -0.3497682460756428 0.8509703545859667
Ni 4.008082800587957 6.655747140221169 1.7564586917779017 0.7097789958149002 0.4527676671580203 -0.40582343719799785
Ni 5.7087446680599605 7.77209317437426 7.790263455532792 0.11052478292514513 0.2817265720153729 0.5652909685704329
Ni 5.4183751111539 2.9996481231574843 4.943348536169128 -0.5901733336344094 0.40757127312704006 0.308147742321379
Ni 0.5509968253943512 7.612660674832484 6.825471126832349 1.0346085696673342 -1.2112754956371912 0.15382627392625767
Ni 5.303073687664073 4.512145421156589 7.307733960544468 -1.4206010881823339 -0.1524255369239891 -0.5210751932851672
Ni 8.362124478050076 7.322818979838365 9.046290852653533 -1.2599454500390688 1.7927613287999318 1.0289644840076795
Ni 4.766902501141371 0.36652273877133246 10.602038243375691 -0.16676792168859023 -0.03235759039509911 -0.1738939912104102
Ni 8.156440353741127 7.136638443068978 4.497517275448547 1.358189615824648 0.9618077836555243 0.6378662688349983
Ni 7.231544374409408 6.081588098173443 6.942650100536554 1.116666098390722 0.07629311543578472 0.2873683436821825
Ni 2.29210383660215 5.06826614752377 2.452673059468094 -0.28254315437939725 0.5538127927275043 1.5611090477331306
Ni 2.28182873145415 5.306404678349785 11.568881952678755 1.1035023073152543 -0.529956554935197 0.25863549452386425
Ni 1.1492190897727348 3.1667346204224387 3.81531582130696 -0.4342032738922716 0.5323281404911671 0.5573321187346724
Ni 3.587950224018312 2.431604998434343 2.4265384341864316 0.243175194104736 -0.13165796535933455 0.4008750920537871
Ni 1.370020087111646 3.560410393922787 8.263801095883185 -0.7193170172123224 -0.40155797705342455 0.28624477160070055
Ni 3.623207759309147 2.695326629854714 7.34367225568036 0.6230811401060237 0.3213696403282917 -0.3149333977846447
Ni 3.969066524441388 6.735690916678238 6.073405328431576 1.1929119055283393 0.6253138860912844 -0.5307574535699375
Ni 1.0462132084042095 7.498706209324858 11.599398741936293 -0.869649933273341 0.49082410771010954 -0.36113457893105544
P 0.10616941241320643 5.722569189512408 8.217019788990582 1.6009074106769912 -1.9102903109570524 -1.5901794827365259
P 8.610920358856877 1.7200107368649604 8.28950888110157 0.18041199483458606 0.07682122002511287 -0.8547365064966184
P 2.001970907449718 3.0598334821864697 10.51156726220233 -0.7600291502197039 0.5107445007831204 -0.8025197152837469
P 3.9635239743659834 6.20422498202579 3.8827174167149083 -0.12812784071888902 0.7033021298413049 -0.4632333425760345
P 7.071156262785665 3.935783920786617 10.568258721438298 -0.001778689166977582 0.07318079505904816 -0.6735722068770399
P 6.446249668651802 7.843117904732979 10.077177863476493 0.1146999973487573 -0.6117849983669141 0.9095213155469821
P 2.4808508743916757 8.378424489848188 5.868365559697896 -1.3975064111463997 1.3421135361983918 0.2538167329789822
P 6.763039624357371 4.228028297586822 1.5902076725046093 0.7489425533882392 -1.1782918416223191 0.306418161224782
Ni 5.323896929983492 2.9392807427795526 0.548905400094962 0.40996779838367464 -0.208568402664144 -0.3238342998187003
Ni 1.3894781693139704 1.0392690939419207 7.181763355686175 0.63272714783622 0.21767473584078642 -1.1184689559274157
Ni 6.801427926850077 0.6933293293093986 9.166519594059325 0.056829093173902126 0.02655409633944459 0.2983042738683959
Ni 2.9310260746048526 1.3650964096226572 9.135283820473454 0.07081538015066514 -0.35514030902083354 1.310602352963988
Ni 6.368471946247188 2.1345916622917533 2.71267235430252 -1.0481037759402918 -0.32467659321433756 0.07233104546424317
Ni 4.37067842875578 6.927632429141767 10.771153368574648 0.17596989990283243 -0.5094527785548902 -1.477603987929939
Ni 8.149268712592656 7.45096200949633 -0.20569959612360852 -0.14529355386489815 -0.7182332972298404 0.6723720159213518
Ni 7.679862956863336 3.812883105978297 8.39767051717899 1.4857608127091186 -0.3181786441948198 0.024142401574158423
Ni 3.168600339249135 8.367557815316113 12.58395767902552 0.9269593085177713 -0.5262122574014163 0.006160877395073261
Ni 0.2997381957363107 4.782492629678594 10.281351210589188 -0.49896550587032135 -0.37372912776661443 -0.150841737376637
Ni 8.71615600174999 2.4654063629336096 6.064906751649288 0.4120323942221872 -0.3126420306473067 -0.11944702511543945
Ni 3.684467044296914 2.6347499249254946 11.767127774563026 0.5911241275834529 -0.09369202763852251 -0.27954807630681533
Ni 1.2150835148888346 3.2936672081099125 12.6958480224361 0.3215215925251237 -0.3054776516883836 -0.08216782904900687
Ni 3.121748044030442 8.190642165208075 8.055497684362903 0.30857300278425565 0.2859043575421463 -0.1645328617104844
Ni 5.6383479113551065 7.974619228278996 3.5482832215492612 -0.5028591844977727 0.2056548285617748 0.46358404104723383
Ni 3.015210948492365 8.577082590087821 3.613819098130514 0.786712058827529 -0.006297145862621412 0.8467738000061158
Ni 3.362826219641934 4.545773865374358 9.580075739291555 1.0206505648253454 -0.5833079739731438 -0.44390121790632586
Ni 7.343232674122656 6.044519450460595 11.20124069271815 0.8285613907631473 1.026429890511284 0.6252159270608394
Ni 0.6229644263406096 0.003968065407022186 0.1949293929064754 -0.05393634500713937 -0.42742636017975416 0.29251132133570273
Ni 4.478953828176292 -0.13112180903346496 1.4694720016420013 0.05393788766903614 1.17322316885016 0.1800013896597287
Ni 6.3340699112964 5.690633543839836 0.06463214058373566 -0.4191319813814459 0.8665484115298819 1.345008855468316
Ni 8.321906861000462 9.145753688464826 11.161226029472612 -1.4170012866462176 -1.1766152252508446 0.4431260303031982
Ni -0.04240551366394305 4.932551029749653 5.585961257021711 0.5680808726107441 0.023684488101133404 1.0345139530709988
Ni 7.793098438042626 9.055625817534228 2.651199194229742 0.8429593113560321 -0.05537024924018851 0.4595684921299376
P 8.457813101190972 1.802411801532802 3.7559477381347413 -0.37017586319771734 -0.31588573439558504 -0.33340548844690326
P 1.7223315090640217 3.196358594963396 1.553670527130684 -0.10867667397281283 -1.0896178360236783 -0.44114910908248545
P 4.848994129516004 0.8353678687458983 8.03920677363224 -1.7383079349470578 -0.674392131675174 1.8942782517995118
P 8.610692832170695 1.6171686747104863 12.617338574208723 -0.6757028800667976 0.5893079003103205 0.09755870968278037
P 6.4584815033009715 7.963970979365657 1.320209034865836 0.4696891255037072 -1.375658719143689 0.27502704850801024
P 2.0084235642698527 3.4289636767814535 6.143830298445517 -1.5437232481565157 -0.22323680330959622 -0.26899292649878837
P 7.084744156484482 3.91508809341146 6.277099959396544 -0.30071622574399826 0.9667527863656254 -2.1400057800124563
P 2.6964460611507315 8.393459453271124 10.436680038818977 -0.6348547357021841 1.2621961937464585 -0.8425024263242715
