# total energy = -381170.61106368696 ev
CRYSTAL
PRIMVEC
9.22728798707231 0.00000000000000 0.00000000000000

0.00000000000000 9.22728798707231 0.00000000000000

0.00000000000000 0.00000000000000 13.50506867764017

PRIMCOORD
 96 1
Ni 7.853400055746918 5.681517949967512 5.706999105374647 1.2436246013918582 -1.1450770454332473 -1.8761707435655237
Ni 0.6998030471737711 8.999004751896637 8.486800771341342 0.13876706560029003 1.782448634020014 0.1677462264414595
Ni 8.88078473991901 3.675201070141475 2.2579930014848064 0.5446630079074362 0.5604799203350347 0.24036960633514087
Ni 4.5188243167133155 6.90519472864476 9.100781736919522 -0.6448848662446766 -0.7268529205780515 -0.2210102279719226
Ni 5.693817924676081 4.256898523707002 9.156544082875126 -0.48576854756407306 0.9875488971753701 0.5158288572845632
Ni 8.968591611131865 7.202627125310917 9.569894283199488 -0.584336158127342 -0.6957091479853954 -0.24978087234671176
Ni 8.14692930965109 1.5544842755091144 1.5322040662583198 2.0043327799564574 -0.4312416201607864 -1.9432819353917243
Ni 7.658344417814117 3.7083823972622634 0.09503737397477043 0.40090903061551597 0.49196284930024314 -0.21929633060460943
Ni 8.904960234094892 8.613830075032599 2.6179845643393733 0.11987562801242578 0.17357466019777848 -0.22337101489461528
Ni 6.092030759276958 2.13046081060554 1.0960670785800122 -0.5116202185198544 1.522041649418024 -1.3362447361224408
Ni 3.9591985356930963 8.86474771362982 5.21261855403696 1.308952733175707 -1.0697398661528286 -0.7225620065121814
Ni 0.694390320118973 0.6880401006182703 4.430067957580348 1.4464465884905284 -2.5954515082232716 -0.43012421872689155
Ni 9.061150535589215 6.278311246461184 11.752664588645892 -1.714608534447589 0.7188328784870524 -1.4775579651833521
Ni 1.14792074540092 7.368912079716849 13.761394404245593 -0.33048934324137275 0.34787102905292994 -2.0981811306671863
Ni 3.1525582588376406 1.0834589124571408 3.6063664254839747 0.15764461923108336 -0.3096207273224797 1.6407052594002194
Ni 2.4279854801502307 3.8501596751295932 6.109409433220031 -0.7005091404772 -1.3131749987871708 0.68644494907465
Ni 0.9506321038075991 8.60236978351869 11.327848560434909 -0.8123804101279105 0.37290406076215776 1.110029824021127
Ni 7.089749713000403 2.3573413643446806 10.092608144619794 -0.9958291349062915 1.0007430272681408 0.40183951284958536
Ni 1.473570188322742 1.4608642129486245 2.1945867702714557 -1.0657991363375259 0.534671186802047 -1.2445946786146111
Ni 6.7496503373001735 8.120714584859611 8.532867083220603 0.6028311316077359 0.2557363185991983 -0.6066474200300327
Ni 7.892293074048954 3.471185735703033 7.421251101878845 0.753548941811999 0.2082315881500156 -0.799224846582559
Ni 6.779915841459291 8.510945815467307 3.949003305343887 0.678872793154347 0.07628025991997832 1.261901545324175
Ni 5.429493036827885 8.325966375870408 12.838188568124624 1.304611939708508 0.5782182181550622 1.7645668686435867
Ni 3.778159148009595 2.605961408266407 2.0356328960650414 -2.365720869659216 0.5017227569004843 0.8779306852248945
P 5.150136897066519 5.366166160290073 6.998137508276812 0.40097176553265135 -0.10417235834455608 0.6293546318195612
Ni 3.072373127391686 4.711065631850833 4.083122857021688 0.6398007668535497 -0.5849429384734054 -0.35557096880034894
P 4.115545701080928 7.597102908331172 11.468841518834703 -1.7631879860181894 -0.16834117971298104 -0.9216322398779031
Ni 4.858176282097421 8.148977767554543 2.773306578046694 -1.8852973884571402 0.7612815345695663 0.7135631454476808
P 6.9804986248162715 4.604905685097587 11.18755779864076 0.7373417359245172 0.10394173039098872 0.015719981838418086
P 8.255986624790301 3.432707945354399 5.081768230445614 0.3193734358338693 0.1837171479484191 0.5544558256281419
P 4.753778747324172 2.634575227899768 4.60352712829229 -1.4123056809427612 -1.2270438142150417 0.7188673312694135
Ni 0.36290277217231137 5.1646514208599 0.06446367840134967 1.2265897573967584 -2.2844593544745626 0.8857414395185648
Ni 1.8085391919764873 6.313402622167625 6.056766833287659 0.14988477278000636 -0.20674060542678588 0.03429671639934094
Ni 1.9537490209252777 6.9299238600918445 8.409214044154902 0.17627380429649642 -0.002589615104047153 -2.251569288614761
Ni 8.90895564973541 7.213229279054461 7.141412374962746 0.9082959277803131 0.7696517609111325 -0.07116967816629034
Ni 8.522590652738284 4.290162896418471 9.641673355411005 -0.1578672767648507 0.5112679773867581 0.45082082784429456
Ni 7.992916648090167 1.5939032492187943 3.7249952063135057 -0.5550150405657215 0.49712228201399555 0.45410129836777924
Ni 5.5511825090383855 1.280922872519676 3.0750232044631796 0.4783231470296213 -0.43448609524001297 2.481124063722585
Ni 8.546904556231965 2.0492145410564455 12.119799917756556 1.9581827637629565 -0.5705576162860109 0.4499697926979089
Ni 8.002845209820414 8.773268381851317 13.073460417437637 0.5052415686870203 -0.07260486795092011 -0.44093545040978255
Ni 8.186357510648625 9.090705538583622 6.068178220175946 -1.6432087425483637 -1.4919106343605986 0.030974336894327298
Ni 3.5530410062504516 6.041658994885305 2.1421065706053026 -0.6876178863368287 -0.09387277619076091 2.693649137041632
Ni 3.8723051659777274 2.5932185237408762 9.033405003742859 0.5730392450572841 -2.303997938728122 -1.590819944534002
Ni 6.851141276399605 1.7562758335748891 5.763665725539884 -1.1885004067242049 0.29008291439986816 -0.7213579589017513
Ni 6.500725792879285 1.4180865064603108 12.220668937654667 -2.722518511777815 -1.1365718361757136 0.6064299047025878
Ni 6.4320286348108 6.378104364595592 10.176325481856026 1.3728647013383195 0.6649420420058678 0.7823931197372008
Ni 4.084311331697205 2.1555590335667594 13.378187907880683 -0.44202534103985164 -1.1640523009841695 -2.3092039084090943
Ni 5.383292006545964 6.146333348294155 3.9791331683715594 0.12671707641429142 0.7588700969145963 0.1714396161326467
Ni 7.199803575227779 5.824688548300704 7.826929735081899 -0.5656056715973743 -1.0172176278843967 2.421824397521003
Ni 3.874648897092489 7.127692320653541 6.729048571709911 -0.6188295639185213 -0.4127972974126697 0.340241280421814
Ni 0.12792435061303592 1.6244917084527803 6.365154788822145 1.6161926189708358 2.73914455037027 1.5425878490004916
Ni 5.39044315463234 3.9575837603187534 2.9828370624351064 -1.0292642746362854 -0.4450918957803174 1.618692245464238
Ni 4.132690001912526 9.024721203144033 8.257566336470802 -1.1621458279900758 0.7266256350585938 0.07616198917455916
Ni 1.3812419460617265 2.776638551690553 9.06749245053085 -0.8261437824605901 0.8795311969427949 -0.3061574513642276
Ni 7.015534636795591 6.338777663764446 12.66318936306995 -1.6522543976903996 -0.3748578420544189 0.21067465037386943
Ni 0.4318730579612565 5.019690728683151 7.576086837516291 0.7956371292313008 -0.5134338746898255 -0.3277709158689452
P 6.972267884051048 4.6267651300222665 1.9761159666818937 1.2122157480632734 2.0728377668063915 -1.5648600301351308
Ni 2.530509875489241 8.290450544922711 1.6923205787342612 0.9632697129130313 1.2289490016575546 1.880818012529548
P 2.1773262056129052 1.6019955806662167 7.549630357783053 0.5452978132779577 -1.0755713852329412 -1.2906513637633579
Ni 7.876745094015993 6.440748421832254 3.2633512268220737 -0.809712119267128 -1.195178847185645 0.14065091288656423
P 1.7556760598644188 3.829121458823865 1.4347242291887574 0.5401466080943214 -0.31541727939959874 -0.29431957818903504
P 0.5226704931673944 0.14746036445623215 0.774220200982572 0.49780105324857493 0.445783008310071 -1.1330692223390937
P 2.2753938209187288 6.756663076068749 4.005184570168034 0.3510532834356535 0.5278533925492651 -0.39034488194642447
Ni 4.216815185271878 5.5354315286726505 11.265563444695745 2.267489559389443 0.26550702483271693 0.5649163588398336
Ni 3.3269816811302624 4.917350879101209 8.06687428296387 -0.17966817469002608 -0.055987828219529384 0.20059284065783517
Ni 3.053189595944489 9.069095230430984 12.821346922334618 -0.333990928636728 0.00497071374171402 0.26695764123631444
Ni 7.950129714314 -0.10177883048045679 10.701848129698904 -0.7962760483668803 -0.4330010260540543 -0.46521489178243747
Ni 2.883158362670081 4.126775310398504 12.693359826164178 0.2551693903521347 0.5897169628232811 1.7056536392471462
Ni 4.6754021642974815 4.358103416882978 0.9253539487332386 -0.18653636256476908 1.5932277826445465 -0.8172500795153861
Ni 6.192248332652621 7.210636411167659 6.252103903499988 0.04820998404632342 1.6250485266995691 -0.790251439439355
Ni 5.648373531998137 6.593866036471399 1.4122926924171675 2.236644548984129 -1.0665969496484728 -0.8772316022753408
Ni 2.9571704385421183 3.991355633862159 10.355997385479656 -1.3034256327098908 1.2501127802193632 0.4792975951277487
Ni 5.950954755286486 2.5257578222447457 7.7421448006410305 -0.8623572562666696 -0.8553348022022496 0.7512159228034482
Ni 8.3017170633917 6.802808742623551 1.0445308304612613 -1.156481430615447 0.1205669976524956 0.07563439880586328
Ni 0.6543494272079745 5.005102386586943 4.4066361828054506 -1.0504095412553327 0.7295736619433242 0.5084775591258146
Ni 1.6225262961400084 2.1304331287419798 13.269878003057595 -0.7537484594173148 -0.5948180314952725 0.5636400632305713
Ni 5.599819543313601 3.7752156431843638 12.540050283937683 -0.37248702782939724 -0.29762653107508097 -1.6601083465171798
Ni 5.943351470095292 4.283297794255549 5.264613398362025 0.5247914657944898 -0.4817470851095058 1.118947438225731
Ni 2.473688236888069 1.3674932871601762 11.00555046846144 0.24704187614899387 0.6051402393568869 -0.25940528281035324
Ni 1.8826527680149114 8.785715993165539 6.322775701169098 -0.46311172939650563 0.56905609203982 0.49547780443203693
Ni 5.4920355938981595 -0.3950663294428711 10.407154392067632 -0.13109746487017424 0.9893481551676382 -0.06414722410187015
Ni 0.9645560811783639 2.8053261896267405 4.031856968437041 0.8834264182321431 0.7584103836693584 0.8675259449518028
Ni 4.163841325705569 1.5399697517157327 6.577995101363569 -1.3096651858616994 1.764492820872542 -1.0683280734069667
Ni 0.9056776801146709 3.676880436530792 11.579435177401502 -0.609811419580311 0.5218195276503593 -1.0168813275909
Ni 0.1310413284499109 7.5867775732232285 4.687960503065946 0.9210426859230202 -0.8373327091978741 0.062244864872834725
Ni 1.1250186169488072 5.98281658024424 2.2937552010181883 -0.19822768285976827 -0.23161808539475595 -0.0901549610195415
Ni 7.822525550589476 1.0489488558854643 8.381690889945812 0.22690859573422856 -0.03069691486322455 -1.1601437099583827
Ni 3.4957580032566096 6.64826089836713 13.617565900288454 0.589848603305139 0.06513092817137814 -2.6469985270626286
P 5.7458598281691975 0.20980268938008756 7.037490968242732 2.2807263697946913 -0.7297919486017173 -0.7903943927751226
Ni 2.631991587300819 8.298386012476627 9.875919130314722 1.5336357820135265 1.0945970344058247 2.2287216945926263
P 4.664477055479069 2.2803396472081454 11.101125793318062 -0.34737326348090497 -0.49887448881841184 -0.06202272155969963
Ni 1.9711516858167704 6.215473416179602 11.707017195635176 1.5092365272335557 -0.052944413407515274 -0.6863912130185792
P 4.422675977280997 0.5348800404549995 1.3355207347481817 -0.6164052707477449 -0.9543464422814726 -0.8825874672706155
P 1.2014390149505787 5.4609765429836505 9.577943246394002 -0.17596295792429698 -1.7636050189509498 2.045732425949167
P -0.021862213111035724 1.579970044560176 10.119321142955357 0.2653116209924592 -0.5942323341951314 0.3212207734552532
Ni 6.648491580563464 8.995858246738631 1.472835696209612 -0.4085971432883931 -0.8602566649838991 -0.07318105216936428
