# total energy = -340887.04055697983 ev
CRYSTAL
PRIMVEC
9.10876015549124 0.00000000000000 0.00000000000000

0.00000000000000 9.10876015549124 0.00000000000000

0.00000000000000 0.00000000000000 13.33159121514835

PRIMCOORD
 96 1
Ni 6.753207409173192 2.1293001951693387 11.203042574231253 -0.0944546168361599 0.12072743448975981 0.3020012631040089
Ni 4.698553502993658 0.41092987035989714 5.6085468737779625 -0.19284225017813886 0.12683868959382028 0.1618532579957922
Ni 2.7621950641857658 1.97213764846646 4.324021327102872 -0.19440625223114907 -0.6395277156978212 1.5747515782172299
Ni 3.34547451695723 4.619453030316726 4.397372350406972 -0.6435862020379111 -0.7678121365992325 0.9855097552581544
Ni 3.9603613672631206 2.984175547734459 2.423923040486634 -0.9634610029882311 0.026349950748438485 -0.8531586204865371
Ni 5.532551577417885 4.647544446453951 2.7820630917079816 0.2198581166453504 -0.2258233330898498 -0.8002705142382541
Ni 5.327422300047488 4.232868143066414 11.543104469289323 0.24700253827062624 0.7105598398449826 -0.7715299517704519
Ni 5.766837995856783 7.955946309818928 12.463424441394888 -0.7194052060507546 0.2760899425548858 0.5517841923332497
Ni 1.7096231824888912 6.600581024998309 0.3580289243481718 0.6935422222410635 0.7296708496428207 -1.3532903787508177
Ni 2.5810036083486456 1.5051315183252405 0.12639953122938674 0.6917185387687637 -0.9078747810824945 1.6106675753875488
Ni 7.9535233796332925 8.729061431758975 6.7800873602176 -0.6589667982590393 0.3218625208043102 -0.09191668090565461
Ni 8.973786489268319 2.3975531800076246 1.0017395351030358 -0.3983368990129656 0.11416546500152597 0.42032137370385675
Ni 6.7546739195487095 1.3857612172622273 4.833888727877591 1.2756307219848098 -0.774275375726073 -1.1545338199707729
Ni 1.105366255215472 7.669029475543168 2.7079132301434297 -0.8049563497496975 0.14683210199661165 0.028155379388293447
Ni 7.697594547205404 3.969224190836895 4.103770597096481 0.0691513621846809 0.24255247291907256 -0.33272028945442056
Ni 7.868447560333136 3.974042724927878 12.47628965415501 -0.21127011786602323 -0.03493614975555274 -0.6848346671647366
Ni 8.260597900002335 7.510728333828242 9.246258651783247 0.49997543519207444 -0.9298402296099921 -0.6940939809794756
Ni 7.115909127450806 0.8066362699707204 0.31521866277121224 -0.45780985756761805 0.22726289374985378 -0.9744637818566378
Ni 2.094714233083397 7.034167114345923 8.823553887246764 0.180021958485019 -1.483632453512206 -0.182083468999738
Ni 0.1911527958785171 4.974895066797527 0.7751254252933157 0.09466081930969504 -1.1675484870628858 1.1770826518055664
Ni 6.794552071250646 1.7980965693049955 7.054424996800265 -0.4271049722845935 1.5306831271431056 0.199614793015282
Ni 3.374540570424767 4.323618719906612 0.310329991227487 1.0135977717436222 0.3901062835730572 -0.6810366335748852
Ni 5.782650803384092 5.514406927305902 4.93979445976614 0.8021530759729476 0.479352102514768 0.6340767198855789
Ni 5.034165768744648 2.6764907404389597 9.384840238765529 0.3871412874074623 0.13165308026332811 -0.3968315181120327
P 0.23179061817249091 5.822583607646607 11.891139262059752 0.6791676986869465 -0.5152002225616289 0.17568193634876839
P 4.5096651448751 6.03775073864321 12.496220532121892 -1.3326796444790017 0.3822266237146643 -0.07108097510722595
P 2.3376357560936603 8.518685508573064 1.2133251016297446 1.28454525086562 1.0706333245013755 -0.6875276406158676
P 6.454066618848094 7.881400217190183 5.396535017278744 -0.7614291158910241 -0.1358174960536629 1.6877983562332803
P 5.1425600138915275 1.4682683662152052 12.731829542526784 -0.14904376493594979 -0.9996024859057947 -0.269182159691459
P 4.181886412806995 6.460971059001148 8.008113089766885 -0.02033665467482304 -0.24426199941101157 0.06341523103185208
P 4.7641639019678585 1.3771443302110553 3.5847844165892795 1.1485068970504024 -0.1518562946840804 0.133258477077235
P 0.2950883029582203 5.862006321343723 3.5259527568788034 1.540578531879947 -1.4589359792067909 1.3782812443682004
Ni 0.528141395280069 0.1753272360870727 4.802145609817729 1.035463461468462 0.7728090755931917 -0.4927007559075321
Ni 2.020368533176773 6.6464618496037575 4.948673679108088 -0.478542205018963 0.49256345899871945 -1.174332599864255
Ni 6.005997600947241 5.710482097140501 9.254724333416819 0.07493865829041933 0.11144035276087905 -0.15576411437891885
Ni -0.021086779623111424 2.338564849623491 9.96397793832117 -0.4067698602716672 1.2900803217512362 1.752682201390859
Ni 2.6290432090969347 5.113512177944183 6.971488825246747 -0.11782620168256483 0.9592459364656188 0.2725780727468854
Ni 0.7170033379943475 0.15451645189488147 8.918114658435277 -0.35423810892153834 -1.6465627466222612 0.5721586422245436
Ni 1.5723086240360165 1.0064997731294023 11.389911520236446 -0.45024927161154066 0.740314445399596 -0.6475834961227621
Ni 4.115237615181809 7.069418015918901 1.3469569883756543 0.37497199903478 0.26799122470715137 -0.5684768224975822
Ni 5.763112512977365 8.185933393492338 7.844374929150433 0.21347175350303232 -0.16283567651371958 0.4364403907529064
Ni 5.06233916372274 3.0841350810320938 4.957738717156002 0.32281280053272143 0.013771085642163379 0.44991579953152194
Ni 1.025218275127456 8.177471355362803 6.847318207612944 0.628878206403775 -3.661453504600223 -0.008204390187663288
Ni 4.964775234330452 4.403220174388846 7.335028549453227 1.3951332829285328 0.9503118672007828 -0.25978657740917194
Ni 0.7540304477861176 7.843234512386366 10.906067847057075 0.11829337112697046 -1.5205923185660069 1.202749203333735
Ni 4.909621691946893 0.48833793541092324 10.672085661205395 -0.027508746943230043 -0.6113641087794116 -0.38482780878293726
Ni 8.279544121002798 7.712405391122112 4.33732649297565 -0.665862496937608 -2.144722211651519 -0.38852222691538896
Ni 7.246975076477566 6.29746881527119 7.132241134303608 -0.770902088378466 -0.5662574462487603 -0.9291213491660966
Ni 2.324947253279408 5.377283652815052 2.2501989461765235 -0.4550122402178228 -0.1947302112294711 1.0233281116575086
Ni 2.4753146649503903 5.353327613761582 11.621041753301949 -0.16347870941435716 0.5955040018187034 -0.42060008128654014
Ni 1.0012713448340822 3.4692898929472746 3.390756896024346 -0.037675145953270595 0.6102441362423555 0.3761130546177587
Ni 1.4002623633356588 1.07812195376721 2.4453067656888874 0.2393079978398459 0.17691606586618566 -0.19772348952984012
Ni 1.3034908960717557 3.3318022680525687 8.298728991517786 1.1899433098183183 -0.23127355757114365 -1.7984396101316318
Ni 3.6099473663555193 2.6079837557541126 7.125295704730121 -1.767928328916652 0.7126848566077855 -0.8322972036564956
Ni 4.236438777024193 7.1180587948335505 5.777364989900165 0.1290701500275003 0.14277361565652186 0.2151763948989649
Ni 0.5942008561270198 8.77946931013232 13.255587802448478 -0.1290503525331584 1.481377081819126 0.5192309409875767
P 0.19015629752397353 6.3843846041108145 7.708272746666386 0.6157720080391201 -0.6959014665018596 1.104363369763969
P 8.864299192909874 1.6682420853710531 7.949801540257913 -0.8184173603506099 1.2501531465389955 -2.0777647717943637
P 2.111064457456393 3.4680602103342637 10.391628759589985 -0.7786205400686461 -0.4502749826431535 -0.9612907348097895
P 4.190412212257203 6.253719440528295 3.3940360496590416 -0.6431360018743698 0.8625724576012693 0.2671823556526108
P 7.302483860504884 4.017063398863064 10.20647954749099 -1.302066804689151 0.7268434074963547 0.5757782412550019
P 6.477521676096263 7.8881953522220805 10.136075208078067 -2.6047761280583077 0.4164932582070182 0.5907176361736537
P 2.566930573999744 8.77426820811729 5.406093750123881 0.907743654821269 -0.2976779531383067 -0.053618556656404436
P 7.368513262443517 4.031682958817748 1.5756606477514832 0.14611707820745803 -0.6178435458561682 -0.8805825210254448
Ni 5.701473533405185 3.3168001401738367 0.37902552724632904 -0.387260586594146 -0.7674079591822783 0.6058637477864728
Ni 1.5128284206066787 1.1261433369953067 6.64959799570494 1.3520904449054458 4.091182030550593 1.0398459068068735
Ni 7.330374883919988 0.7623895569265622 9.117622009074191 -1.3966808299213107 -0.8852742700741593 0.9520483902759153
Ni 2.5975815517240504 1.3471036394132059 9.121208127924135 1.9014269470291514 2.9178110232686585 0.058748164573485924
Ni 6.728049013787001 2.191449265306915 2.544574033219198 -0.2701632926578057 0.19049071922682678 -0.27308792250376834
Ni 4.2035652618363715 6.963783725081222 10.515412254919692 0.3170553292236539 0.505599209136755 -0.6977876277809789
Ni 8.242343944769196 7.004827798075494 0.06339879202279919 0.7391001133765207 0.5865647903475446 -0.3215884412073171
Ni 8.093443043473732 4.101128145792521 8.229804825620525 -0.7677925962152068 -0.03953276798729966 -1.134801117428536
Ni 3.0065011187306774 8.377536162119615 12.239933725422215 0.8587487129798049 -0.6868532402566622 0.6935656192798313
Ni 0.7471159879969582 5.176025598485614 9.65531120668728 -0.42350877029290285 0.9557919164787475 1.0453475533513932
Ni 8.879611018631884 2.750226153419127 5.900282242144707 -0.27763440422387026 -0.20593327903414213 0.20909727858442054
Ni 3.5901631394261897 2.5040072592539757 11.57159484911877 0.36856892372191363 0.10083892309594893 -0.25773843663089163
Ni 1.1710495242704424 3.357744016807049 12.405911730146368 0.32700729823004326 0.21228004718777635 -0.2470806998067293
Ni 3.419601606621541 8.70750099661085 7.739002059727522 -0.5784686436029716 -0.720121772501805 -0.812191434045556
Ni 6.070988604234887 7.575928838598104 3.2306713482065397 -1.725661449827641 0.40859354374396734 0.8780702961265523
Ni 3.411567680216537 8.67869909718611 3.3008215532127734 0.25457083753618737 -0.6292301904265551 0.35959191703428395
Ni 3.59297774629597 4.727282532337631 9.421795389352535 0.048773055638645035 -0.042619120222107246 -0.16924055159879886
Ni 7.155960345594573 6.1769963542365165 11.3802197994939 0.36238079263333073 -0.6202076752129706 -0.4960200500887523
Ni 8.101950625403747 0.20365456911079374 2.2846482768610192 0.5042866609729186 -1.248752666647043 0.8489222138076865
Ni 4.934825631133567 0.6694811148195323 1.530066749089071 -0.11685689579076004 -0.5872939552040853 -0.6831125422673074
Ni 6.210553026431567 5.742280778636951 0.41875884966273264 -0.3616192318769579 -1.1518408465196421 -0.3845802115485054
Ni 7.814724093284709 9.036891979216016 11.524480698396273 0.17998467748918034 -1.0874874199442368 -0.6839792611429769
Ni 0.2177676820041194 5.32379701352913 5.9238793960503795 -0.275382632075216 -0.992429108085807 -1.2095587700564008
Ni 7.630590507936459 5.932535450769966 2.423483087373979 0.2010785220450021 0.8463032881276006 0.3473645217301566
P 8.759038361236149 1.72629221346526 3.753269152091954 -1.2013726347011826 1.2747148950387597 -0.9329718332604383
P 1.931102684232284 3.177809569863229 1.3600089307177519 -0.5375289679658162 0.3366728463442653 0.6644093094308493
P 4.86443313310877 1.1682258086405657 7.798901266121293 1.1875943499701676 -0.8253837643661138 1.5848277315063093
P 8.749301096693122 1.743152528403653 12.192406947867353 -0.3610415049966169 0.019316698050740926 0.9204143083104018
P 6.655925851343892 7.644499584603626 1.251048120692878 -0.44254341832685073 2.588899051816735 -0.3537403433495134
P 1.8442233304330458 3.4941385904901896 5.870699721979705 0.31458089954123236 -0.6301611868812567 -0.928178525636853
P 6.818744938066621 3.9653711853161275 6.195883368296353 0.592381911249954 0.20845398857346678 -0.11617298234985798
P 2.587953592302181 8.643921851138144 10.073270307213553 1.3968664635695556 -0.4862053779911755 1.281238040869258
