# total energy = -340887.6633632424 ev
CRYSTAL
PRIMVEC
9.03425753221862 0.00000000000000 0.00000000000000

0.00000000000000 9.03425753221862 0.00000000000000

0.00000000000000 0.00000000000000 13.22254909514856

PRIMCOORD
 96 1
Ni 6.458536293339671 1.694356876324698 11.367954043402966 0.25743556067849216 0.42371960075212833 1.2898689770713785
Ni 4.464016220308594 0.24291039831699396 5.838601044593542 0.8249525903659662 0.23948154730323276 0.5123162161456145
Ni 2.869379475368245 1.6138435758266616 4.504340627486891 -1.155679246429126 0.6462907454532676 2.274555207986973
Ni 3.650887897673298 4.404453362343653 5.446698579346166 0.05617423319872261 -0.7348266828121474 0.31564610758095313
Ni 5.061632336550189 4.397207888039408 2.615327127600598 0.5811423337803927 1.902894532713613 -0.687298555324197
Ni 7.418597775680988 6.275574515771647 2.5812002208870277 -0.40635874087617757 -0.17485841200620852 -0.675063703820902
Ni 4.986322768220787 4.483087537336349 11.42175665895346 -0.47081963956372463 0.444407468118783 0.2540291061001045
Ni 5.2316299549828145 7.973888396766244 12.331070911541907 2.090333866708626 0.3724083520726619 0.6832436685285329
Ni 1.9342615772588714 6.470714472095434 0.4284595871577557 0.3284167769830602 0.6351393568221385 -0.40720334826466004
Ni 2.39643610900018 1.6740297975409701 0.42170647987293947 0.3842691080659898 -0.36260704971152385 -0.022190162943794042
Ni 0.8408029628300483 0.19065896473412902 4.681152786153545 -1.4591416674596935 0.21829231482012726 0.04230364586421747
Ni 8.58434219254192 2.4803282217049336 1.337685304025279 0.47708721773999124 -0.5330225954550305 0.6862274337472052
Ni 6.67230488808659 0.7908046730021441 4.653107741412066 0.4453394930147492 -0.9390131543585118 -0.5666400263991596
Ni 0.6079187831949125 7.537118196375976 2.3271822032968816 0.5206959555688774 -1.5649996410367886 1.4111443136448085
Ni 7.4349768840520545 4.053490537192428 3.835411698317636 2.4166045438829604 -0.46800196760927143 -0.045514696602347415
Ni 7.564166762544191 3.9262068869773437 12.637635782926575 0.8722919988818784 -2.046708159598875 0.6692951767682408
Ni 7.8536424329389485 8.850644993123227 6.900861658505101 0.6306383836279913 -0.5683498100014147 -0.9911039615164802
Ni 6.875810566612035 0.7514758409713876 0.415291253808795 -0.04242577326437855 -0.23711433262263681 -0.014603351735471625
Ni 1.6739936605120214 6.645039499744683 9.113959261410464 0.49344997536873086 -0.4643530580027745 0.40209405206255266
Ni 0.057639464599138386 4.979122465202729 1.2261682395405773 0.23489881302855672 0.8007289419319114 0.10299196488320972
Ni 6.517213794095365 1.9425640596598694 6.622672485676793 -0.9064228791273163 0.011690806074366962 1.9103970117382452
Ni 3.0818381028157678 4.340382410017343 0.05660955927409618 1.945629095467662 0.1888657820288941 0.6808083196141629
Ni 5.982991060887288 5.484616260396471 4.924831096335701 -0.7489479527048778 1.7682995962131416 0.14716454563536593
Ni 5.188012561041552 2.6284448691090296 9.70946316831 1.5360695882659996 0.09306467846716875 -0.8858185726134035
P 0.3617867687471287 5.856375945707757 12.184829775940257 -1.440998935112396 -1.3425189991669266 0.17225491294509043
P 3.995788736218353 6.269124056104277 12.664266062984705 -0.8213985544661209 -1.0650481171041142 -0.5761927030846012
P 2.318118133010786 8.50147095090497 1.3853265561399943 0.8616615157512257 0.3898265475491093 0.6200942895635578
P 6.298702214298911 7.707712075786257 5.703229023873982 -1.1301895867984535 0.4439914636272869 0.47074944844742156
P 4.78509372251912 1.2449025787733847 12.8885604708387 -0.13482607867467103 -0.9120247986951262 -0.8997770916760246
P 4.028592124246671 5.9020350817846285 8.104576155108312 0.29275300503286356 0.3238954920739389 0.3649454680367134
P 4.7248984665475735 1.213653082989867 3.7181145160525664 0.8013439498080908 -1.38666586888747 0.21718699757109047
P 0.18999946395581252 5.757902541822144 3.7010045362710096 -0.7338818024003748 -0.056392519857115776 -1.049917946330895
Ni 1.461706683952006 1.2496726665946327 2.6259983922491927 -0.9107130218622379 -0.4638696906084528 -0.9083558344839711
Ni 1.9626562477554297 6.299650811308818 4.7813002379052145 0.6201439118545707 1.0553455451043694 1.3051786108452557
Ni 6.249772677102169 5.817745461761438 9.300515769933176 -0.7044596404845158 -1.1853783161554552 -1.0223945440996456
Ni 8.518934170144501 2.1478585211182826 10.194532314741851 0.28024561659447217 0.2775490435989155 -0.40765611953136244
Ni 2.1439015164483837 5.126100796194937 7.146708190424189 -0.01898065486756086 1.209001354891034 0.9140716539218257
Ni 0.61479114267526 8.914020307642271 9.15526659577617 0.2779974439902438 0.5750225940359001 -0.06751691190505146
Ni 1.4913480819472997 0.9957739012000174 11.234630992224805 -0.2949559262214533 1.8895996153769197 0.9308033648542098
Ni 4.155387924570946 6.817187271399764 1.704717362524333 -1.3895215931687102 -0.20496885823834377 -1.5175658730348573
Ni 5.567785632522247 7.741707985769888 8.12681668957488 -0.2232190626977833 0.7397729710738292 -0.9780545845316897
Ni 5.397029136481698 3.108949908784642 4.519942789735556 -0.709238807040714 -0.8216685202980558 1.644607165557787
Ni 0.7995823573338197 7.25814033289086 6.793798482838344 -0.36351979133378043 1.1981831812296075 0.6279407821911701
Ni 5.394174311194739 4.316206737650563 7.435409624973717 -0.43696026781211844 -0.42094280933793954 -0.20815651193770604
Ni 8.32326119264372 7.089533990072766 9.738644722611921 0.4563759533345689 -0.7851915084179445 -0.3441655551768847
Ni 4.744954517614185 0.39776298791715564 10.207794604366079 0.24489011991331375 -1.8665848996493015 0.3030299614788394
Ni 8.12596204884024 7.56796115058382 4.593487064200807 0.2380838956247577 -0.5418720754258604 0.38794912802073833
Ni 7.32331346460011 6.210193596145942 7.021953228809799 -0.1448757496011892 -0.36236459468341464 0.6351861508996738
Ni 2.0587626762448945 5.425089539460479 2.671735222938304 1.1631408449134935 -0.7967344760605375 -1.710749822823131
Ni 2.2364665161008612 5.368544123412766 11.093520411308166 -0.06923440881679044 -0.7102312528609703 1.1900960333460988
Ni 1.0561227395445958 3.3476530535062663 3.768519347456145 -0.3549567322551177 0.5270982595507954 0.23164791019142683
Ni 3.5808362670559535 2.6966354427355084 2.5622653211435544 -0.575796238977131 0.2721669533513958 -1.1716720223129562
Ni 1.4270783759617711 3.1521517268929915 8.375056396236106 -1.3946234331716498 0.034247351218644244 0.032199210440363904
Ni 3.4675286127868366 2.4608503631015037 6.971483350754113 -0.20259624424110914 0.6778736624658712 -0.25781788371857534
Ni 4.053689290851647 6.823402840378965 6.0008554011481525 0.824588007937696 -0.01986639990662385 -0.1558906126544541
Ni 1.2474412050570414 7.617748942218097 11.390128627791704 -1.8636276167931907 -0.3734175100634666 0.6819704582430642
P 0.048474210631986474 5.513733671472006 8.340638586439498 -0.08085990887086075 0.35720336219744936 -1.9590474257560968
P 8.67809067989247 1.6386877832289957 7.956510099544743 -1.0049344396416693 -0.38766039313572587 0.5343623973123764
P 1.9337195218246388 3.2422774770914216 10.759861802469098 -1.2710443881657079 -0.5784100224508941 -2.472890620069199
P 3.912131514201767 5.753267967859453 3.8999379772087015 0.4321695312916944 1.3549646811294471 -1.3212084106146085
P 6.868601229336739 3.884721577744065 10.453760388480697 0.12402307452189608 -1.6453815818299662 -1.10528176781318
P 6.438037563668436 7.673716165802627 10.564617952187083 -0.4519423430432475 0.5494126067772797 -1.1563744727239373
P 2.4298357580061536 8.429766051213216 5.816453562976517 0.2623995895519868 -0.5399967127800184 -0.04962280523345002
P 7.173480308320944 4.143715664220467 1.7405634883901442 -2.005598534042759 0.5023102539728381 -1.962685022508684
Ni 5.4887178131821655 3.1272262111755227 0.40543939629161496 -0.7177720413227058 -0.03177574974970011 -0.19672281617946763
Ni 1.4101933491854215 0.8340363041593764 7.153359210602224 0.8548254666659988 0.47796422102830594 -1.2557260126410825
Ni 7.127423664925635 0.34253115287173436 9.012793648868161 -1.038674512206592 0.656504966982108 1.0067478387013242
Ni 2.8114608522204767 1.437919484646426 9.207508091676075 0.2733797427125743 0.10299325043479036 -0.0662976947859697
Ni 6.26655832704891 2.1870129919843606 2.458640583781282 1.0949952982855078 -0.9315438425646602 0.16290586763002265
Ni 4.016775315780397 6.578312475790633 10.285992424734218 0.9145647915081604 1.401603721144225 -0.3502492994771194
Ni 8.011290221728304 7.18661611834385 13.291437751777842 -1.0515729654358146 -0.649644749527165 0.027275033665869156
Ni 7.773698290646856 3.639043986435313 8.059738233014302 0.31375146166140155 0.6589583136186071 0.9942921294364747
Ni 3.038121332044897 8.642829973895632 12.505423945388593 0.6742846595630323 0.11788070906958407 0.5611473787157045
Ni 0.04017534193388324 4.4376271549186965 10.171194118020962 0.06922438151446143 0.869965921851863 1.5819951471535205
Ni 8.749858819384887 2.6555295723061922 5.8676254028195345 0.4537341448363476 -0.7672647487361947 -0.6446362405689801
Ni 3.629314091390835 2.6072324331160552 11.707469561208919 0.8458116932031626 -1.0279008186298555 -0.38837927357962143
Ni 0.94874155802309 3.5028886956132856 12.75977261679362 -0.8036607708667256 -0.2657438234338713 -2.2465738922826985
Ni 3.0974764020933825 8.036866203966852 7.934904673361949 0.3828735132700439 0.8293964850699328 0.2830810291607383
Ni 5.41623596736801 7.379361996499775 3.425989098010134 0.9396603010242074 1.4024673546961008 1.9452277462641854
Ni 2.8492872872726847 8.29354752059053 3.569942759679323 1.0342442443493802 -0.0864343176348447 -0.40094734005261917
Ni 3.6106222131670425 4.009376259103121 9.269204841200445 -1.905349679122325 1.8413042707056417 -0.3243611188564478
Ni 7.028082972345248 5.696316010236067 11.456690324838311 1.1651339640841225 3.0761678380754183 0.9206091979300274
Ni 0.38414023142916315 8.867349334754833 0.4845587108979494 0.9069424990762123 1.6674226207904055 -0.8638734358008799
Ni 4.567431362902964 0.4025737298959712 1.6655384991637143 -0.7874052282398116 -0.5023912437224186 0.04804980431937531
Ni 5.936816972147897 5.517509990997161 0.4129071133238946 -0.13697294981434474 1.2649477883496667 0.2532356636645316
Ni 8.220595893400038 9.000532354945816 11.2302014959014 -0.6899406209327344 -1.1843591308623216 0.37890398709933454
Ni 0.0754848329198039 5.311854159249259 5.763894061221863 -0.8001848965029832 -2.369879629022596 0.22418811147927195
Ni 7.956136081295122 8.976040483575733 2.600835275566385 -1.147567673065585 1.0657006630864485 -0.3610785288821394
P 8.325311969036568 1.9042136376879033 3.5948014218932363 0.5684025176162211 -0.9027667704319677 0.31915643472705674
P 1.766305700961857 3.4780715909826636 1.5231712530653803 -0.34634456510607453 -0.48685663842192933 1.5695561500592194
P 4.79364916412276 1.2704695267546955 8.066759657739063 1.3087763554988427 -1.5543907551726908 0.10425591919729786
P 8.70311557243955 1.5155147200568428 12.5668821905219 -0.3445514777613937 1.4327726905478615 -0.3624067607752597
P 6.186325088525227 7.869768582107372 1.2657798438228587 0.7949205627802504 -1.1598156371950026 1.1009795408934007
P 1.7567655253193608 3.4268202496759574 5.935205260656778 0.11575389253456839 -0.8705331072092428 -0.26640202584316053
P 7.026077367238588 3.9985893559618892 6.01376083761151 -0.4786008261710402 0.2750936400798875 0.3558085387324518
P 2.696752888079592 8.497848213752848 10.199781218196671 0.4848239242626166 0.08845211939582186 -1.1576898491012513
