# total energy = -381164.5792407176 ev
CRYSTAL
PRIMVEC
9.34955735204800 0.00000000000000 0.00000000000000

0.00000000000000 9.34955735204800 0.00000000000000

0.00000000000000 0.00000000000000 13.68402225246731

PRIMCOORD
 96 1
Ni 5.665383019244077 5.713654784216149 12.593556532104456 -0.2692212404595105 0.03021997522680602 2.172831311182909
Ni 0.8406364720109374 7.806973943313986 6.01412805579139 -0.31194243347712086 -0.24893137986222294 0.20622612768421258
Ni 0.5510647843902647 4.196932180917783 0.4015504019135281 0.17896266398256921 -2.4179440886299903 -0.6048455909346035
Ni 2.3349678202382944 8.487593674995557 4.413343581707841 0.6563722980589857 0.2633002469893852 -1.1239914284075418
Ni 2.253692117564999 2.227466608995047 4.840764209009268 0.5979534918004605 0.762206617486997 -0.6900979724462051
Ni 9.08811574823906 1.8936967585712603 7.9274009176937605 -0.7620423239949908 -1.448765466431692 0.9711969381799082
Ni 8.390666813197091 8.086413515555957 7.56575910163793 -1.4994524512635983 0.9643878856778747 -0.9078773521856557
Ni 2.870706810101691 4.54551173029872 8.613312498876434 0.6739632716678715 -0.26049285944757716 -0.19824182392715536
Ni 6.723883813268519 3.798313800211934 0.47047814409900335 2.199423459849141 -0.40953585305257856 -0.747880430672312
Ni -0.02153109578814359 4.337717816584927 9.73432069400436 1.36931889296859 -4.113215613311865 -2.495034760266406
Ni -0.12022034916073887 6.165481496213122 10.692708297060769 0.44240149343234775 2.821656650132573 1.4985569360325222
Ni 1.6305908631462966 1.1346903374599289 1.9998104954930171 -0.5188319057769452 1.6074776076953414 0.7271084882322832
Ni 4.947402456102425 3.083053958280212 1.650334323555269 -1.343225281205332 -0.10458733439478761 0.5397403737948382
Ni 3.636351416982956 5.145809414164083 2.51179786968044 -1.6063496647384852 -0.2811025652781288 -0.16578550317066287
Ni 5.520885609280223 3.791713012671689 8.692377966175064 0.8108583170564294 -0.10959275802917899 -0.0763764191782104
Ni 0.15551212356323382 6.274833919826012 8.4184649173255 -0.6778554076334261 0.5091033656352716 0.2339709018976487
Ni 4.1719127652553265 2.42198415116897 6.527497294565849 0.6517548538916323 0.2996078231711679 -0.4229881219027425
Ni 4.914809898927788 2.975627543496344 4.049457871870624 -0.926402664683353 1.3151462635809288 1.381789257521459
Ni 4.359605130510866 9.000192510238406 1.5751816460379313 -0.994812520716319 -2.044598312344724 -0.634740578721823
Ni 7.111609959577223 0.7671050077506513 9.005906959735004 -0.00663498881801438 0.10793542493141411 -0.8068481674557716
Ni 1.8934536700782767 8.629314266404945 0.8740424406813255 -0.14435921497608686 -1.4870620480190455 -0.6717256405866044
Ni 1.1756413989702286 5.8726346586273666 1.6682873437178438 2.590610635191203 2.9108844713521544 0.6286033554758336
Ni 5.106475826087867 9.41397587308346 7.507861967299452 0.10430605570894294 0.20769654158215195 -1.7345458968014644
Ni 7.198271007325845 2.702199736677004 5.121108818409732 1.8610943088483756 2.4628700026084034 1.2974007666720497
P 2.114795092497188 0.7700529232059475 8.820939990468107 -1.4888556495843583 0.5624265025384443 3.365582008543036
Ni 0.8122306466500715 9.064423969730589 12.594610227225964 0.06469923995059824 -1.6403933845867555 -0.4683567798455288
P 4.361325449076596 7.430897345553645 8.472120157461413 0.15564430097160292 -1.8446112235916876 -0.655347199228581
Ni 9.176029636682289 1.5948194564480305 3.829336566695341 0.23589203017976149 2.7727018175004248 -2.2166778760542147
P 2.8040538152370957 7.248824064308994 2.2352304814786432 0.8232893437309304 -0.048314370834671626 0.7702562272643508
P 8.507489533190515 3.0287143305409745 2.1109655137769554 -0.9867683102556037 0.0702502516758145 -0.4122367969235094
P 0.8645049571546917 0.7400184049420921 5.356733559702909 0.23002400143475865 -2.15357426272551 1.889275656378598
Ni 6.070340399882343 0.9694462595756744 1.1395810909476087 0.262359994563303 0.45010837515830227 -2.237814400922514
Ni 0.9723913701637439 3.8707728702358652 2.803089875866842 0.9423504462618609 -0.8124194908959621 1.035138216918559
Ni 0.5584976825411069 8.46032101599429 9.370038562932432 0.38972216076076105 0.7004844578868517 0.4626059934046807
Ni 6.815060697252181 5.32514327508396 5.6220945683781665 0.8814494970114304 -0.012212225795475741 0.8812085846452179
Ni 4.662044614012047 9.038918377082165 9.679680945471862 0.16875769842510935 1.1479901053149841 1.9357637726378083
Ni 6.3044626672977335 4.15210105307717 11.293847441094155 0.47949222763705807 -2.1506455191144895 -0.6169169202768408
Ni 0.2829587456557787 1.901615833708069 12.822749712846736 -1.0058327830862228 0.8199062861913106 0.4715287498156073
Ni 5.015579428826878 5.943784790612157 10.050380612758556 0.19916793528585053 1.159512247021971 -1.1815571426371523
Ni 3.1498004487190316 5.899495937102045 11.803604945836325 -1.0420416289066117 1.631540819292132 -1.015917163905418
Ni 8.468464480509239 4.047731943570441 12.212278775550011 0.3247776375685762 0.4330807302520541 -0.33734724670347066
Ni 3.3151193230626657 1.4056872593494345 10.826415382803381 0.36929346059276397 -0.038934986502300685 1.8335511091227843
Ni 4.010576802373653 4.0981447571922525 10.860132691735936 0.04655265094855854 -2.9765851559840732 -0.4668136037281251
Ni 4.851906076589593 7.408953934283172 3.441928305339 -0.5994889546083805 1.3382512250295082 -0.4278793885567728
Ni 6.3993793742503735 7.756112350935897 0.3328218053011508 -0.7339838751958778 -0.10090577177814235 0.4338579747377108
Ni 8.278341230323864 2.4441239031453144 10.422982914980716 -1.1123232480409941 -0.15969430267126045 -0.018013920078917365
Ni 6.903516860025913 1.8891809223362201 12.505253702072451 -0.38143575238225275 1.110329614649733 -0.9756855700788809
Ni 8.400596043179727 5.395040566374142 1.8884769006623103 -2.3699279657620282 -0.28019110920745294 0.33455631422189475
Ni 7.252863073115489 6.914998116540673 3.8606594539720094 -0.501264329206827 0.6342875503448044 -1.614105140314188
Ni 7.975181830901155 0.19912593902744513 13.23944172300591 -0.4136442187939973 -1.2189432965950944 1.0691888787453652
Ni 6.7161049814930465 4.455428744533482 3.4878383721061637 0.43035664645267174 -0.6001808384690825 -1.0514310405413119
Ni 2.2882013340112355 5.727660421234968 4.422361229841787 -0.9249862439518005 0.6870296179335265 0.06919558515905502
Ni 7.357447222442935 5.135300511621257 9.582811115973675 -0.6354478892014928 0.4732354480940689 0.26617448321338677
Ni 3.3176156548944578 6.776615317131096 6.739600419295646 -0.7585883040081193 0.9670988568511344 -0.5674812913535323
Ni 2.282049325227268 6.688654680900754 9.595387205662602 0.41255998459088306 -0.4910714478342253 -0.6295171255393546
Ni 8.191306200278344 9.268281719769533 4.789777332561719 -1.069410764948184 -2.0715930957660125 0.6969964993382513
P 3.3102949514326854 4.20120492865984 5.465521270047485 -1.473375037450256 -2.140272660520598 0.6346161373288166
Ni 1.745076193784109 2.6607157503936247 7.342025127474615 0.5335540424784682 0.8963570102508822 -0.6640239010669725
P 1.8427977679634815 4.54126703122893 10.496343282340172 1.1366170875913524 0.952015737265767 0.8302385213552541
Ni 1.2977840171370219 5.196689705657018 6.951866226324592 1.9335449106096183 -1.3646518265102239 -1.959030713585549
P 5.26857845267818 0.33558366456374045 11.860695213369244 -0.22147971140917344 2.0205664682065008 0.15044655882074737
P 2.6123224411750607 2.8919022567783688 1.0561026325455858 0.21939120431126086 -0.03857503205972066 0.18038859779581837
P 7.434973752589831 8.091265935858205 9.528417260801387 0.545336636935693 -1.3437364165137955 0.7495215658201608
Ni 5.582994719237511 5.3767341329409994 1.609323424877466 0.9585586805906073 1.9062845322317685 -0.6039837571549405
Ni 3.80342800812201 1.3661012332228113 2.835247678621334 -0.14623329207034816 0.32660774879877946 0.8027488005754174
Ni 2.4939383450920896 8.44167799849394 11.05285885870772 0.5143640998135787 0.17272722459581866 0.6087174151851839
Ni 2.670280347636784 1.1551191204279665 13.270230750553754 0.5920654084507996 -0.012381404383488354 0.34699145466145404
Ni 3.154138643363045 4.750388582096709 13.710021777280817 0.5332018013453721 -0.32326582890974004 1.6399969204792852
Ni 4.698040410088452 4.937286234971341 6.863672786114431 0.8222539604878808 -0.2920660062681679 1.5139555299757796
Ni 8.410730963425655 3.928693378467899 7.1577285214749065 -1.4284738060621913 1.1299340191442215 1.5575141312930207
Ni 8.44478205155819 0.8047940086762605 1.6112522385737158 0.7189236384286457 -0.010047871154305277 1.0356858618919131
Ni 5.907929237897088 1.0296013120316716 5.27364404288966 -2.049370794032703 -2.3715261634870832 2.3054436700357135
Ni 2.1792322422526644 3.227626164703446 12.20439616368715 -0.4850416967003775 -0.07367727507949247 -0.40610240189099733
Ni 5.612109241050997 1.9828541381516749 10.340112177811152 0.10400755063191766 0.15998458021816964 0.7011213201399022
Ni 6.2789103268621975 7.786199226721318 5.75114837939163 -0.8459165942121432 0.36185551625748 0.48573923698803434
Ni 4.804980647886353 2.7608214617157203 12.992103856173896 -1.0762758674991333 -0.1305063682533946 -0.8776823166595141
Ni 8.352455172011567 0.1889068727647151 11.067965873590902 -0.059170853933201324 1.0799728567347466 -1.9290282536861874
Ni 0.035265595641712104 6.149774239743418 4.075827363624882 0.14295770664286991 -0.6704102642092906 0.5844536575418128
Ni 0.9898189451991773 1.3142298886430985 10.628421675179796 0.528824755323599 0.019481248653063225 -0.559590832861862
Ni 0.4226691822193419 8.227189801665679 2.682150545740317 -0.12473527009757227 0.011529855016470466 1.3020151255156092
Ni 0.7226347728265442 6.270327433148395 12.843946094479154 0.7335874110884075 0.13273705735612623 -0.05927215539775598
Ni 6.55900436812374 6.342655609368412 7.922378335446425 -0.8745453136924294 0.9030066543569157 -0.36605078528575025
Ni 0.11575593549152241 3.6716366466952555 5.259495357642277 1.1164555250418127 0.1716054522865496 -1.4874407715147027
Ni 2.5985224944195355 0.3845790852803098 6.975690768548461 0.5670231207701912 -1.166276562328998 -3.6354830486783904
Ni 4.974544221299777 7.635596555760609 11.738387108036074 -0.3544826208321766 0.8915428766916904 -0.03592448181075103
Ni 3.700582876475139 2.2741209005330365 8.81312656533017 0.3052243980269969 -0.25997992436690065 -0.4984901088957996
Ni 4.628713441801038 5.527318104786863 4.665662892734533 2.0367901291542148 0.4901939303252784 -1.1540252557654704
Ni 8.809882268904582 7.5796488041447105 0.6467696590336163 0.09782379041870894 0.41654005228455354 0.012501989121752663
P 6.730895981335351 8.817820043156237 2.7351625363255683 0.050212616298649 -1.3271671993012046 -0.5014144816314461
Ni 7.820343810428079 7.601423923381581 11.878881037511638 -1.0578217745590042 -2.0039358016283555 0.2859295543531269
P 7.834975867794202 5.789423597567625 13.417184289252486 -0.5120984437078535 0.060672121069076164 0.1273642230799871
Ni 3.6424940762095015 7.141463096427083 -0.01581851620303102 0.2716817861848611 0.2779344519627923 1.0647071888249278
P 4.258667308578174 8.976986908715904 5.158329406508477 1.0474851685196862 -0.2988040963229499 0.7787778915821169
P 8.802196932703335 6.041225878068857 6.269635565899134 -0.993582762074276 0.5175697512350699 -0.4798323845852962
P 6.818061905184785 2.265874590886442 7.393135418080141 -0.5628911008796886 0.22709885736816374 -0.4781688808399442
Ni 6.548233677973085 1.516040085606527 3.255428943610564 1.287330784030557 1.0064354496672279 -1.0015578098599525
