# total energy = -381163.2099682352 ev
CRYSTAL
PRIMVEC
9.32271014083523 0.00000000000000 0.00000000000000

0.00000000000000 9.32271014083523 0.00000000000000

0.00000000000000 0.00000000000000 13.64472864510349

PRIMCOORD
 96 1
Ni 7.187212869081362 7.6975846360216265 12.351167365550054 -0.5336869685119068 -0.8355859017100964 -0.23862022774420197
Ni 3.1105408856179175 3.3876770901266986 11.691021598759963 1.527446622483679 -0.8775257364769918 -0.4881360193549852
Ni 8.266801349403153 9.107159764669612 5.4340539193593065 0.03414527842314119 2.374453107325891 1.467446330670647
Ni 2.476316914388652 0.5187379670252431 10.128905489890832 -2.097598004470207 -0.4711238010677048 1.637650788844612
Ni 7.686546547208817 2.072224043112266 5.615228671522737 -1.2961872059799227 0.5582595156449482 0.4896138894520922
Ni 0.3726650831033594 1.845849995348206 10.92197725475498 0.8090017234636647 -1.3428190469058487 0.8333151033980487
Ni 8.52645747238827 3.4068445821867805 3.8357927309832944 -1.1673600252011638 1.9890457718904004 -0.07690812331196432
Ni 6.733942701785068 1.6740604154887075 9.757031904878863 -0.7295003855032275 0.08392569228037804 -0.02963736325045863
Ni 7.435541899239145 7.153865534889285 9.876818475273215 0.12868474166362354 0.46771426116552356 -0.16382015191417593
Ni 6.166525271461711 8.856015276047751 8.215737136849704 0.12639311741596942 -2.7224259520640084 2.1901435772091125
Ni 8.556224885884301 9.222584238986672 9.4307584920038 -0.4879614414503339 -0.07150443579788976 1.122864256781634
Ni 3.7406162508322334 2.565087760398428 9.166583651410939 1.2314766531754147 1.6994403113475829 2.8857377968831983
Ni 3.753490913543796 3.7206376829894534 4.395090080769526 -0.3285959828734018 0.018591904069574432 -0.6696502461148145
Ni 5.078984519385421 0.4944206098805361 1.566019527607244 -0.5261173836947648 -0.15190900229888676 -0.9452923024990043
Ni 8.590457877540246 5.256647406636871 13.733146339895002 -1.2419466994688029 1.7589922027692866 -1.3943251852049408
Ni 4.793140903600319 7.4560984751109745 -0.07395146596176724 1.823427904645853 -0.6774900538742074 0.16089140830315518
Ni 5.114988825969096 4.372789225829389 1.9353135187218264 -3.2284509358842723 0.533615491844023 0.5734727330502769
Ni 5.994558560109439 5.001922997318964 13.480664042367197 0.4002464573308526 0.31025630402394955 -0.6158429704863717
Ni 1.560528451331277 8.697314781233173 4.118129143211489 -0.19472352636125176 0.08436098004558373 -0.15294412843162047
Ni 0.12747221263867584 7.152905295744252 11.726757411291436 -0.5667552118207851 -0.81051558900503 -1.9341120959669984
Ni 1.300266352186673 6.354256685670791 4.553437244869573 0.690193874594121 0.5495792142621309 -0.7683641524479605
Ni 8.119418624705762 3.352772863340246 7.6426580246547084 1.0243095017341715 -1.790989838721806 -1.9309213569438426
Ni 5.9411114628426835 3.9009109290817703 7.775448843431651 -1.2342516448173906 0.04353520427847341 -0.5680189090245573
Ni 4.213137814579923 5.944579511016979 5.371328860955297 0.2833291406158024 0.2506697027095683 0.5990348977900974
P 7.01001611733721 3.9042857501546058 1.8645112642473625 3.74576846189922 -0.37945497450679805 -0.30203443033478955
Ni 4.609949649232318 0.4199955502433544 5.523632112067722 1.3847439692744088 1.4378634748072077 -0.6456001471441463
P 4.148484819717731 2.71825056538631 0.06257123368660095 1.7475309962072225 0.587117320416905 -0.1730776659567019
Ni 3.3690969288058117 8.857534877801543 12.546942414073065 -0.39509036705120987 -2.6002504722738125 -1.4741299133384098
P 1.177448968723872 9.057143424736568 11.862153927554173 -0.1426831128252446 0.6103721771797875 0.6281824658883312
P 1.6240906891063929 2.536961143888084 6.708363049686599 -0.7701310145403962 -1.0468254234485004 -0.47383425802033236
P 7.815936441324515 5.442784637410993 11.18175923432707 0.34290442907627394 -0.3979491766562437 0.3682035699626949
Ni 7.160661790585685 9.117097773685199 0.5850298943310943 -0.031055583754223934 1.2450291950488686 -0.3242978697186802
Ni 6.099942475599305 7.902926649696414 5.204345138176038 -0.4660965230564424 1.1337667626267507 -0.4309572561511481
Ni 2.5915829026332298 9.02443935754456 1.7730237805010551 0.7496745464582574 0.675759701446662 -0.41349355214874595
Ni 8.10264706915319 5.386354272897532 8.321264622075818 -0.38048033044751894 1.6230554075289403 -0.07151112066610911
Ni 7.568399841529138 1.832565133390221 2.4503615570713007 -0.4129934725838758 -0.9868030201482813 -0.8137657205112113
Ni 6.294181141490262 4.246335985409666 5.078349642824481 -1.5881395694883618 -3.6160215975196692 0.9195311343745003
Ni 1.8591535027264823 5.275367408609947 11.447312903750515 -0.18958903334816382 -1.9917801401024275 0.18176362376647406
Ni 3.549230334245939 7.633062159101478 8.73348596432846 0.8570615550853691 1.109400160856928 -2.857503484627853
Ni 9.069188366245141 3.2533275142133524 1.146078049082736 -0.8141058774594496 -1.1019732722652378 0.29568483396767786
Ni 6.85500741574043 6.851306299812486 1.302798400262314 1.632458960231027 0.07727990482908625 -0.7739151641731769
Ni 0.5839307468048864 0.8820989854029402 2.1876186847568584 0.3895930913820645 0.26130969892191774 -0.9546212932094139
Ni 2.035194238412536 6.775661829688214 13.024793771211195 0.1108014336252995 1.5368524891786113 1.0358493840529708
Ni 1.1476442643872564 3.4967061852836334 12.742689494465635 -0.7562198037759428 -0.2287379356334835 0.7102129980285252
Ni 3.360324258558469 2.735534869996909 2.0827857414366178 -0.008524235420927255 -0.567384617874668 -0.5970212097941783
Ni 6.0252675673302125 1.3604817370193913 7.306697383666984 -1.3783552921392457 3.4032489269661905 -1.3953515695869259
Ni 1.2735474649083682 6.9523271869540455 6.8270989506475015 -0.23451803265037033 -1.9448896461984762 -0.05483391712074427
Ni 3.3694605145015037 3.646028033691382 7.28153632125407 1.2995458380395102 2.418216882675403 -1.8054990880815744
Ni 4.145538843311609 8.267873461069938 3.686369265034955 -0.07027519137647897 -0.41420549061410605 -0.9678192799569267
Ni 2.4203899762230723 1.512022390441877 4.968932722925476 1.2092142422327885 0.1520100466531253 0.021067619303576618
Ni 8.455343839394931 3.3443544560784493 9.843566232724624 -0.2497523331016215 1.7806097810390626 0.4374418354342272
Ni 1.1182311138767709 4.372779903119243 7.709694836501221 -0.919796729331061 0.40977342298468145 -1.2759143146634995
Ni 1.2578293756022894 4.9678671371557925 1.059342350697822 2.2809145745460975 0.017319465115054045 0.5122437110364663
Ni 3.4135103199411376 1.2901791798087503 7.467555153609337 -1.1177490470422558 -1.9808789198088919 -3.176545505264232
Ni 4.372201895090194 1.4441437378691844 11.133334281015937 1.8720148124156213 -0.537938544699409 1.5404504909425147
Ni 3.589038306569164 4.9516735896322706 9.534131498915185 0.35697067736135296 1.1481803669489192 -0.17889941484480157
P 3.0502509191040317 6.02451242780839 7.448589032088408 0.9623130054267168 -1.5152205127311322 -0.5780372124925076
Ni 1.7318985092342074 3.453066579090421 9.771098942218092 -1.044719175738775 -0.09289987075453034 0.6691856477735701
P 7.090993177664969 0.18567016299580966 3.6537304568139697 -1.4133361790898047 -0.5111715610182099 1.1198385825814328
Ni 3.2410495049511305 6.504240446498902 1.3210811671295448 0.7348035428836959 -0.11512731469416301 1.7384413752011287
P 6.497024668845934 6.042123027274098 5.982695411448712 0.4612214543523282 0.5284439749454125 1.3246251496056414
P 4.255863795178831 5.99324405797886 11.94593246228079 -0.18284914352116896 -0.23447638077915747 -1.0103638381873568
P 8.015843314984211 1.2223005272360579 7.944998176043076 0.8786878751058932 0.05717644921099185 -0.5992315871819358
Ni 8.427478258768675 7.201998687372846 4.710910871028944 0.19201126963641124 -2.893668107473868 -1.3613479589479716
Ni 0.8092737028268042 5.691104344858629 9.496594538783514 -0.7796965467416442 1.3284329533875059 0.29579179185918736
Ni 1.2285187749034092 4.203871040694844 5.170669644586822 0.6195641280917007 -2.0034020406120723 -0.01982500514572715
Ni 5.546546401335463 3.6358010206612703 11.523164338040027 0.265657177257336 -0.25202081742082405 -0.002388040616202339
Ni 8.810595032216662 5.538892456305635 2.4576612391155828 0.7712640997035749 0.45364878421139293 0.16804524573911703
Ni 5.759635587141539 6.591379818233136 7.947945084720213 -0.14914275240765926 -0.5357747042788709 -0.6574763297564419
Ni 1.2942159133019486 2.9754641383131863 3.0250777371679263 0.781499404278338 1.1392146731151993 0.06951543039231899
Ni 0.1998761087162147 1.506326214542699 4.481952568012425 0.45853362310751994 -0.8041302543039764 -0.02234880000884538
Ni 1.2403026805278954 9.131137775165007 6.639511106174669 -0.3361851080745694 2.061177556859644 -0.4313074404017152
Ni 3.391079879329972 8.117656632488178 6.044765083329461 -1.6393960536704928 -1.6527416217394633 0.6723113378867452
Ni 1.198453034682707 8.254700471633704 8.907388070307032 -0.5493925521726216 -0.6486592456854441 -0.47519025782759455
Ni -0.10093418593720255 1.4086148895029529 -0.39652562745091463 1.8049033634791045 -0.5361572844292701 1.747975539943809
Ni 9.309518511097695 7.8949650552317685 13.859087763527711 -0.09282967963822722 0.6076982298920501 0.6123501268417647
Ni 7.676580570062792 0.8747713352282201 11.869712780940512 -2.408049455224098 -0.7857116425874727 -0.9609708895765255
Ni 8.494219540703561 8.424728059275617 2.429935499141515 0.019132349954076724 -1.0298646272244458 0.80020238000448
Ni 1.019223932126737 1.4494297145219404 8.610724517126535 -0.9628362249200386 0.5177659264062761 -1.5873013898577824
Ni 2.689406100194727 1.3787262807750236 13.137840954441037 -2.401028286711259 2.3253280676644663 1.0514104717160215
Ni 8.4761521284407 7.614565902171903 7.327532708572178 -1.151428441572572 0.29097097343177636 0.7563694419799296
Ni 6.776556809862225 5.445963681570763 3.3749823557209524 -0.8783454041648098 1.8714250013504221 -0.2875220956512274
Ni 6.064096655088111 5.179334171396472 9.774264934583657 0.046021718145752996 -0.32504014720134344 0.9418449673803522
Ni 2.514745125610275 7.115232224044449 10.486942308504172 -0.2600891962512553 1.1055720453600897 2.3074609575760583
Ni 4.950974386371324 1.6576990591825578 3.495043013793595 0.7481534818280405 0.1845833526034563 0.94144464661814
Ni 3.3883017117064775 4.80502735903641 13.593042787279572 0.524414027850413 -1.4520063419664928 -0.8629015588059139
Ni 8.22740357632635 3.454017495525309 12.227928595588658 -1.3766933310557903 -0.11628353978579328 -0.4204285887056824
Ni 1.417965567779345 7.13818473642379 2.19685562596947 -2.7254649960006483 0.2942622425885384 1.120874994265747
P 2.397027264597311 5.0503171856866125 3.0912950827926093 -0.5234015274254985 -0.34568996224121107 0.04028430144134353
Ni 5.001624670594293 7.866810470590988 10.448150511586856 1.012731567088585 0.017232818938518704 1.384460376595719
P 4.94165167622537 2.559978915238445 5.811699194222635 0.11758683197824911 0.5807484407760837 0.20787626169312584
Ni 6.576994876477929 2.4270091004267 0.22393336224784954 -0.7426693187850176 -0.022455243679722618 -0.3377164571174313
P 5.4922509374454265 -0.0886254117314992 12.414984113312155 1.6438103806881046 0.38207415729720007 0.11076286707788022
P 4.247128415772072 0.5051202843150477 9.186054131550765 4.113967918096857 -2.0492571512729736 -0.46138446229275376
P 5.066687864702907 6.644826915499892 2.26371530632321 0.2642384425329385 0.8614933656044775 1.5401208755172378
Ni 8.399892359446795 4.999872001086853 5.659861146346493 0.697875816619411 0.5118870990279959 0.9809658446412138
