# total energy = -340870.90523180855 ev
CRYSTAL
PRIMVEC
9.19784427775311 0.00000000000000 0.00000000000000
0.00000000000000 9.19784427775311 0.00000000000000
0.00000000000000 0.00000000000000 13.46197483284084
PRIMCOORD
 96 1
Ni 0.035155081209344186 2.2137463961032333 9.248740705689567 0.09155981178686812 -2.1039416873000474 -0.9555695160552964
Ni 5.74442176250852 4.551341767503769 5.823124957972793 -0.033213767747807314 0.3721412144542043 -0.44842250281544704
Ni 8.459662230660385 1.7670898725672288 11.534543015084969 0.853666156250575 0.2504928108120718 -0.2645099510267703
Ni 0.5372884034461047 7.399767023052955 11.21016355523258 -2.971360417250025 0.12848548116862388 -0.7152737003808842
Ni 1.3485787529977853 3.899913633344382 10.402472322207734 1.4491940693286784 -0.713587570927713 2.7492759823773167
Ni 1.1876808603222775 6.626366273860703 8.740860570250746 0.1753708328662528 0.32939482462561337 -0.10419935492774958
Ni 2.5877675421477564 2.2481923235067534 4.7704261438501465 -0.5590622140519016 -0.692143285011008 0.38307663041978546
Ni 4.269768155860522 5.961730035094787 3.1016658271994277 0.18046933043508276 -0.9340005316352689 -0.450545719806037
Ni 3.0523782580179852 4.973035341247209 5.058256129277072 0.43567523045210776 -0.5108799979197202 0.6108648005454899
Ni 5.397617038142774 3.9897765734598405 9.00546875783637 0.8121551814909819 -1.4053845283428958 1.5055066278774782
Ni 1.4847252463026996 8.179762626704038 2.5539121163568685 0.01464063273131027 -1.052649229219129 -0.48554794691283476
Ni 2.155947141683014 0.3481761229707846 10.309961322679866 -1.4546221823227852 2.183791152628523 -0.6009130886494167
Ni 1.3951474393646803 -0.04309833966212921 4.572669729176208 -0.0039016490472513453 1.2787021618212817 1.2729040670822658
Ni 6.825306451113236 8.840765716918716 13.54449737099699 0.0391041650903133 0.21362036326575468 -0.5680649317711443
Ni 8.12704058241112 1.3197894999208781 4.653481990369086 -0.26528076775452375 -1.147757677589204 -0.31225019452552677
Ni 4.457772096081603 0.9749071250417358 13.284385089770467 -0.14330429134901126 -1.3973238628219482 2.4317794518511864
Ni 2.6856418047648076 7.92622404489415 11.685465845472327 0.6549538204449042 -0.35849045643998906 2.3934977826621684
Ni 2.5201633855614087 2.442073686320852 8.861560203614012 -0.09582938569649949 1.0988205855688689 -0.9503020970087697
Ni 5.813589552648566 1.3193663990769362 3.740934411017706 -0.0066478443338208095 -0.13772036950333058 -0.32610175569663835
Ni 8.31930312460492 8.87540479905534 9.250719162027215 0.7126244356834953 -0.09396893544899301 0.6335036209909283
Ni 6.795376665326573 7.9669337043568955 7.059055870624412 0.05795112259348729 -0.17637176332694143 -0.209354131790233
Ni 2.5527053591671907 7.167567440328826 6.602587086646732 0.6705033381437291 -0.1230301144810075 0.6991487697945636
Ni 0.7268918488141747 1.6973610139167388 6.248052493819058 1.0127405659496493 0.22288481928681617 0.708189025619961
Ni 3.5488687026947834 8.028218941817418 9.362319367892402 0.494988009279812 -1.236837660377012 -0.9538517620332413
P 2.985096025986811 7.2412513720857286 4.4280612189924575 -1.4220699594183766 -0.25972307116108817 -1.4686058981963868
P 8.118633752598885 6.998842182040396 0.7127602806265195 -0.10048668196285275 -0.7879472167862107 0.8837526912233102
P 8.195812865240525 6.705145811433773 8.197373739440893 1.112257170689749 -0.09892936477806188 -0.3122951888308493
P 2.921952823950719 2.6065587383254307 1.0800853959234424 -0.8532126136529242 -0.564451246277957 0.0035455512594132483
P 7.843342268703731 3.6162245174814265 9.9841948278869 -1.305781791646893 0.13496131870095465 -0.21483083863408806
P 4.993969635177893 6.180749106745686 9.784163786284553 0.5213567290813279 -0.2624414985335158 0.4806805915182044
P 8.255837998013655 2.5465244077078677 2.7909635620196775 0.3945000417653787 0.16223172438113348 -0.325135278018311
P 5.8753714737084985 2.9236636230153525 7.215430263407518 3.784419598612515 -2.2343115299755776 1.0036442600753361
Ni 6.0099267399264145 7.900240134369466 3.4725431500165755 0.21038874370233446 0.2865139661016872 -0.02442213759810633
Ni 8.69585367786866 5.04365639080775 11.415229496877833 1.2439171929316126 1.527446365373363 -0.569366167081071
Ni 4.046821604636511 2.855461606540826 6.513414904648232 -2.4819481022857772 0.5924590443447926 -0.6743417380532128
Ni 3.9884336881725466 5.41834897949592 11.813058343454072 -0.1894666488376866 0.18614478355330522 0.03884088412659762
Ni 7.168524016149912 4.64419400706012 7.711504045731477 1.418377341058138 1.462579746606965 0.39234828552969847
Ni 9.07703074688246 2.149140736802212 0.6497568858258169 3.0907495925443347 -2.288843085364555 -0.1948042590005161
Ni 4.533286398880776 1.2575844780170045 8.307276943008098 1.3543337324136675 0.3532382069021142 1.453861907117993
Ni 0.3991533361746642 8.57028470566229 6.9258628051671005 -0.03160862804421653 -0.8368922792263457 0.2833234841888475
Ni 6.374262555782444 1.8665093730491107 12.339569632577424 -0.9608762729801904 0.44533923590443303 -1.802252813230135
Ni 0.09665738779849696 8.714755248179538 0.5854437179777814 -0.19312018642987386 1.1729853418077412 -0.32924107265656843
Ni 3.2150789282024625 5.323657171052866 0.8537623160078873 -0.45820863566793346 -0.10816630999529758 0.03303173364398827
Ni 6.9253698007054645 2.1432725120536285 0.9621662709324285 -2.419824336371839 -0.19453326472731658 2.993721301443728
Ni 0.21320787353780385 4.425055363431585 8.645953532247946 -1.059031478596389 0.4180420907513768 -0.1160588253694969
Ni 2.241192763892847 0.2491208571284698 0.6130988768360361 0.6685148469587906 0.1848440624640107 0.019467878916624538
Ni 8.753910471933018 4.6241702997283545 3.9510490494725183 0.6222352471659606 0.5151182043707838 0.7616600009549076
Ni 4.7988649590541375 3.68760898812995 1.8190898860721152 0.2808369703215679 -0.10534812382021212 0.029590312062607104
Ni 6.488637751313224 1.7419797572637281 9.8330843614731 0.6199078845843646 0.36630043940271106 -0.09700335139994262
Ni 3.907161534757993 9.048977321360233 4.78431856808253 0.22877624507058664 0.8405010796235266 -1.154295992928354
Ni 5.822667825104448 6.640264216799747 1.1887892005765162 -0.3500238137298746 -0.08405116211464879 0.4171278064672235
Ni 8.082421839064132 3.022816386008663 6.182653980327867 -0.8769145852555542 2.2622411665063105 -0.181205694380475
Ni 5.891035402778778 8.585773875688332 9.247609370824243 -0.889184660872159 1.005102075567785 -0.26136703452241444
Ni 7.862841698902787 6.243551988537738 5.841595149379739 -1.6429089519197577 0.5745932198079652 -0.3386487391237135
Ni 6.895945896362645 6.631388296921403 12.510751635114048 0.7999321570622288 -0.11191703528698145 -0.3290433548234656
Ni 7.795495081960578 1.0408832631633511 7.263718026899036 -0.784388552900675 0.07394672669079523 0.3931062467416455
P 1.2278202534301446 3.842013202635395 5.164040538106947 -1.5964478322437408 -1.5134173980841228 -0.5912156588559947
P 4.536763184076645 3.2596700780161516 4.239902754984893 -0.5888713269935342 -0.2140181129248056 -0.4846650300872492
P 5.5671793002746535 0.28046251203567796 1.7146382449006565 -0.49109767308647034 0.02798568657964858 1.2050500835527698
P 0.6529678533175576 0.21749958775048273 11.9018534138308 0.8529796717065116 0.14860976272232473 1.6706714667450064
P 1.460774059397822 0.7198113481692535 8.349426984909131 -1.906511046420278 -1.2846110711065488 -1.283625567264828
P 5.919778666633516 4.255152781055664 13.374539601554467 -0.7338931152542845 -0.04382805292854387 0.587235591162324
P 1.552927262777226 5.9510145463297395 2.3263776803294185 0.3558802725106516 1.1130935505481152 -0.20645804118936056
P 2.0430344034171632 6.061094348510068 10.799021748623268 0.2515397640193474 -1.4604207912824332 -0.8588322738325466
Ni 1.1137117953879363 1.4603785520871808 2.656532466701614 -0.08560925063038805 0.4691617922453275 -0.09490764521317849
Ni 4.608819097368815 5.787164145591073 7.501752722131788 -0.5219938484446945 0.9035650979635471 1.156851669470672
Ni 7.220059538510906 4.704954967387931 1.91947608000396 -0.3573542859530168 0.8724825176261296 -0.5102187101866374
Ni 4.77494136568256 6.6116405249226435 5.297489303639511 2.0770368924894034 1.7029668364436026 1.0306061333761607
Ni 8.032072838635061 3.8188254368184986 13.279295922445403 -0.7568134714958837 1.746587915567663 -1.2870898716643446
Ni 7.770191811923973 0.2277165533472331 2.4526778811682535 0.15811230289612124 0.276704179100117 -0.16055845044376865
Ni 8.553231902082551 7.099944888053611 2.9240490126971173 -1.033808442363542 -0.7295577211037242 -0.24922320007102886
Ni 2.9576772517304977 0.6873043263723188 6.793787277808461 -1.1302291817871375 -0.777042654058565 -0.6290625545004392
Ni 0.856154675345045 6.884237040398777 4.828688969629814 0.10235818795395274 -0.9549318824712971 -0.3376053854608637
Ni 0.3666159614910989 5.13279270121296 6.58923273631371 2.0563446542473742 0.020353623955687527 -0.24870409434276528
Ni 5.545233243456283 0.566412458060392 6.244323687685711 0.6580589417327893 1.71839396963195 -0.4833241997886386
Ni 2.283447661220423 1.940266887561481 12.377289992599277 -4.057281264038091 -1.5800758186436208 -0.9326710141905681
Ni 0.44348970569754476 4.31098369676711 1.755979796275984 -1.2137969765074643 -0.7205488327368945 -2.0425080054745983
Ni 2.327137422279627 3.876330360216845 2.9173309071228766 1.4399270422044557 0.17215386859085188 0.26101427916868597
Ni 3.363017058071145 4.699886955105064 9.433896073489588 -1.912566251475422 0.807006547410507 0.2546636543603098
Ni 7.104249479248497 6.886950404506665 10.02650583206552 0.6169518872798343 -1.1982317750793559 1.2813506551877223
Ni 3.9103715824652907 3.139233503003684 12.638546485673329 4.200849350571449 3.9211755473200474 0.777304392360384
Ni 6.617591530271128 3.6371312178788098 3.9344239456589367 0.1793683840614201 -1.0730627598784745 -0.7490006603196843
Ni 3.782172026750935 8.022672641624006 2.0480104372556958 0.8520689869667842 1.0251517951298088 -0.638771554258087
Ni 4.9237716864612935 7.639518036057002 11.596764593108823 2.3169388151595065 0.5988603198854461 -1.1743202585690806
Ni 6.4543113958873395 4.754053060974044 11.275507801441611 -1.8327586951284758 -1.0533843076129408 -0.559378716851056
Ni 4.38120923901701 0.7188796065281383 11.037231202900257 1.165791138052147 -0.7058084412029264 -0.7376209577278329
Ni 1.124795197930324 6.55330779552528 13.450236021673424 -0.07397423749462098 -1.0382111994169279 0.6572415880378165
Ni 3.62224910558538 1.632378242993943 2.8419711281101874 0.6025629655480139 -1.490224247797111 -0.9318428618623177
P 6.8766028295189585 9.016334171465683 11.286143268960087 -0.318948946701941 0.5737954064970183 -0.5496049252937437
P 3.9963622300742383 7.161873974624479 -0.052210644142414206 -0.8216718627321655 -0.06853995385292712 1.1399317537868818
P 3.7817397280625595 2.5982898761796993 10.559061944550583 -0.1321475034012434 1.650637688022583 -1.001868656232152
P 8.249592661643296 8.299564550450594 4.981253615248556 0.20382728843473283 0.5021963541027932 -0.5236943760755691
P 4.57412482816559 8.252802709350595 7.397247733462615 -0.5692769498013744 -0.5323340540284381 -0.4753077572420653
P 2.5191976118958896 4.80737296515514 7.261711977028086 0.18059531448998573 0.5691165129641103 1.328227522244919
P 6.718050387173998 5.901493351899686 4.069716879000421 -0.5539883990734201 -0.7325893088411964 -1.2176166073638708
P 0.9885475283366411 3.9958103594082273 12.673978422000122 -0.035973075660499336 -0.2704404575785923 0.7719225592231803
