# total energy = -340885.3361228349 ev
CRYSTAL
PRIMVEC
9.12375186860762 0.00000000000000 0.00000000000000

0.00000000000000 9.12375186860762 0.00000000000000

0.00000000000000 0.00000000000000 13.35353310268276

PRIMCOORD
 96 1
Ni 6.788034759889929 1.9722266596014584 11.242766737677005 0.7461819599239665 1.6963665575182654 -0.0989789870690747
Ni 4.810516324310192 0.7963383823424277 5.880642072017123 -0.6034122009221866 -1.305511568704642 -0.9577156158640214
Ni 2.7875798528341154 1.6050960154807765 4.624047824463147 -0.10769528389615002 0.12824534013335975 0.19654489584070667
Ni 3.6466175691426383 4.638752575056583 4.5988233881749565 0.6157946337469394 -0.5949409302263818 -0.17245083100598044
Ni 3.7628815368861175 2.9403023323176036 2.8102642366527304 -0.20000045848947492 0.3262120560222575 -1.1155751793193884
Ni 5.299458177199859 4.9580838840907 2.799822102847314 1.152898341249879 -0.7638480097451619 -1.450968387620282
Ni 5.537004176114497 2.882941305463389 0.32015792093693185 -0.016790074974145277 0.7232598039101543 0.257411392308776
Ni 5.49645822361885 8.358405776451168 12.448884741399544 0.2838513316678596 -1.1443144562356098 -0.5347457487937242
Ni 2.09090842154191 6.614090433983202 0.29987125906157874 0.7846055540074874 -0.08759774181532656 -1.2957927987549813
Ni 0.8535798880495463 0.44806470820779476 0.20355819913138273 -0.02365980551078506 0.3862113193940252 -0.3723052508358943
Ni 8.116215787928006 9.282413728520604 6.877042431844593 0.141834134561388 -1.748755869753259 -0.8364371939667983
Ni 0.016248489378824584 2.7653726412287134 1.3242860984430287 0.3705000793063554 -1.111933211691427 -0.18075549421693385
Ni 7.229496609002068 0.9436240181958182 4.673736688524023 0.18363615819883858 0.26726591650535264 0.005362035642861733
Ni 0.9454396447814692 7.440227901709525 2.009306498831332 0.08456949651196403 1.2410277871989595 1.3510848864590668
Ni 8.163704915457222 4.131827807592451 3.9228811207149095 -1.8270518745516855 0.7008274430485673 -1.7684772594415863
Ni 7.689461426534811 4.315954240381523 12.862857639054855 0.4952417771618309 -0.9587034336985877 -0.5991464836672972
Ni 8.436924783466814 7.245016110621125 9.093515573599394 1.0682828219913278 0.838550126544743 0.04173388940367651
Ni 6.837585855300338 0.8280954248382864 0.0847614779196789 1.4960979329690687 0.5376840054864417 0.7866621794262001
Ni 2.253566666612203 6.503328088506796 9.044040205327985 -1.5352848875811753 1.3934114151414196 0.005922021911389802
Ni 0.15602527759406998 5.127511952912517 1.4401121261055467 0.7088500562427276 0.6222223916501542 0.335094446113552
Ni 6.6119463523368305 2.15054126256611 6.702378241929786 0.45109156500717795 1.3331907797874654 0.27919120718802887
Ni 3.752507831218352 4.522926547394064 0.19363064492109636 0.5991032891341876 0.2397995927642838 -0.7535312012001861
Ni 6.231376421981656 6.018811255185173 4.781205359641534 -0.4558730455562213 1.1264113507029438 0.1715488880170013
Ni 5.3315555356336315 3.0731076618690496 9.352013355887344 0.08385241584028139 -0.9580462597305629 -0.5449422297107518
P 0.27595243163975464 5.989815972324875 12.40344207137365 0.4453127535418718 -1.7340170208811878 0.09482254169853992
P 4.480428112037467 6.392365020493283 12.513274706553183 -1.5186817318068553 -0.061913449675344984 -0.8797677384336332
P 2.8074605077594104 8.671177108022556 0.8869527469691176 -0.6173889748172529 0.3761493071723328 3.9361069718188992
P 6.442408798494774 8.092913726120202 5.929155796860754 0.3582266612556411 0.16538261130528936 -3.0743598383324025
P 4.975519373563963 1.420914840181584 12.137013011744463 -1.173125209819715 -0.7310592453499152 1.1182614679023
P 4.4855465367336995 6.515827628317561 7.987122000562705 0.1582046054996114 0.3998121980069114 0.5348545064574466
P 4.937208740231556 1.4138530563760867 3.660711028373067 -0.6493552433112043 -1.4350825696279605 1.0007769658298697
P 0.4897502172891085 6.128980556801944 3.6046656465120734 -1.635749972277473 -2.160772580246163 -0.4938222711064849
Ni 0.6138925446140435 0.22142615443459465 4.89218667515842 0.4883869590235266 1.410281708534197 -0.4774314884532874
Ni 2.152858695494529 6.753683834789545 4.621510509119077 0.5239915956010137 0.8752549381649444 0.3117930523834501
Ni 6.543545585941723 5.879071874351843 9.0908450514807 -1.2848344999712646 -0.4168411284647402 0.3498124690500169
Ni 8.784649207749908 2.3559899030469746 9.87616650366145 2.0093068361322812 1.657845518624932 1.312741510794178
Ni 2.8348591340745375 5.457700526453794 6.633073311742527 -1.4171552957255786 -0.46573014085595926 2.0424498985431536
Ni 0.8067321602639039 0.2283903140970444 9.031381912237872 -0.49391997302661395 -0.2668902783334887 -0.774413443965834
Ni 1.6376039427404498 1.1687982098233047 11.246919869444786 -0.7445909612877628 1.7056235573401592 0.4683480380947805
Ni 4.359812114739437 6.758738393223971 1.5257476594368102 -0.043965864057988795 2.872652167343833 -0.3898244906665802
Ni 6.154152987705519 8.275087676048322 7.9756516199422 -1.2272333045180286 -1.1136383673079917 1.354658205632622
Ni 5.7932173709800985 3.2978712846706353 4.427043216168312 0.16111278028534187 0.0005430169876635809 1.0400888760556153
Ni 0.8346645260527025 7.671916452041308 6.712954494884997 1.3925794061584273 0.06454111710617916 0.8620304690548702
Ni 5.21168768597391 4.767552577617573 6.8917718165675845 0.5023344223425543 0.003934559167715805 -0.05914385735000782
Ni 0.8874527285615482 7.624025879437877 11.150974496707564 0.02630315667090309 0.08391412231615225 -0.375321926175031
Ni 5.115395610672595 0.40499877549628494 10.102014028163415 0.500716170012841 -0.5929082160670692 0.11164218435904
Ni 8.303015479961278 7.764084591580241 4.24528804644261 -0.5729597979696004 0.1126405437165673 1.8216368741837012
Ni 7.917099031117703 6.679015050985682 6.746124806517123 -1.2150208216122365 -1.4208473998651854 -0.0950832515590943
Ni 2.7695604432529044 5.353343054661446 2.2741471132918676 -1.4125954442690383 0.6704264621592066 2.005261205307998
Ni 2.371500280914346 5.540361716735197 11.55158018576671 1.0329152411253115 -0.31070007642958747 -1.404163254341285
Ni 1.3143494204810555 3.676242390869318 3.8172946795703626 1.1025450856083077 -0.7007523668362576 -1.0805701239991132
Ni 1.500501326144573 0.8722936151341143 2.4225449344758654 0.2704926509727664 0.6201233430292804 0.419360038231852
Ni 1.1321572230495613 3.5517305516010724 7.923065052345629 0.9390969723215697 0.797710981041194 0.08937385987914286
Ni 3.7478090990997073 3.0381636929090305 7.439386691804012 -0.018955715166896387 -0.9195699580322356 -0.15658712450084644
Ni 4.14489302000779 7.255125227489977 5.964208338465846 1.4578473741283022 0.8743751066631522 -0.7177476158426735
Ni 8.617337849319403 7.703411642863759 -0.0019086888528553557 -0.7314796207167855 -0.03208633901158345 0.9788441703125206
P 0.5920201746955437 5.780252519833313 7.947181865179055 -0.4341927323693103 -0.37227542603922337 -0.6819910270683545
P 8.8197482804886 1.843745988349503 7.703639736655926 1.001664510641146 0.7604870636927289 0.829098751323856
P 1.8974027720189215 3.2917583710405536 10.139844752157103 0.2689885556234141 0.3645163509190948 0.4980483933726906
P 4.161151545513469 6.534713794309007 3.721322847953249 0.7845070807564103 1.2351312192088664 0.12225955486357008
P 7.119892979989872 3.9208136785827055 10.090477044155596 0.19509505076805755 1.0683195887665344 2.0897116597435943
P 6.8646742740581175 7.996749383342499 10.499401770002663 -1.2448049948532045 2.537320408408495 -2.2303898263236683
P 2.5082105761876954 8.729423138790379 5.766442809280341 0.4730665266163724 0.9293663752973672 -0.2014485037899111
P 7.264750785519434 3.948066324870846 1.6665609058436637 -1.21851057993305 1.2891449544211604 0.17405262827546153
Ni 3.031777066728348 1.729534864735529 13.39773301981116 0.18337004902164547 0.7266847704313033 0.5318206047271292
Ni 1.9749911563625253 1.3706429683879273 7.09219509461942 -0.5923844823531152 -0.06263670099461471 -0.7649034475928698
Ni 7.533591252719415 0.6791310186745451 9.241993683798235 -1.6543673302683444 -1.4552431037362359 -0.25235351816989443
Ni 3.191734681299381 1.6153511123766153 9.455569762281602 -0.3518392696720586 0.4662860133594292 -1.3299596744446773
Ni 6.618734423591727 1.9154404291035056 2.487109163286721 1.2139473860423995 0.877384068692805 -1.090429019071064
Ni 4.217508959682148 7.115248990381347 10.140138536961413 0.981624304160819 0.4478002958504159 1.3438585439139565
Ni 7.395703993478482 6.4965400172519 11.639339728490633 0.42459660404044297 -2.3944259509033925 0.5619647324106773
Ni 7.770744930311524 3.768291921636324 8.12410235888598 0.03131860760762348 0.9926643640250645 -1.6552739012430138
Ni 3.070927085215931 8.653121203434598 12.261761156181393 0.839328142361348 -0.7540279383309465 -2.2300571255745982
Ni 0.19829379440816317 4.825342420801062 10.191455990698365 -0.10043885944405281 0.6177638416581683 -0.10265772147224254
Ni 8.822850356062075 2.881481505193519 5.7530089972968605 0.07844898543652297 -1.3986292118969332 0.5191239830960672
Ni 3.8174415719725183 3.126883054310395 11.411034265284274 -1.1302150407197502 0.01172243064325078 -0.4521187207201116
Ni 0.9712963570615462 3.9372455553704326 12.739697939786577 1.2836700473495182 -0.8574382216984976 -0.6277309801732093
Ni 3.3814448501207073 8.64008336227432 7.9758651157316685 0.6576725049276481 -0.26867102438299534 -0.14958575348234882
Ni 5.760317122397898 8.441596144330399 3.6989285994382706 0.428539647848591 -1.0862869718782322 -0.14201539733425864
Ni 3.3629418817001016 8.701942398710072 3.4065260435074154 -0.1972136397729571 -0.5861588131583777 -0.28853433896582564
Ni 3.7726257036875017 4.841336357507828 9.035841602062325 0.0957594516905125 -1.4835056981263548 1.2735324446948841
Ni 5.552861256545962 4.6991153162157175 11.659410157451012 0.39806950428419186 -0.24256892797930485 -0.8309337476500658
Ni 8.236786166467601 -0.09110431009226515 2.146713848733544 0.7627419211651767 0.9601959590837141 0.6059845896350532
Ni 4.847084321070441 0.5366700227130757 1.5154524180335502 -0.6177808109390328 -0.6552849785320779 -0.17683996121261156
Ni 6.150503487030844 5.838854376916918 0.48575310167517005 1.1858848234782287 0.11229293056916145 -0.12111901350122367
Ni 8.455984300740308 0.24413608475793241 11.586860821163965 -0.356043023340761 -0.7332989333137113 -0.9088137479569961
Ni 0.532114533495912 5.0619577970436564 5.633388401307848 0.18960985928377022 1.3259639230217228 1.1336109537751768
Ni 7.589319128021711 6.37815933911711 2.6421700603275076 -1.3035742424726129 -0.827083263555724 -1.4634276964295572
P 8.72594698939775 1.8168126733703966 3.2518519935381445 0.9058209838772593 -0.1843496393260954 1.8913438517615364
P 2.272252110066542 3.6119929314916535 1.3679222656349566 -2.175565936505253 -2.3420199264978505 -0.6171187518750016
P 5.2192330286188025 1.133553157057625 7.922811412048739 -1.1489426990362406 1.3804823657845773 2.361687323019791
P 8.801318302081489 2.140742353254606 12.49440678806511 -0.3386104296866104 -0.20913070292551722 0.08939520003538153
P 6.739843103480838 7.986649390225334 1.2096698802541659 -2.073113131954965 -0.8284804010135668 -0.2601107935178101
P 2.327669777811492 3.406498672252355 5.820911606849875 -1.2178156107485545 -0.3111482197105996 0.393996876876715
P 7.1352756253336285 4.569904744828827 6.034541515468193 1.6484586780933934 -1.4941909457543427 -0.49244570247393255
P 2.5225531138391704 8.678384871855041 10.05243282437244 1.0142451755196338 -0.7721087070920574 0.027407702588991507
