# total energy = -340867.34235456906 ev
CRYSTAL
PRIMVEC
9.29793481226248 0.00000000000000 0.00000000000000
0.00000000000000 9.29793481226248 0.00000000000000
0.00000000000000 0.00000000000000 13.60846744740006
PRIMCOORD
 96 1
Ni 8.977258131877743 0.2986496592953505 9.186531394847547 0.4573311181589865 0.28509523137728965 2.093215302021479
Ni 3.6089189308286396 2.500363380419317 4.297975846795496 -0.2711727077589265 1.029523184724627 -0.2691870447874654
Ni 6.456801914791638 2.1427462199019516 10.909690649928349 -0.6507719211530727 -1.8808514368706448 1.2347782067448219
Ni 4.091119117027773 4.202396798299466 10.727160106449993 0.5323047434523994 0.8743997892535006 -0.11291076665881845
Ni 1.6415968429916126 5.892556753697667 7.746633717302015 -1.4135758059044365 -0.7605811660684321 -0.17662887364307
Ni 7.437436480998425 1.1825578118766857 4.410803493764714 0.20919678027676228 -0.559026989938592 0.49485688301858644
Ni 0.4215339523260211 4.454705551557207 0.28127181953124675 0.12982991101166028 -0.015277237874044657 0.018792450116154734
Ni 2.0946015145522843 1.296122785059544 5.978866691192715 0.8983663273714271 -1.1980080891043239 0.5876243419603105
Ni 2.7723372653523275 2.9494722173833274 2.042236476688477 -0.5712119620405581 -0.28346772307619567 -0.08480063868616364
Ni 4.08022193767864 6.954167032320494 1.085543162278688 -3.004150210086536 -2.4211548822578046 1.6652022161003193
Ni 6.192647592855743 0.6844460701995905 9.034525040861741 0.39516030105719685 -2.3150390270336323 0.7436890182987838
Ni 5.337665314809521 7.156155363532579 12.854394582061706 -0.296356920334038 1.0386883961636628 -2.6351200304574878
Ni 7.010363749032235 8.315003442183762 5.82779849880787 -0.06436936741500528 1.4635002015387053 0.2695853086671486
Ni 7.228251548407305 5.837196851099767 5.943810688376984 -1.6564206132529473 1.1620923490443211 2.1643710962306986
Ni 1.6902157430057902 3.5731404784946266 11.581935040554674 0.25903761505828937 0.09015290413701248 -0.7292705288806085
Ni -0.20368613406972366 8.25255851342201 2.279213865587186 0.845666168764234 -0.5669282470635397 0.2893203252022308
Ni 6.524965073331307 6.447318021501436 1.0884450476667977 1.1386896538496647 0.1803909117886635 0.7808661415697132
Ni 9.018355002801947 6.766199986482548 4.248073831806761 -0.7183700799180209 -1.75298764844642 0.1473380950987527
Ni 5.671461166886205 4.47166498426439 13.0187988020408 -1.0442977719306403 0.19179478275023099 0.3427941287506548
Ni 2.0982277090455965 0.7586259222177796 3.2270304418360385 1.3116271946840767 -0.05164086410474332 1.886450271114661
Ni 3.236713310926642 8.775613824245792 12.780432301713116 -1.0431333193088939 -1.2076011321093978 0.11709780815697253
Ni 7.597016932507955 7.3879621710012096 12.429048476550408 0.17854948770455056 0.8741840736982686 -0.26540135249278807
Ni 8.220062232001172 3.713585780600986 11.229216961777118 -0.8132782393518316 -1.499218223765605 -0.3266105770122568
Ni 0.4252317409157396 2.955990069536691 9.598378758909126 -0.352006134267226 -0.8178635447296687 -1.8462302472523495
P 9.259906045729528 5.652800212147545 6.295535747739447 1.2223530936075917 -1.2274438778669376 0.41440835065353143
P 2.386231233225966 2.4144876564700066 7.862863478540728 -1.8152006316400544 -1.8003180581012672 2.7673469809464146
P 3.877266621268338 5.754696277409616 12.155491153355317 -0.16410965813013673 0.0821832556679746 0.2147195098672044
P 5.890911019273779 2.679943689249653 4.003025835676783 0.6907901134172232 -0.12846928321870776 -0.5032281378014172
P 6.231977856206283 6.954380884816254 4.40723773584629 -1.444898784387434 -0.4052981608221472 -1.7510531504278681
P 7.876717401092099 5.168926397720729 12.662937091575582 -0.20707047796237887 1.7578208081690048 1.1934906608499445
P 4.347732814004497 4.532994160874356 1.522433583387156 -0.10731193241480229 0.8864932300829248 0.38434855515367355
P 5.399747624121946 8.478284471663391 0.9864169517334309 1.2709047772640498 1.4676473909378596 1.456283114964976
Ni 8.824362895344345 3.3307805152569987 7.0436336186116435 -0.198413059397697 0.9000354875437337 -0.13442061570613625
Ni 7.584678573296095 2.1333553059577333 2.2473563522732487 -0.8428438688240903 1.2677711167310748 0.0749168039135484
Ni 6.39880139876784 5.909981083134762 11.120798395394385 -0.9218626107211542 -2.35398815460332 -1.3566996615426827
Ni 2.0806360167857334 5.9245416487156 5.481231933560509 -0.43705822684256346 0.6993135775072021 -1.9449467246886565
Ni 6.633583545307905 2.773248462942955 6.235821622369194 -1.3175111642686792 -0.39801705377970165 0.8444474658657845
Ni 0.27197760410684974 3.3402365147434048 2.8172927791348 -0.43056979090474234 0.8367326137200298 -1.9696431989940724
Ni 0.39251044947762637 2.443208976443958 5.011113483578323 -0.8183847073404615 -1.029676936693672 -1.0330589657920273
Ni 1.0493741966915489 0.6566378074031852 1.0505764196351008 -0.18231461117393763 0.056639602870915365 -0.9208315983534787
Ni 1.8820228358328073 7.507886931449261 3.228322854745193 0.5662936988033344 0.05488585340460225 1.647698145778285
Ni 4.482199544164191 2.6120966604863227 8.932393737854333 0.2941902517000224 -0.3709471941461031 -0.11738422904913977
Ni 0.5101748820248472 8.529748539664629 12.163425080947992 2.277602479453729 -1.6581507085701768 -1.3731061279251642
Ni 7.18836340898087 9.295954138166891 1.941180014920626 -2.0182910419087627 -1.144076886303507 -0.001133599383810951
Ni 7.396228034859042 2.58026983035656 8.639566445204398 0.25503286477427045 0.26511261760777566 0.22140437808654775
Ni 3.4096548944538374 7.382718135887804 7.528571116756498 0.5999784926502894 -0.2713827668872036 0.12534487865711316
Ni 8.056530158287392 5.242082547139653 8.850566334629095 -0.030440575878044353 -1.5096995829129032 -0.2167375687384977
Ni 5.009206477192225 1.0176403459077683 2.938857695245981 0.6061080025867949 -0.05932049213718816 -0.8688415784394327
Ni -0.1610644018714084 6.790188657745999 0.3541109093803702 0.7101538626558157 0.34646180741022914 0.7432897259778359
Ni 9.593515939114248 1.522155575142669 11.684270898123241 -0.1403953452323324 0.7243183270816557 -0.15311742078469112
Ni 0.16695650302631077 5.662126040549576 11.18218614899232 1.1847532809769465 0.2556712696892177 0.4773924076852359
Ni 4.393971442761527 6.45794556074722 5.622256496992339 0.7786069132218912 1.1697984594393271 0.5859574957808489
Ni 7.5269291015064494 4.135581840276539 0.9471889656634719 -0.666262046368872 -0.294689302823628 0.6004274072622497
Ni 1.6639118860273798 3.790275145167239 6.409220664278623 0.056262422037154716 0.8327864845880883 -0.4157345256641227
Ni 1.194366188816446 7.2054437148378305 9.491892303335904 -0.05101094383022828 0.8938923507604734 1.192075782780289
Ni 1.893068782135512 6.354980233006351 12.742370276641775 0.504873129604008 1.0951891594638687 0.3982924189282753
P 1.4660239439731164 4.766111977121337 9.624888100242158 0.7010045920563798 0.9810316648821428 0.27360471423918686
P 6.239564970838445 3.938437732990135 9.855129135524445 0.43656200393243527 1.6871468386922104 -0.5910850468154014
P 8.417001784726416 0.1203496760591914 7.257300155679115 0.5079929061799122 0.7888303907221124 -2.6191606789147537
P 9.368598901182912 1.04878842681186 3.0756907497609256 -1.9846959795621368 0.48473830652734584 0.4342698654641489
P 8.534137164794997 5.834630621150655 2.2280324547977344 -0.2660513273719612 -0.344898062467535 0.39495127037018435
P 1.9935422634040536 7.8136123189738695 1.1301369864052893 -1.1583742767627856 -0.5296590782994363 -1.3889821757254723
P 4.072262905662551 2.101481986154979 11.03846704411392 0.18579331375115746 -0.1469046071057599 1.2794652652395513
P 7.922593410399798 0.1819494225659668 11.310323775070994 -0.48474447717493285 -0.4442110358372608 -0.501224219997511
Ni 7.907540054285254 7.536431590665847 7.984291715013314 1.193957316073718 -0.7357664210175974 -0.8553975371193849
Ni 5.750223970867865 7.006793342146512 7.761412784345912 -0.8857242131273841 -0.5699076414068378 0.5223903125521648
Ni 3.2636773212615275 1.8476018819501365 13.127938888148359 -0.6399295791219302 -0.23656077411201196 -1.2204656467768917
Ni 3.729438759090979 5.577710092332188 3.522823775622811 0.20549104929040093 -0.6770645363010146 -0.41358816874508125
Ni 4.263010033945369 7.977776652240331 3.4789226476237785 0.6608056512399909 -0.15368640591428367 0.2550930285882445
Ni 3.8152400995635034 0.11486296485277214 8.565277807351409 -0.45675621949212303 0.4528705112844716 -0.6673627356322184
Ni 6.543988647519299 4.990006242246867 3.1617914837275136 0.693756909355031 0.7888758992480672 -2.124215607057735
Ni 3.6518753886724915 6.856296972739459 10.104803783910503 0.8323216291365279 0.37351418354233096 0.06988386947533126
Ni 8.284775856804897 0.09618899300567434 -0.10966355982543839 -1.165381047097922 1.2879571047606464 0.9075032566756888
Ni 3.3962844645015737 0.17965841148096137 1.3899277876342306 1.3298640294070776 0.16762461326193068 0.39103522314522976
Ni 2.222513200820221 1.3729888103831636 10.155972177591519 0.002808158872756454 1.3278164028494295 -1.1882795489626505
Ni 4.472194966536489 -0.026173685894035226 10.919270311944912 1.4650094390943802 -0.2785263199105203 -0.9171526068399947
Ni 5.729647641601968 0.590756362013922 13.068034155118841 0.1397273726310303 0.34743368440519523 -0.8135695453400054
Ni 4.887645280254883 2.5295495971231805 0.9396334640089451 2.071966419945032 0.22361192726082776 0.3429617646767706
Ni 5.329083321175349 4.5005164753227165 4.8969794767980535 -0.8431081782290706 -0.9371071955850506 1.5727083225349558
Ni 2.0179679375936206 5.465009827066966 2.023252883619258 -1.2034518858277146 -0.27988463371062766 -0.8018484002483351
Ni 8.226198868836008 7.179493179374153 10.122876179389095 -0.8748037095601385 2.2551642050548706 1.0151252641317419
Ni 1.4078467671919517 8.333878249418182 7.285429197219159 -2.047475633892519 1.341964155104721 -0.11463263444593161
Ni 0.1742656094139843 8.897407469548089 4.9374375796153585 0.5256365874036043 1.3123802708000172 0.48181007713695734
Ni 3.814142943280912 3.036054584362104 6.633760206065271 3.7170484682567078 0.5169583429033161 -1.658833593569814
Ni 7.963429939155252 4.124061699309324 4.814145107255826 1.2728307906421692 -1.3949383933089075 -0.9790025502672559
Ni 4.3699548776942825 0.4839574958382002 5.144871711121631 0.0932935066485232 -0.8954995473465933 1.4682976229273488
Ni 3.7239901694164126 5.036570298714835 8.280316567371582 -0.008012585891831363 -0.41445977271675716 0.2885659635347095
Ni 2.708023451736327 4.277514811918617 -0.07482140950546745 2.179343144159498 0.11073432783278994 0.5202280147935234
P 1.1951472153226976 2.4829483489168203 13.490699666085467 0.08961837178978115 0.11965142781676166 0.33457148373054635
P 5.457050795050876 4.748706243553439 7.072878412303477 0.192510577870333 0.13269849080870694 -0.13564600347280512
P 2.472795004335546 8.237867776756795 5.397321792985266 0.7121186996916704 0.3425701856653068 -0.6224486487283473
P 6.966449603924764 2.508331710370005 13.089031680822039 -0.24455510517139817 -0.3587673642504596 0.7873990575922246
P 6.038627306235959 7.656477224263676 9.967767104627859 -1.0644963583657021 1.0182396413910078 -1.2438516298009998
P 5.471983278015644 0.7994475742778762 7.07908385385434 -0.3819576863239938 0.4795426212590193 -1.0795933619081408
P 1.8873040626846054 3.8994328973505334 3.991962223298342 1.3777027461569111 0.966072215358833 0.993744741573437
P 2.3681095586940035 8.69184873145028 10.623191531565972 -0.5582433176950321 -1.9110354166531927 0.6310027089459456
