# total energy = -340868.08621230547 ev
CRYSTAL
PRIMVEC
9.18144445648717 0.00000000000000 0.00000000000000
0.00000000000000 9.18144445648717 0.00000000000000
0.00000000000000 0.00000000000000 13.43797203669584
PRIMCOORD
 96 1
Ni 5.597210359922426 7.8672948874817 3.290072278112257 0.32611461121244484 -1.1290737280264553 0.18662609406509792
Ni 4.259914653167385 2.537356367449144 12.5025543236161 0.37922923164923716 0.4236964608236768 0.7542953330597203
Ni 6.4402322010425905 5.557720968532308 1.8483394801727684 0.18913883318462266 -1.3896002689254456 1.4790764587104075
Ni 2.5760745175286894 4.134817476303783 12.69173430823289 -0.5538045651973882 0.018235549171420208 -0.6565237360351854
Ni 1.0940700691555032 8.833430713523997 4.9886587312379715 -0.6161126792079905 -2.429635923145622 0.24121575638552
Ni 7.060209218856518 0.05702227718378638 7.952806267791363 -0.1941745958363172 0.6111082840148637 0.1466320701706636
Ni 7.712587553158639 1.1775753039132622 0.534265482021282 0.20587105833763897 0.3068529347693554 -0.9627241248222065
Ni 6.769386974661685 7.416283986792241 9.599562550413394 -0.6531861870215202 0.9784124820917408 -1.2798455313971056
Ni 2.10007172579903 2.536116872485725 10.920058968764224 -1.480661286699024 2.400090862498654 0.41315442364177235
Ni 2.4299793778403487 4.025824552520456 6.449420072226988 0.4224376487159112 -0.9092940300275243 -0.9819703746463282
Ni 7.356678051218039 3.9766854633040163 11.568494790938257 0.6492796528782624 0.4488410784101044 1.5042917816337704
Ni 1.6342695185461023 5.329782435481607 0.8983483055651106 0.14104094923613128 1.6252953526030525 1.2195238516889126
Ni 1.0124194861207865 5.863986401826927 11.614626957187884 2.044247099652892 -1.5624995003227542 0.7747870252551688
Ni 5.847817878637437 3.3832060933747394 3.7638412244745094 -0.40866527752216714 0.10196480917027602 0.04094610339505851
Ni 3.1217277447583327 4.209802330868556 3.762081141626454 0.5097700526849931 0.10893224162704464 1.4997494136787268
Ni 5.531911928960668 2.570611558245471 6.733605968573234 0.44090099762742135 0.37824424202814855 -0.5308219882592858
Ni 8.277549357485102 -0.002276080010604554 10.389863620945045 0.13445738248134265 -0.5208301671538965 0.02918613464565296
Ni 1.012373578899919 5.701181033742861 4.161511607093746 1.9570131689348875 0.5797477674257112 1.043739585434325
Ni 6.06987110597294 5.495222878043461 10.502326212481528 -0.5060972318190962 -0.5044067314905507 0.06003140216128371
Ni 1.6458840454255488 5.913694740582123 8.060418302371 0.18294684544129783 -1.2952094154476854 3.1169843578711482
Ni 6.232125587406597 3.1225081675130784 0.41816795673652013 0.2794110365083188 -0.21954907004536384 1.1072620314680026
Ni 4.001860983227686 3.809160832914784 8.846270045056185 -0.43828618571239353 -0.14798241355097094 0.2554601821196762
Ni 3.9084030629858795 6.274874391478298 2.1304026266261062 -2.9538046677544485 -0.1945574330970327 2.0640548784074384
Ni 0.7959880570527027 2.641611666038957 0.7358284803948397 0.948053153073593 -0.10746517016321493 -1.0880610330595197
P 7.277607453996069 6.206298184946611 4.034616703460976 -1.6811525687819884 -0.7385169871795411 -1.2629878364098182
P 2.2858215228726113 7.830054949914085 8.851430934826096 -0.4385715781632963 1.025030953281228 0.690287719859508
P 5.418704722301717 7.84166947679353 7.536794114146775 -2.134784897933149 -0.9467794285674921 2.001524106863069
P 5.674674204414038 9.088280059447154 10.586192277995305 1.6651330534252806 0.6311780581815452 0.4137061823801843
P 0.9760793300821707 2.8887394174122214 5.122031143735128 2.6197710588052434 1.3719465603994243 -3.028829715111087
P 4.684060648205255 4.369017754280794 5.451569701720672 -0.348569083561219 -0.4541822881173598 -0.05376022444059128
P 5.517313432724843 0.7637593517149692 1.0111680552799418 -0.6455667228030495 0.19924455416005685 -1.111419762390118
P 2.7068091011148057 3.5129398995459464 1.6262091287062084 -2.1317126867657286 -2.325724788882253 -1.349205924268799
Ni 4.241505857599567 6.2862869265859285 9.150385184125376 -1.1706325253048484 1.1023226851848564 0.0051391209987782455
Ni 2.8724515354484756 1.1891531050160145 0.9199201086506911 0.20350050122293342 1.2741392250409476 -0.718817966088717
Ni -0.11108812934371366 4.7012391302538274 9.733445451206595 -0.29620856768163184 -0.289944589049791 0.01804194510337538
Ni 6.4581635615133886 6.9634643416006075 6.066478562350841 0.18331014231798753 -2.547381906409555 -0.419840063192064
Ni 6.297194482264018 2.4642537089399323 9.129327541913511 -1.7545063990837912 -1.3387160804810685 1.3561692429605097
Ni 3.135729447122883 8.219127828209277 6.755429343229167 -0.2793081923818674 -0.3465685081914225 0.1847641011556947
Ni 1.6174399313761219 0.9529512722091862 6.715357848278451 1.1176742279402623 0.5440120045869986 1.5364025461253863
Ni 5.202086909916911 7.183286478001956 0.8235773786495788 1.605535653477622 3.3833596442414313 -2.7953066993841342
Ni 4.824959090491409 4.931197581022693 13.244464592631449 0.5510033483031672 0.04672877151510662 -0.2970958553825916
Ni 8.758243867187407 5.815618553921059 2.468636012243932 -1.35033155323281 0.4818301317416153 -1.9335791062816632
Ni 8.122392132397541 6.495440224857699 11.287318571992076 -2.362933793832382 -0.39543206666134484 2.5232333341878093
Ni 1.2500719871070238 8.289549505019835 11.290973704917537 0.5384949314235113 0.7758887429597798 0.4215359628372482
Ni 9.372601841167167 6.987097378903133 9.618550695108558 0.6127265363445771 1.0053350175141975 -1.7836675940287798
Ni 8.854759208338981 2.014776109427444 6.271272510929045 -4.036112086159643 -1.470127734157552 1.3004081860398053
Ni 1.9796387225755534 1.168228593744664 3.583893181974147 0.2509360689970775 3.389342087077111 -1.5375194333386488
Ni 9.249754118126065 7.116096669540463 0.29192126306239863 -0.5177103905779923 0.17359240080959137 0.2387004461628341
Ni 8.282727691998943 4.047942651534359 3.930136459488913 -2.723643626521193 -0.7480786627260472 1.6965161957222523
Ni 4.337874295644365 1.876264842626394 2.55845532615979 -0.3607427428092755 0.48413075485033397 0.4994293328806173
Ni 0.020723437643951348 8.36591157621063 7.712159697860155 1.24502379573223 0.07240200791149466 -0.6003975824655788
Ni 2.206925373089937 8.291009354643418 0.30760225156627724 0.28653762025077106 -1.3225009041737867 -0.793474317252027
Ni 4.7369549480886475 7.044766029756733 11.548673889256557 1.4971711114285893 -0.829460762648965 0.45080025901900433
Ni 3.77205861700977 5.807529701604227 6.792531559134181 2.3039084643381096 1.0301947568703547 0.2418024821269255
Ni 3.292869864151915 8.615454047401517 2.7086380447941623 -0.37129146485939923 -1.4215094589292163 -2.31483462433231
Ni 1.6489414663353161 0.8616390554707213 9.474428647773095 -0.4508591372813977 -2.1725276638995616 -0.938255450256881
P 0.25227303268807977 3.2839271375269496 12.146112297913437 -0.1288271807787588 0.7493950675446255 -0.41080032158729896
P 8.334878294904282 2.517900887245549 2.0264861233262943 -0.8111845900475965 1.23301108754207 0.9272904666049449
P 7.851750702496007 6.060166319481576 8.018934701306403 2.1421593360203492 0.10063889127000088 -0.44063771666370566
P 3.3282092427756216 9.26141455222638 4.608297207174571 0.9085952041882868 -1.2332286028695147 2.5614743799468793
P 8.690484809187158 1.4100494703856594 8.40088277892298 0.9371431910293087 -0.0050468183952880824 0.5539068951032075
P 7.1120292897716135 6.3821779295337056 13.413030398789953 0.32871116829502744 -0.28890200671788957 -0.7087654669487212
P 2.770941488666532 0.8424727907585913 11.971270974662362 -1.9289405790683878 -0.2764889777655174 0.7504373927662108
P -0.08786366630690763 9.055704295519662 12.820482945444285 0.5507058716674064 0.7201251149359146 0.014388664621504252
Ni 7.07757132978856 8.407916683304279 12.463530431445578 -1.2069357306112567 -0.2327521989991992 -0.10712501321497679
Ni 5.260251358755879 8.69468991061861 5.44084669307047 -1.2541499264032143 2.4302488741392727 0.1334500242627508
Ni 1.2341880886869117 3.005178492420236 8.600328536270133 0.06202606399380931 0.2992213863660266 -0.5846614026772446
Ni 0.9031612186008464 3.845776432278604 2.919358615586344 2.456985518803169 -2.2139787319554967 -2.032018161686868
Ni 6.831738162043756 4.579089196969911 5.749704966199679 -0.3958938367891117 0.10943566362602443 0.16008716723430494
Ni 8.923711854081782 1.4016209046344088 3.7923431816222286 -1.8453663565901572 0.10733430101230548 0.7086127434209408
Ni 7.724376527477382 8.881945464536642 5.633546843383372 0.475568981323252 1.3304273581097152 0.06833940780634681
Ni 6.09420193303265 5.002528220806424 8.195348805944393 -2.5500833645011176 1.2821548962565725 -0.4375099696680014
Ni 0.16442222040301496 4.334201717974975 6.598702091187942 -0.6267639882742496 1.0785991163156716 -0.140590491962274
Ni 8.617079163020223 6.425486801699989 5.630832808485693 1.0185103785538911 1.0651987837493655 2.097156288947098
Ni 6.471605195783356 1.7002841021533905 11.787465807464724 -0.5098638979503799 -0.8004445779222731 -0.16935985078548252
Ni 6.514574354515221 0.9195859040827765 2.841486196829013 1.7275797498962764 0.9466984388179116 0.3186363005575287
Ni 7.268949352140481 8.320775596653824 1.6151096808448937 0.1179889525126742 -1.6218251346662649 -1.6434609677684857
Ni 3.6399927240184993 2.1709341119299133 5.25112959396953 0.04819892830272989 -0.018515799416000372 0.05327120061931471
Ni 7.579667785859236 3.5642366281431537 7.832496295919811 3.0877529718098566 -1.1643060688661884 -0.44617998663817354
Ni 0.6997325507712385 0.316287897754385 1.7161900360395195 -1.2657124344298332 -0.9512482629721232 0.028754960645505315
Ni 8.519159060910107 4.697199294817499 0.38864869557437937 -0.7725787047499404 -1.0802970728433845 -0.8984588870852334
Ni 8.283260215761004 2.307976347663207 10.35765236035124 2.3052279544804817 0.5852087905402825 -0.7282785972809845
Ni 4.541537090300396 0.020828106107528967 12.690403916972153 1.1635702191414283 -0.40899874960218596 0.759931448299575
Ni 3.236826328917021 6.742742423670259 4.48628040483117 0.21798172555824397 0.7415354622908906 0.32372399949308117
Ni 4.793613640083164 0.6176568668712897 7.987838986179677 -1.554371729009297 1.3948214081150687 0.5249205351731863
Ni 8.390811652809095 8.028199696621856 3.5676870148635462 0.8940605009072216 0.2984192021797054 -0.09359406860807752
Ni 3.628295564141492 8.613158686358148 10.462240027220135 -2.3593800150428526 -1.1785749200803768 -1.6809245119315825
Ni 4.11174450709584 1.6104436709159338 10.353379316232905 1.7895790744172082 1.3520508499167618 -1.970087742730659
P 3.4123755415138706 6.597354255183276 13.105973525007581 -1.5586325611681802 -0.7799559710506181 0.4137509195751906
P 1.6794330424354278 6.233282449372455 6.141649800232336 0.24063854372581137 1.139759746985392 -3.532775962025451
P 5.233294638662555 3.621134037686181 10.810472005542874 -0.18284837219022057 -1.4939711164340528 0.6865925303961079
P 1.1473591711383546 7.186013366921478 2.5322652566549517 1.4903821135312139 1.7872080030818704 -0.8506314831893091
P 2.424709228884774 4.91034652130473 10.09266945449382 -0.6391258522737122 -0.5353949523419489 0.28642269193946157
P 6.477343598391779 1.4056423771823914 4.829405663904623 -0.084021594428294 0.46072625988346455 2.1045137577534336
P 3.137786090617741 2.28314972261813 7.527427204800996 0.9697105834423686 -1.2282746012983492 0.682727905234379
P 4.515140438301655 4.325929236774674 2.1070340149157767 4.110397684247094 -0.9145591350812057 -0.3590684404306461
