# total energy = -340855.87617987 ev
CRYSTAL
PRIMVEC
9.47892239239414 0.00000000000000 0.00000000000000

0.00000000000000 9.47892239239414 0.00000000000000

0.00000000000000 0.00000000000000 13.87336106542436

PRIMCOORD
 96 1
Ni 1.025524592764529 4.47158675839485 12.614742085222925 0.9301796152272819 1.90815063890623 1.1602110728612083
Ni 3.128774202846265 4.545730887839385 10.580560641747889 0.8132347877084058 -0.03949008767482231 0.30308369753491027
Ni 5.593398242861959 9.265532702950495 7.789628496583087 0.809150076116071 -0.9459181090084613 -1.7765911467979727
Ni 5.480115643655666 0.7426422738880185 12.427742855963295 -4.07335245856834 -0.7567605067707612 0.06726391535398092
Ni 1.3011811292483562 5.362804502514582 6.246896940816946 1.1324225898940303 4.522682817910037 0.15257388957639528
Ni 9.141633710880754 0.9011345925248547 1.0383268250871815 1.5548005890165995 -1.078946472352761 0.5415661141496673
Ni 2.468263946140304 1.6072650059925968 2.7052777604934066 -0.3571768798348881 -0.0750805831849223 0.16531807661594108
Ni 4.662188925982512 2.443552395966193 10.50302211026371 0.27105135168971384 1.1311761190814391 0.41584534021037417
Ni 5.336927044909931 8.551476014739524 0.2620571268041963 1.2898355527302818 -1.6666890850584908 -1.2597143078648692
Ni 0.5474096528058979 5.357524742849458 3.9363167612498597 -0.15986168148706018 1.0039383942769868 -1.4520047993045961
Ni 2.4836766736367006 6.498038140816192 4.410563353058873 1.1446237599459126 0.26316937783847577 0.18387269968967687
Ni 4.98693680053758 0.18442759766690392 9.857175746200385 0.015571114965379634 -0.1342547795522333 1.1716221429116274
Ni 6.578315132923805 7.041294129914266 1.7572689497997755 -1.4845570222090045 -0.368489733744546 0.1698193069204043
Ni 8.390599747169512 6.45931674363121 7.7131724580140935 0.045484100474728124 0.12010754151757377 -0.028906141511388924
Ni 2.8542172213375805 6.053467210737171 12.589672231789672 1.2438274614312836 -0.467141419381189 -0.014079618021517689
Ni 1.5695673324051627 7.8687187276313235 12.668209841673676 -0.7357466235232555 1.3549613386953374 -1.4733423844401077
Ni 2.7754852935484857 4.580973520577147 0.8331110031445413 1.4373533679400086 0.7663684621741704 -0.7172552495872874
Ni 3.0181077861670356 0.8308076250500616 11.279000805635173 1.7704945469819315 -0.625973116941838 1.0982305173933538
Ni 1.138390119394044 6.077107642702738 10.390994520356632 0.03541463205386804 -0.7517743664100796 0.7112308977700783
Ni 4.4452732703690225 8.438449346432618 2.4472747687139385 -0.19636877527415858 -0.048266034095239455 0.38711634770679787
Ni 1.8964195276885203 2.6744305039795546 11.72967710950289 -0.29727017617692675 -0.6506775616670535 0.2747030895096882
Ni 0.8418344552447466 9.224394180604639 7.306794001261323 0.19444276189603932 -0.5382668745731053 0.5893068718690561
Ni 6.573120683558477 5.2923002791946585 13.66105679804763 -0.06823707790052765 1.1358560410556116 -0.2664994706529733
Ni 2.7034454848322422 4.0814248417409935 3.1543445433716517 -0.978330978121528 1.12020933565729 1.077386584064809
P 8.539399867857353 6.0137505267212426 12.820262180568168 0.25178787547441156 0.334626762448514 2.4035253421014993
P 6.318630580346146 7.2081895130809635 6.385422857732744 1.2320780342048392 1.2555704608998248 0.8422514866557301
P 4.664198457488808 6.348290127908399 10.19653158775711 -2.251054039541239 1.478635257407931 0.8330219976376622
P 2.4284429939801804 7.8787569062406 6.311837984697979 0.8805295563003221 -0.723249005276877 0.7784688449821303
P 6.668507077652103 3.2794511501296086 8.923595750878842 1.0532398116152766 -0.03847115949200471 1.6082733641237594
P 6.621188298032171 3.1434665322554993 12.066022445369054 -0.2157294391889575 -0.2751406912677391 0.8663429803872951
P 4.310198629026066 6.2609987333731505 0.47438972353422526 0.8924340210473919 0.5314899608605879 -2.2356176503815113
P 4.031167596239214 1.8714710044594212 8.49327164086568 0.6764765250080285 -1.1687211672147486 -0.6634145496177477
Ni 8.356523021862289 8.353091652026068 6.104237265929944 -1.1269114302678143 0.4873932276516897 -0.5034011730441718
Ni 2.9127306080751296 8.897086997055704 4.413005123417466 0.3222931805838256 0.8894217165836295 -0.03083524021330173
Ni 6.277198211412106 0.2913166638496307 4.324895697896399 0.7159933521557282 0.29897687445538834 2.210725772235838
Ni 2.26811650389774 0.980566064772273 9.079420700808738 -1.3723489380441656 0.5121994880620921 -0.9519494028042056
Ni 2.7094172058179304 6.8811761761202135 1.8844324826750252 -3.5505872791752595 1.2095160897439232 -0.5954867754275229
Ni 6.832530347392351 1.2836451231792707 10.871359756445425 2.107257381936842 1.3353309660589197 -2.056438242402445
Ni 8.560149228552072 4.305089489960531 11.667565523898412 -2.378415177297433 -0.49232897439041023 -1.8250330443494438
Ni 6.255216590831452 7.823892904549861 11.654899788055431 0.03899309343374575 -0.08701615828024369 0.24928002145089329
Ni 8.30434155515401 9.167511168485404 11.796491188410549 1.328659467576015 0.10980641670188185 -0.3189301776488636
Ni 5.317665875000536 2.048243424558004 6.651347384794338 0.26288295694630853 -0.6905962522388622 1.293583192698172
Ni 9.43954675668902 4.9653722525337045 0.9622091840407102 -0.5020449161265934 -1.481010699618643 -1.425805772311725
Ni 7.897335593751631 2.827894254389553 7.211761170965737 -1.4615104248021862 -1.5350555451791885 1.0938771255206645
Ni 4.001981994786936 8.248472787710124 11.521867854446468 -0.11758966019172652 -1.6114982988189601 0.5681490068445182
Ni 4.7391577742425 3.857257810644882 8.262751836111459 0.18610081768924724 1.5164829243833238 0.7154073977452711
Ni 0.28458378541132173 0.38624238232436126 4.856230994436375 0.7290283309628154 0.8017998063985868 0.1892733018799579
Ni 1.259464392648331 3.8231052539600627 7.797647664763869 0.5157198425105247 -2.255058275604626 1.8474067840589536
Ni 3.3619462100319075 3.9446724311687245 6.452097596484067 0.1399014363150494 0.4566245790102652 -0.6103996879836133
Ni 5.967682964831644 4.79456207449861 10.723331220024622 1.16838435270062 -0.792756465249396 -0.5704941100379272
Ni 5.622631238925235 6.325389051874393 8.285323993545141 0.4070382834417055 0.7100988410481641 0.633434972536522
Ni 9.13615489384944 2.363664039668758 9.627210458394835 -0.061616487260216464 -1.5970746671944624 0.6405759544566774
Ni 8.203713317084057 4.06654293388777 4.270830769347078 -0.815218393797338 -0.6578298564411187 0.9843401604300852
Ni 1.1757749885488948 3.4410952103977808 5.255409261886402 -0.22871890947008994 -1.2819908598748826 -1.011438302198458
Ni 7.848831948856761 0.5847300652897921 8.441981192844153 -0.19583604269914015 -0.5875130131934269 0.3649984327618359
Ni 8.828876672908061 6.7281010615203956 1.8899681732395366 1.1775773320537979 2.861988002761768 0.749189893512355
P 1.2594454348039323 1.7010778990011055 6.3657503025998885 0.9305089735422426 -1.493327055092151 1.4858106921104475
P 7.52298451932655 6.111933202863723 3.51245727617676 -0.2175490088961995 -0.9437447555062263 0.4646394788949417
P 3.105522406690878 2.454206704518437 13.706575530341876 0.4927714612444675 0.41721419553344274 0.07247785545475259
P 0.7162956096344922 7.462423685393908 8.805158513780457 -0.47995965419177994 -0.4087663218764057 -0.7369781819375115
P 6.9889325636841955 7.838907517313878 9.64088949102094 -0.27699419953671006 1.1016886511452832 -1.4559468146714798
P 0.6877109718496626 7.85056659161927 4.259842802733411 -0.7495917569364638 -1.3441405939307496 0.3041612468698052
P 4.659259939022865 0.9177975898593659 3.232132370509676 -3.0950937284456437 1.527464105985176 0.7878713692429528
P 1.0735448126272251 7.792328093625507 0.7699538924214544 -0.502683835262173 -0.19852078862015488 0.7378467005853938
Ni 1.865584593773528 0.35555816327234113 0.4006929992175078 -0.3617372455120609 0.34367421736276293 -1.2655548258060463
Ni 4.357043462536023 3.9766543146698567 12.52412074531899 -0.7380459610803933 -0.11915443357568509 -0.0033012964590910885
Ni 2.931792720618336 5.904705005738127 8.714593099517499 0.27574875716538316 0.33218678554845366 -1.4514013613926422
Ni 4.390674678499869 2.985879450688716 2.169613440184916 0.8791481025717635 -0.26897570010760774 -0.03407894396158002
Ni 8.918784249970374 2.2426182031810695 12.656556454721605 1.923927185014196 -0.016015915812282094 -0.8936534952767899
Ni 5.102048831728378 2.980637606712389 4.669509497597191 0.8841632963981676 1.2690124453373435 -2.1085766149688974
Ni 8.379528366040491 6.780339401761872 10.915546700170642 0.3848684322128855 0.2837382031287629 -0.9271133175971324
Ni 3.9971761812317865 0.7107115765667634 0.8683365738223447 0.8187505753203125 2.022729280185774 0.179242142896201
Ni 1.9613596236773343 8.454023215606405 10.262028096479035 -1.3907644644368757 -0.6902221567288952 0.7525423549243555
Ni 3.445806234730935 8.354835773710777 8.572002620762554 0.3051480362631067 -0.5015018991389298 -1.6134505374493247
Ni 3.20002726101995 1.9109696732647616 5.322653683861915 -1.0524828788445937 -1.2666208051767154 -0.8474636269842889
Ni 4.234945465684189 6.309218010602036 6.277127119495609 -1.4824392045350534 0.5077447947248481 0.29601882026832893
Ni 7.279755375687232 1.1178872106765132 13.487403891244906 -0.8893713229616683 -0.9141894104466127 2.106181375263844
Ni 8.033282295936944 8.912234314730515 3.085408133783526 1.036377231531983 -2.568558283376854 2.5961307936784834
Ni 4.476326219494603 6.0339121942395915 2.561466396559165 2.7516257135564164 -2.3305355800073344 1.200417984097397
Ni 5.477234051307017 7.310666140979821 4.438684471548146 0.72393086183525 -0.38025947268596444 -0.9063308336341424
Ni 8.350636611176396 1.53758544890403 3.3631803657022834 0.6746397289096059 3.314635599402156 -0.09094840345511433
Ni 5.73185685943014 3.2294593144494153 0.26847720080992155 1.169953496959953 -1.8536987877152526 0.544554764464346
Ni 6.801629061021962 4.386409163510092 2.2528952506297735 0.07471805763918099 -0.41299424391482426 -0.6318627429533957
Ni 1.2270464787260216 9.049403797879561 2.578572059560393 -0.3728994327764674 -0.4837016377327153 -0.2827079620920357
Ni 6.31144555731892 1.4412511625904527 2.1149939946869236 1.1595981218675577 0.005840775051493167 -1.366333327977705
Ni 6.337474677678763 5.087934716573314 6.259327599389378 0.5208484219863417 -1.610790217008342 -0.3230202885578372
Ni 8.665422138499784 4.613249250666464 9.304946061456038 -0.6036739392240055 0.5013725726499172 -0.9113056611409144
Ni 1.1433570746265853 3.059966706600053 0.6786832463468534 -0.8699124429061084 -2.742328861635522 0.6128224384924928
P 7.24508147828144 0.9620252929500398 6.377265297287849 -0.3745814484645807 -1.6134765055912534 -0.7971175704315691
P 4.319241520804394 5.049810491486902 4.401351736465393 0.13931059680858587 -0.8426816322146132 1.9106986021390644
P 8.098592069891538 2.64958624889465 1.1462263443763756 -0.9117211514117782 2.4421952478678715 0.17790336948011942
P 9.008890884398875 4.335611619442941 6.657270763276809 -0.41958500975846447 3.589634879996024 -1.30420004898207
P 0.7476869562825955 3.076005042961617 3.1615447326743964 -0.9830443244367972 -0.07147409678058658 -0.5003672713138544
P 7.658362486179891 8.83866839954015 1.1755124224039686 -1.797840800205368 -0.2012998940271888 -3.3427912359007657
P 1.2199941606095892 3.771047013240377 10.008936134291131 -0.2903513375699064 1.2565909317445392 -0.24014463480852835
P 0.9090561278069816 0.600899210777709 11.427043560439273 -1.4314935667251216 -0.33228551590984706 0.2516886308923859
