# total energy = -340895.0986787781 ev
CRYSTAL
PRIMVEC
9.02964628010458 0.00000000000000 0.00000000000000

0.00000000000000 9.02964628010458 0.00000000000000

0.00000000000000 0.00000000000000 13.21580006157102

PRIMCOORD
 96 1
Ni 6.223385518235093 2.0322753333603463 11.383944682249535 0.9272048488696741 -0.19898770095424437 -0.09820045703183734
Ni 4.659920374874773 0.2066885966428589 5.952859130393209 -0.8716669637033698 0.5401080415469021 -0.1627307755047391
Ni 2.903545874647784 1.639901096640434 4.6656794830852935 -0.4808541409815912 -0.2641901057935063 0.6796621218248617
Ni 3.56265585382423 4.336794493229307 4.905718174216607 0.023250742997824474 -0.4068179399007832 -0.31128937327415424
Ni 5.071961180554412 4.460247813163828 2.717684156473984 0.6457194463308299 0.03961889994320274 -0.3764771228253968
Ni 7.417267251346737 6.197190515226752 2.517834613701693 -0.8099854275331727 -0.34175540307349533 -0.20379412120395227
Ni 5.125561159133355 4.410304841209626 11.760066459157411 -0.5900031266051323 -0.701842771686959 -0.4363457741565711
Ni 5.474277057506032 7.999688447155432 12.47418142982838 -0.0346309598103081 -0.6060136431007757 0.3011206602712685
Ni 1.915603277562077 6.460820059463751 0.5111953482630918 -0.4103529496372352 0.2339732158904938 -0.21852294277369463
Ni 2.4951440163009138 1.5461643416491924 0.3246527947818704 0.7244039448169267 -0.7884624658597325 1.0574870169274044
Ni 0.6725199064317673 9.05050446924875 4.667806867679835 -0.1373215914030151 -0.008972378701939386 0.6234372378938619
Ni 8.546740519632975 2.2001996597809335 1.2491558080565799 0.2478042082363152 1.3375287450411868 -0.12212148662380903
Ni 6.856318553695171 0.752704968725691 4.798657273606921 -0.6242324801016474 -0.19098488525442592 -0.6229559273820692
Ni 0.75671232561473 7.429114146881705 2.6959967527423623 0.4651621841676311 -0.21587187830409274 -0.41253915865527657
Ni 7.759725605050409 3.8079823056455417 3.67691338228557 0.06515303965856521 0.20612791154345142 1.858656388830844
Ni 7.665961761121206 3.764170463316527 12.388437717464846 0.029647133442471524 0.20700825726587574 0.7794018983193609
Ni 7.842491340167423 0.011405345846203369 6.725216220645048 0.8114599551961702 -1.1611675232372067 1.067069261299201
Ni 6.755258755808458 0.7794119526614964 0.3099173154956545 -0.15364629670496766 0.2360306126401548 -0.2105970030583986
Ni 1.787373274900424 6.467312374928417 9.270235486555258 0.6785226089037798 0.31810485353409085 -0.4642317019335618
Ni 0.21349875564626844 4.9433067845313685 1.5557375723246298 0.179556074592194 -1.3562995978907868 -0.23871021635484693
Ni 6.214680939503607 1.8802341542309247 6.97845806013858 0.8026534126481337 0.13464661567401326 0.31720702431016984
Ni 3.2651651371359107 3.8521733931060114 0.3521697379627113 -0.060821759273063 0.4198680882165221 0.23271671777557343
Ni 6.10566602350233 5.580962324842658 4.662375535618643 -0.45073778121218505 0.20616313565676106 0.0718942150371407
Ni 5.271254497133902 2.754719249489741 9.193399519957921 -0.6529141643070563 0.42583844686734407 -0.287179367599828
P 0.14879773029088436 5.390400675932614 12.638334976084789 0.4902067858410848 -0.054831603127899115 -1.414980142451131
P 3.865835247484371 5.8211689673893305 12.886726089754095 0.741660160794213 0.9518720125990511 -0.5099803689235863
P 2.3337120053449927 8.434366575324526 1.3443373064057444 0.40863288162233496 0.3214845686396012 0.754866632182158
P 6.199556282475351 7.729656883913637 5.613186422476532 1.5591591230956114 -0.8598090359235192 0.7531717609782383
P 4.597290750308811 1.5173507413046157 12.694251058859402 -0.11132259623609216 -1.5930256939360694 0.9368020056398059
P 4.098484076339909 6.268470540648278 8.209073296090015 -0.5316136309226457 -0.4042236968110458 0.0370915055356587
P 4.798913715552952 1.0298582137574481 3.656269805630048 0.20863473712570518 0.6119744886699008 1.177883550440307
P 0.18910787590613343 5.506711545891402 3.6943315693945293 0.8159089921064594 0.6023737323553432 0.6439384431710071
Ni 1.1578353863314648 0.9997894926206756 2.4876891405740307 1.9271068682937587 0.3194839932698046 0.2589885069879088
Ni 1.9821969167163402 6.2426728420633655 4.821110391318241 0.16905723194339917 1.3564327810345413 -0.8109171953188228
Ni 6.075109701482258 5.617053819852772 9.206430202081787 -1.0568570966528894 0.36617702645096933 -1.108774354347471
Ni 8.597026618134683 2.4860872813759336 10.234579103853893 0.18943553848943503 0.2531248491182802 -0.14212981142493586
Ni 2.4428804253280494 5.240662056529883 6.987259256082128 0.4253594503483964 -0.13185131231706326 0.836968640990236
Ni 0.4568540357486143 9.190373685587671 9.143139607429577 -0.06753362407559982 -0.19434480286559433 0.09116437612066235
Ni 1.4586219238050457 1.0703922945931752 11.428085203692477 -0.9780116471088962 -0.12086473139857248 -0.8690639788628839
Ni 4.179723801285117 6.903308831411617 1.5146499741898982 -0.2930707933835985 0.8110465218078355 0.7581944110038102
Ni 5.777528688334068 7.865327314868594 8.013188670870624 -1.0233067715012698 0.29579230607981954 -0.69667382589151
Ni 5.463947142496882 2.871273919890179 4.9192247186839895 -0.6898784002362313 -0.10071268193072977 -1.231887772570904
Ni 0.9486184888122404 7.461160360489635 6.869995758471709 -1.4171794640952946 -0.3136509315277953 0.5562481416418743
Ni 5.019580204183716 4.546526080569792 7.100967782067458 0.5226438233238676 0.4508635081567719 -0.04577412091132117
Ni 7.959795471184783 7.411072914199641 9.117474644640673 0.8855740607027651 -0.8982771100917303 -0.43397650259344617
Ni 4.632777259037795 0.3875090634621065 10.612327120004032 -0.272537192206621 -0.9030958716366124 -1.1090774874101867
Ni 8.109832068905087 7.180455755691184 4.608309627306769 0.06761512804581257 0.6782279604814965 0.9865819052764104
Ni 7.158594982756611 5.914607744063 6.86764353569209 -0.10664447403413246 1.3408747786952842 0.038092435996347304
Ni 2.3981024108784235 5.125416684797563 2.5572309591430558 0.06647921466915646 -0.439202783989392 0.15751220741827712
Ni 2.2616373710766093 5.12209377507434 11.647216652505447 -0.4354903681348113 0.11792981713996463 -0.6917869301128537
Ni 1.1029622276683517 3.3628026991935442 3.9925591051953893 0.38143343838940763 -0.013067888927551686 -0.32755571453434557
Ni 3.688818067554856 2.510331880851079 2.510565748682143 -0.06683479823636232 0.6082165642893654 -0.30474797261121067
Ni 0.9806195541902349 3.672004866727027 8.333711305578031 0.2606342701214479 -0.45336981951839345 -0.736103492642042
Ni 3.8581690780413918 2.600023354440136 6.825881423002128 -0.9200067884593381 -0.8688526341830263 0.8196237219538851
Ni 4.219851548051428 6.797264668940069 5.868476185679921 -0.4177276448347516 -0.13979087887911407 0.1295889986454478
Ni 0.7435904440663943 7.1930611414890615 11.539349404509121 -0.12641959977853065 0.6935982722899796 -0.6421337858621006
P 0.02274026045370799 5.76259365387154 8.002034349182859 0.3154836138611599 -0.23080767367831864 0.6008182149427652
P 8.467378961053067 1.7725104776057912 8.02858512024309 0.3829084802730373 -0.4763593384350312 0.2125764953822726
P 1.8343184043869343 3.409079634877015 10.371416165070372 -1.7494438969592194 -0.7782688131561821 -0.42414511832532115
P 3.998083442610248 6.114153890730128 3.612908542635785 0.43862222889557356 0.577759533351089 1.0375095453642131
P 6.737027900560667 3.948176589239995 10.349808222223436 0.9492952530108103 -0.14825495048606724 -0.024056012507939217
P 6.1774787980370895 7.719977103415553 10.250134474995729 -0.9676215621238238 0.4136269924028167 0.4812632034945518
P 2.438473958086384 8.415070221850268 5.751965760544819 1.2002171809405004 0.3904767795385985 -0.6834789244677907
P 7.229242932959045 4.0842082060344325 1.6655868276151073 -2.226626245516178 -0.032558393551995544 -1.7725164625079668
Ni 5.430889608538406 3.084192972264081 0.6892319752245416 1.0850898662463377 0.037408008334812996 -0.1663719718017522
Ni 1.5442861752838926 1.0524774769549299 7.014140512185482 -0.2157672344054284 0.7687876131386243 -0.48605162602213065
Ni 6.851884997515545 0.804058371383064 9.11016604917878 -0.3298421965756771 -0.4795274517503677 0.7803231245820497
Ni 2.579327405837889 1.4759227255161735 9.187095021129785 0.34995156573104247 0.3582762835466539 -0.29128053425239514
Ni 6.4862836611471435 2.0734505190611516 2.6626006070593737 -0.6409559635039154 -0.4335121613625179 -0.3561641222996576
Ni 4.122439727143469 6.579948178970489 10.730964929733677 0.03540897562691321 0.8277527788189228 -0.2486940670404362
Ni 8.028917411215412 7.065571569798344 0.17145220910771566 0.08205984271623287 0.461992785300714 0.24627774428945967
Ni 7.493639997104941 3.8435139626044608 8.054646484490823 0.5611409509578013 -0.5879565284887487 1.595144797161601
Ni 3.027820892367123 8.546731489986989 12.408578342838892 0.31766185245940126 -1.0218566693183047 -0.15053654743139236
Ni 0.11163622223130876 5.078968185840338 10.264499738796479 -0.7127895005064498 -0.7348966168181343 0.1540998393026185
Ni 8.734006347757756 2.2898459851400554 5.9086256035966 -0.13819988024291036 0.6978040828412111 -0.6091498747369123
Ni 3.556407338801213 2.480470841572008 11.12648780400926 0.46125693557595404 1.0944011163449345 0.6261610645829281
Ni 1.06547113753025 3.170453180378071 12.67108369615051 -0.9728853816259245 1.2875138465756406 -0.3285011091667504
Ni 3.083235829789457 8.420126823602999 7.9566513484521035 0.1715666286288142 -1.390707128836379 0.2686447991307503
Ni 5.813105493522923 8.109353497667774 3.3087864539345992 -0.6864315793382113 -0.915945473905771 2.0014243480604113
Ni 3.287630896351613 8.390148398926096 3.6000629682546523 -0.712791814499295 -0.7156614227376061 0.0733250339463963
Ni 3.4531533369396534 4.4539812388488365 9.402261552389854 0.5038351752577968 0.1604985437401107 -0.5047458599975243
Ni 6.969622551540282 6.012750966295907 11.321605812284353 0.8817418314408685 0.2250363184121802 1.2231665906478226
Ni 0.47490790993505955 -0.1375910366563954 0.23127632266551093 0.10891270124301887 0.44676645526926284 -0.0005764413287602975
Ni 4.576928898608084 0.3863370154129915 1.5792877920233734 -0.40085966543481927 -0.01661472573854558 -1.4119536969199813
Ni 5.976614323055858 5.703837747434009 0.44510646631950296 0.4714349045502203 -0.7385357562326184 0.34244317316913925
Ni 7.771030721826156 8.732335863250158 11.376028391612715 0.6085780613938422 0.31146960760576037 -0.03898435168299738
Ni 0.2585007053163724 4.962151655706277 5.9059826262162005 -0.7473716093566936 -1.0120530529643215 0.014552701003194293
Ni 7.978396541918042 9.026341136587488 2.2805716357467887 -0.11530934879798205 -1.333630438428045 0.10027945104805311
P 8.437653366463802 1.5706166229820393 3.6271952485164465 0.4581618415903981 1.2369685295279214 0.6972276415124509
P 1.717483814960899 3.112555090309307 1.80907151420723 -0.2011695390969116 -0.2618755987277167 -0.854989760158005
P 4.587276872909207 0.8927322038693841 8.2218132236131 0.7944863034563092 0.7551556241774865 -0.07127406495463855
P 8.470304566352862 1.6073131042732833 12.329799196425148 -0.2477306746859024 -0.3122291114796042 -0.3407382746628906
P 6.342504608095844 7.821109138470162 1.3664608420385391 -0.07843612992071652 -0.4187512010032594 -2.0853443839138346
P 1.9041717457425114 3.1930092360536437 6.072950713126763 -0.24776667013016038 0.13090437502276164 0.30227405714942135
P 7.0061294102658 3.8347371467050784 6.008351722771031 -0.3977049218559215 1.0878568874685135 -1.214841872832211
P 2.25097335916594 8.376892878617154 10.208848224649284 0.6834131042268617 0.4153923118333556 0.6227700366235082
