# total energy = -381166.387388331 ev
CRYSTAL
PRIMVEC
9.20672140564417 0.00000000000000 0.00000000000000

0.00000000000000 9.20672140564417 0.00000000000000

0.00000000000000 0.00000000000000 13.47496740682978

PRIMCOORD
 96 1
Ni 1.2485418999455087 0.3961219494419778 2.45268622737452 -0.4404243151013189 -0.92430155917995 0.21939711784853183
Ni 6.968650273912744 0.6974422888218748 5.97784593567287 -1.0466210207471782 -0.29094294840731827 -0.4685573258921092
Ni 3.1495365240115842 5.653249163297056 0.24240837060595866 -0.5254100732150951 -0.3003267036150634 0.7289666244869446
Ni 3.982855289665567 7.987180653592062 0.040947814014966555 0.7646041711848961 -0.9258519343862054 3.561410080822376
Ni 5.823103966058572 0.8214641912035663 2.8791691819152376 0.7215032262303638 1.6072570070441028 1.5496720095407828
Ni 0.9623969994182219 7.69262080972237 8.461928924301512 -0.21705484286860036 -1.0804513390330617 -2.313475024980622
Ni 5.103571069954677 7.921638004079393 2.5816687112363947 -0.7631075320347116 -0.4467710832549531 -2.2873469604350025
Ni 6.263535103491788 3.6007947657890753 8.569957830971944 0.8853506318380494 0.23771211410763576 1.8997066219039347
Ni 4.898187529383161 1.8489306146554643 7.754264412730106 0.4959902252920813 -2.2090339863557116 -1.0910072601720373
Ni 8.68937729333518 7.4912329862302895 11.076194032588 1.012103703696599 0.5327348890112825 0.8171405505207152
Ni 9.044710705042087 0.24019047142523076 6.863164263687795 -0.05930815084201398 -1.0723284528156112 0.8344440747961692
Ni 6.730168569975861 5.324421902446588 12.859215570219824 -0.41711237984825583 -1.7717243056239742 -2.059640037169195
Ni 2.177463260421735 1.384423900810445 10.93466647017212 3.6626308127377762 0.052384427138987194 -0.8403714960241978
Ni 2.782289614837423 7.446064811134187 2.1824864476073107 -0.11158176343474976 0.1341197966362658 0.14896508917921442
Ni 8.801450712708368 4.109281987672024 3.2773009586347284 0.9386043489558674 -0.8251251113880885 -0.8566141831353052
Ni 7.915533947803665 2.101820837553904 8.042184369139687 1.013025701290236 -1.7085214477132447 -1.6192936264936626
Ni 3.5475154691561475 0.6384575869490251 1.8894199339456477 0.3637558186039864 0.7415735146176776 -0.705575499256514
Ni 4.3183390100746335 5.593110859235144 2.907668587950701 0.4791284165397361 -0.3473005012614406 -0.9626449348448388
Ni 3.6275402914014236 7.0163687108314345 4.9100890581126215 -0.36065661085337236 1.8991144968458906 -1.1637257708826863
Ni 7.668664920688522 5.1515380883506605 10.251513012933847 -1.1723034852493681 -0.3624468699845758 1.5121698988302668
Ni 1.7735091531007816 2.855206848176423 3.1484261934130133 -0.8372481199038677 -0.6573732285196743 -0.37800101566909095
Ni 0.5032292633021529 3.968345496768816 0.7851280239284363 -1.3685758441549787 0.294039585054771 0.061630628327603534
Ni 8.699863748988353 4.18953697795183 8.289773361866839 1.6260234890183287 0.7241316649921464 -0.5542408814038583
Ni 2.813620087697602 3.3516424717713975 1.0202557192661523 2.6497827746759848 -3.3044835985698184 -2.008443973911354
P 3.6596257154148595 7.969310407391177 7.970955648501996 -1.015214738521755 -0.634936496782713 -1.49686026505639
Ni 2.722261791432085 4.289089256246603 9.654666123939235 -0.07025102300676288 1.0610276830908114 0.1690963127114507
P 6.599230578492621 2.937855586015337 6.510955613217664 -1.1952984034826446 0.3555090052141619 -0.7102790753797703
Ni 5.197056118859249 2.178503619937809 4.85207934803404 0.09527814117871979 0.18833536344672083 0.37241118028613923
P 8.659934198358146 3.918629201310407 12.282284660916995 -0.9308262476723453 -0.3322559482234923 -1.231711137783724
P 0.5275193563221381 2.394622197639789 6.630667849320822 0.717034648936049 0.4646446211012643 0.562082231825148
P 1.9805038699140052 0.535554982743638 12.90697083402404 0.3552760632677494 -0.5649937490449882 1.8755423659529056
Ni 6.582943888369302 8.284336792891247 7.8520388731261725 -0.6242628191189507 0.8213890413844241 -0.395714373788454
Ni 0.5823002692123379 1.6710475508495535 0.6349700808898315 2.0538853940736046 0.9345957420171065 1.2626353381664062
Ni 0.21576872228949456 1.0347342093102068 11.869142245657615 0.6719071604697913 -0.1281527804195535 -0.7935571067738204
Ni 1.1685907314712822 1.9593284107372755 8.99746457293025 -2.5416115795846808 1.3422783439110304 -0.42161335304240294
Ni 6.471874001626664 4.0495671927936465 3.493034695382974 -0.49450155656169675 -1.9408764112740253 -0.8930390016212426
Ni 8.552915269023229 1.7851832758121264 3.0957526990469675 -0.12775143121607677 -0.8400007429483404 -2.596816506891599
Ni 6.941223450918188 5.77158315320945 8.077878827934548 -1.4362017708340682 -0.2031608584953275 -1.6885362628405691
Ni 1.4093188754251742 3.331848020801846 11.163727856791771 -2.2128106797893246 2.3057264913834548 1.3604264755749667
Ni 2.885773163161963 0.8640461982636936 8.373762598338853 0.3905001765773662 -0.9050391114059123 -0.28207675626594
Ni 5.328224278377018 3.24414479292466 0.5470569397651547 1.5418951938088412 1.4355913909435791 1.3762403026787717
Ni 4.361693461058643 5.710238768646603 8.542078037285435 0.8200163294066136 -0.10483493162921945 0.09303691055302686
Ni 7.782745405322808 8.783488399293674 3.540547822414865 1.3259916909358647 -0.022227443939632687 -0.2347507174864667
Ni 4.606859244718267 3.9187304752456007 7.040346695996599 1.01668875196412 1.3208299442292672 -1.5900031050596615
Ni 5.348009522625188 5.95271618966292 0.9344997129610877 -0.6726435244151835 0.9732599913565237 0.087378683825985
Ni 1.2895670504200771 7.8620613100217325 4.2121937985987925 -0.20995731259187064 0.7420522540263091 -0.43255828208968083
Ni 2.563289333343132 3.228603847233217 7.348304160820192 -1.9973226671872117 -1.0193727265541863 0.2389274745719756
Ni 3.953973804692784 1.791563533729289 13.105052523868135 -1.0331834071850337 -2.8154839456629577 -1.4051942667089605
Ni 4.680881284623009 6.085127256567149 11.82549686227796 -0.08050998173060972 0.6969545903567222 -0.5268316361529701
Ni 2.8419952029944193 2.35437041176124 5.03073117307528 0.48230501449550484 -0.24231387454570527 1.326571988919367
Ni 2.9482315610119345 0.1221069043344047 4.088183864954896 1.4139979810435197 0.695736401678905 -0.2078963162977839
Ni 0.8406500778898215 4.287413632955228 5.261624697249788 0.18817672638166946 -1.8452943657016414 1.2997119313037293
Ni 3.0245829014261165 6.78229702643614 10.013787180822359 -0.09032259694565735 -0.13709250611134452 0.6399005256562076
Ni 8.532614448377712 0.07394010008444955 9.294763416410845 0.0939833336266962 0.7912261446477986 0.8127377934673293
Ni 2.001439954334824 5.4812031608468175 7.892449935284615 -0.5885121438819026 0.8261959758547642 -1.107182584380319
Ni 4.09885077234714 2.6376796421031212 9.840000187358939 1.5070554604218367 -1.5290311933619793 0.4945766327740064
P 8.023851024853329 7.223621215843332 8.93093864557407 1.9739251141988778 0.021171234760976442 1.5443603675198823
Ni 6.232434798666138 7.728508609666236 13.014648964609847 1.2052480584961887 0.3015397500865581 0.14289934260110873
P 3.2424139293049974 5.319680440935276 6.085255229994347 -1.227906676435969 -0.752711276402052 0.5431355155193162
Ni 7.355083990445298 5.105946404071023 1.756461987791376 1.4236987532710514 -0.5056987108290968 -2.539371634510568
P 7.842782435449527 7.607642771374016 5.469219692297065 -0.008432189927753221 -0.07640007332729422 0.17301878769430848
P 7.337333431622371 7.468731759174669 1.4625733139103734 0.26911916766400745 0.24238509410327289 -0.5807047320223419
P 1.997499477583676 4.705822292844643 2.0833245342991 -1.2693425749832525 4.029485324871744 1.2744873524089857
Ni 0.6899949718966327 5.670843207856504 9.972338521164255 0.8960875586395793 0.24452605170567565 0.009756822276447712
Ni 0.5877221074337188 6.59378940615634 1.749198805293758 0.029189219969446505 -0.17568039368687163 -0.25236971611981057
Ni 7.794925897710118 1.9467796494947178 13.195442273044351 -0.7558397947287047 1.6532866956096561 -1.0769245568267258
Ni 8.279006101211541 2.67614532403372 10.316152483079021 0.38485840491055656 0.34362665195427916 0.9200348134837961
Ni 4.5467117339349725 8.92231655100059 9.518231719791425 1.2250738349728645 0.39004329154560563 1.489184750789003
Ni 1.6784497548400277 8.54407681649729 10.269851881253032 -1.5197258568006538 0.866008994086644 0.9183060037181475
Ni 8.067978840433357 2.654178086818208 5.020220779946517 -0.18169317553985484 0.6326322741295686 1.4614942268522702
Ni 9.030449493622628 6.187819026852907 3.9117020641432023 0.025485031644981917 0.4852404429747449 0.3451212342219347
Ni 6.41466343496397 1.31867870342739 9.594392481073017 -0.5398820415790251 -0.7272632686425926 0.3856281931970455
Ni 8.789408321141776 5.950377682432099 13.093086548089008 1.1999852674353526 1.0708732084263235 -0.18910823705700333
Ni 4.374325082793631 -0.1503439188105047 6.024549791895354 -0.4648050579385285 1.926530169854682 2.248002397199109
Ni 6.93069096165811 6.594664044687553 3.33717042643231 -2.006752188031228 -0.6424312624978613 1.5904383928248673
Ni 0.7296179387048465 1.1201357568420958 4.866457484815039 0.1850590066882942 0.04827580428725234 -1.2337397381779787
Ni 5.032752969090589 6.806473876783137 6.671470197137966 1.031494963739017 -0.2302379172177777 -0.23416964817201605
Ni 6.1435346970093985 3.0525621277035437 11.604466498719118 0.10019074798898875 0.23331475637088847 -0.2643060625460803
Ni 1.6270854562543864 7.252263326060204 12.906242582362788 -0.6033175843258513 1.9461433160999193 0.07399352076833063
Ni 0.7571303842082471 6.4625291794247595 5.953806265474453 -0.23765297873492622 1.052965217797651 1.8758246730800143
Ni 5.694513688527535 8.199110173065602 4.638622433483361 2.1465425526897093 -0.4077728476148848 0.5616667415542843
Ni 2.3048198372876922 5.54049444654166 3.931564644850975 -1.7431377522355336 -0.37840390753446446 0.42239162596932417
Ni 6.485794564355018 7.514728539195078 10.59853367590568 -1.4819499236034606 0.08337547620386287 -0.7194561138933481
Ni 7.417183326161403 0.3981741276378443 11.66717900207921 -3.266309401492943 -2.0201692327680822 -1.153674043073639
Ni 3.86217358580097 3.83626587183431 12.088015474396846 -1.0316528294731202 0.8354681451853095 -0.5554066195771854
Ni 5.9202901169583795 0.7579424170340678 0.6774213525063459 -0.03820093654975357 -0.5072711975225394 -1.3917275996810934
Ni 3.3960372822714806 8.74436904014501 11.70560969846856 1.6238316235733325 0.15053577610044397 -2.130987892784562
Ni 7.596106749483389 4.988836908102328 5.513242551253348 -0.41301378429885 0.5445493651477074 0.6739085071705362
P 2.0176345772443316 5.510793563365953 11.78629832532542 0.8296674793431325 -0.7698168257340872 -1.1194030377059108
Ni 5.024282785419896 4.807317189350847 4.8733837013101065 -0.5009714805567566 0.8252824629015594 1.7316364364641532
P 5.278968318987667 4.666739760581506 10.164585911669095 -0.4647523503237222 0.25868408837361256 1.6953921094201383
Ni 8.858854620520068 8.857215824114217 0.5482574962332615 -0.7942484764138902 -1.9433238443732532 -0.23106144156033753
P 4.636108998546297 2.697412850424261 2.6389915998999403 -0.6189360075893986 -0.2808940488117485 0.27281255735519466
P 5.207395266970321 1.0116069252006654 11.380431981973594 -0.09854241375228835 -0.35942556665974873 0.3475972065662529
P 7.3648707352735 2.6998434248688947 1.5230623940569088 -0.40455022691252907 1.15124460769654 2.1352099012857093
Ni 2.0861786179272674 9.217309110775195 6.302336830752799 0.47624903810941205 -1.2460589218649638 0.8548882015831342
