# total energy = -340897.68872754736 ev
CRYSTAL
PRIMVEC
9.01187752623971 0.00000000000000 0.00000000000000

0.00000000000000 9.01187752623971 0.00000000000000

0.00000000000000 0.00000000000000 13.18979369419728

PRIMCOORD
 96 1
Ni 6.308935911833604 1.9108063623127187 11.311395643082895 0.4197657583107029 0.18361533226323218 0.18038499825139254
Ni 4.520907365511625 0.39007820664838233 6.027405766959183 -0.16580272956184347 -0.45407044512984385 -0.7096455555608295
Ni 2.7938621927076532 1.7950848462280824 4.714085065584723 -0.46384655068000114 -1.0449266637638908 0.9050604515621511
Ni 3.341387808410337 4.382917500681163 4.986480771653491 0.7705817289245696 -0.2724078657176083 -0.522708615123532
Ni 5.04789491290523 4.493781614914727 2.533917296281634 -1.0353870997045715 0.320596509607693 0.7669143073753114
Ni 7.0966821281711345 6.0294505619128165 2.584171128716364 0.6474436281107881 -0.05826736828232546 0.24388790390104445
Ni 5.249571714436113 4.386333002168281 11.698014190045512 -0.2496564309537055 0.1753554062472851 -1.0582763455979194
Ni 5.49122520355764 7.746510574696403 12.468417048567852 0.056890542539456856 0.07369321591909243 -0.48421842946813376
Ni 1.9356791435909368 6.387375291632737 0.4239844937067762 -0.08245245016896123 0.7196147509583993 -0.27930253595491256
Ni 2.8277828987696862 1.571491159165088 0.3625595382023076 -0.6994097367654342 0.08734294549204313 -0.042438114559552716
Ni 0.4893881930280322 -0.04585964107557804 4.812111760640453 0.04230467430548199 0.4535487682984189 -0.30894298452916474
Ni 8.529345317919212 2.3150701649792325 1.3157701296177284 0.022456529231303257 0.26848333385222145 0.7000386285986847
Ni 6.916309404517682 0.811409603685482 4.814525141374623 -1.0734232285416867 -0.9431035223778016 -0.8769536660236058
Ni 0.9280791692594186 7.427877629894246 2.5380456372611815 -0.7725866751697403 -0.45041793597892105 -0.1723058207876839
Ni 7.752764817525056 3.821396439570844 3.6519506171129845 -0.8044549846332468 0.013741517955808592 0.5039902127784224
Ni 7.476875206636881 3.7018989469081016 12.662359857021574 0.5214644583037857 0.5337101084403582 -0.24240823403172446
Ni 7.724404439741523 8.625799440390505 6.909776694681239 -0.04030898403169187 0.7788825354807811 -1.1229838130786338
Ni 6.745489270775428 0.5845148659767587 0.31056731464128484 0.6386658819181581 0.6589004637974782 -0.2554617247815729
Ni 1.7917144041273383 6.413104201252054 9.213690155594373 0.45585607627535685 0.17706801806301764 -0.6095422250793244
Ni 0.11124982258092198 4.850174325497946 1.4209756861104978 -0.04375426226781497 -0.3027358272771883 0.332369333872905
Ni 6.4303709581104105 1.8701087245400985 6.943647835418261 -0.07150777823199943 0.4517178857372672 0.8816281886811398
Ni 3.301420132696969 4.256652088185109 0.4006896921393612 0.4765192610516632 -0.39742570005260586 -0.11951695912142642
Ni 5.948776236549554 5.4340718778813875 4.770998675325468 -0.4564811114538654 0.44757378166190653 0.012071843562869533
Ni 5.363157415606642 2.8458066533191198 9.293567831006552 0.913572088577588 -0.7222974399968851 -0.6760011280335068
P 0.25337794145593306 5.457710031972969 12.402692526415617 -0.15651590494327883 0.28669034377855146 0.9775953855070841
P 4.032616819135653 6.0545306163683525 12.58721792311726 -0.5040208089060416 0.33072202807746914 -0.21345272733963885
P 2.412993223446304 8.528047607591654 1.3541436042411994 0.21383145083529626 -0.3506221094355058 -0.9500938376527058
P 6.14176558838761 7.704659416632618 5.694890926403054 0.4672465775004857 -0.07398426479695001 1.0465539149546685
P 4.683625821583909 0.9119298851831263 12.410434630182325 0.37762512038691093 0.5640568390530157 0.5380228768830992
P 3.9949651958818873 5.9950251907234 8.252352653252611 -0.00309689375776886 0.5223771999260423 0.4057344770286173
P 4.698279134032598 1.055020472551077 3.811441018745465 0.3225952852052767 -0.25291864664474506 -0.19102936533911619
P 0.17235756000532057 5.675436986930123 3.56408030774586 -0.11306220463501819 -0.6822172841465477 -0.742699914912637
Ni 1.286175124647559 0.9890174833910524 2.5424911963207992 0.710300415536009 1.08371098362094 0.19040690126376886
Ni 1.7837208689846646 6.558294556025014 4.846167644861608 0.8766816433091418 -0.1667568659449967 -0.5105287852278885
Ni 6.121569971414971 5.842526203480643 9.202637088116933 -0.16138506011012207 -0.6632749387160899 0.46016730205620104
Ni 8.551271215328597 2.487314175330892 10.143135525448638 0.6184498119815994 -0.02099254309126707 0.38546544236693614
Ni 2.3192877235438 5.287673931553615 7.041068031133404 -0.3096040151519313 0.10246334607324936 0.1744552630305189
Ni 0.5754867673229476 9.176884747616702 9.03000917179337 -0.2335469269863526 -0.1591253175416679 0.40234576306204256
Ni 1.4616724226953908 1.144048808148003 11.49437730520738 -0.22997900712943617 -0.26493084061427274 -1.0883389693112546
Ni 4.066925035920499 6.843024818519686 1.7019579088466157 0.7121544380256122 0.305296646025829 -0.6293816284027547
Ni 5.5519742682665045 7.82291327023145 7.956584643471867 -0.6498000441581067 0.22929895034327608 -0.07701713808600284
Ni 5.307707334735311 2.8532144164389366 5.0683626885715665 -0.6187226060270118 0.1001300699543824 -0.9265895838831784
Ni 0.7439926509810543 7.5607127009235695 6.964487801616044 0.4194330575616325 -0.8081774277901566 0.02740693125804312
Ni 5.302119970824986 4.516149094310575 7.240207088023727 -0.6879390171216733 -0.36306522029486504 0.028116555730558025
Ni 8.133615763031855 7.3403092184158245 8.923528434666228 -0.0273069153450691 -0.7516455541416991 0.8085679783603558
Ni 4.704127842383889 0.22912517733421564 10.287801388964208 -0.2615992051378785 -0.39525491765353216 -0.41920551493185865
Ni 7.973159288155527 7.17539186428851 4.622864140246858 0.057165136357082195 0.06513658459833298 0.13518911844104461
Ni 7.190802174428275 6.0814671175424815 6.881312680309047 0.7016653655688303 -0.28137381666164446 0.11546670031145274
Ni 2.539781324824292 5.128920701482207 2.5469223363767775 -1.0947132482687147 -0.1308318699136134 0.6458739696308231
Ni 2.238054661789504 5.124955475481332 11.409276345726775 0.5452818724383577 0.2652763968791496 -0.00014243911513523857
Ni 1.080343847693031 3.419295487450263 3.8053607051482135 0.6517723373931291 -0.1085504328075937 -0.4056681425670562
Ni 3.5658376238144296 2.577757375659948 2.6345033644833835 0.568350324222047 0.1698164787069269 -0.42771458084413433
Ni 1.2421611160378427 3.3987123597548097 8.187063404772745 -0.8040050415800217 0.13416967603759475 0.716794765011101
Ni 3.645781987118441 2.7556518330628545 7.103614064170847 0.08021816152180378 0.04264354570213946 -0.2210675635724193
Ni 4.109407025393513 6.785159554538731 6.123111002428947 0.10504550497812877 0.15632435775776302 -0.46731599728584033
Ni 0.7361378987484112 7.33246888518682 11.30370580820438 0.1555116320484806 -0.0799764778246429 0.5076056980438226
P 0.15898303294191363 5.617220259735453 7.921565389570046 0.28085933891907117 -0.3303615594142568 -0.10546639456563126
P 8.549901409982843 1.7356785512331503 8.002432569106988 -0.12993661179285365 -0.20447212110758334 -0.7463161715089857
P 1.8196872711880587 3.1523726944504302 10.50788585101643 -0.822052643110352 -0.16734462012766665 -1.1598434051091444
P 3.920346852047233 6.171108260794088 3.913965541749006 0.29026700538621625 0.0415413137768962 -0.9943288962116811
P 6.9791041653679065 4.07789249056383 10.29655913129978 -0.641506693801063 -0.14211875568134233 0.39952552000442804
P 6.496364935393161 7.750295563151783 10.386394931100519 -0.9270323278475519 -0.07753701514521485 -0.611750802694869
P 2.3813885698438724 8.426808178287487 5.737401753883347 0.5602937724661576 0.9398348789288588 0.45754117728726357
P 6.820999790460278 3.9111997966133956 1.603733853678569 1.003928366974658 0.27300616142323947 -0.5723625307052336
Ni 5.192319258109839 2.763456118782759 0.463903505282861 -0.03522308486835224 -0.16134469379048985 -0.4766064214488308
Ni 1.4754515830484327 1.0734137140687738 6.915646130350262 -0.021750247192898024 0.7612859054449406 -0.3699087255792597
Ni 6.936496009613046 0.5443137826419752 8.894853542365809 -0.5307751941817505 0.5211075891849992 2.0870611094946248
Ni 2.680736097278135 1.5191141284444347 9.016384114541726 0.4778279525607577 0.09579210470066084 1.4902589576897882
Ni 6.223764659710256 2.0443984310331182 2.5503126046075257 0.7151158346467813 -0.6145252801162125 0.7909456372929023
Ni 3.953456489154542 6.781293459187877 10.331037672565119 0.38153011186827196 0.18320369864711028 0.5076095546985645
Ni 8.1592635657557 7.218306423870711 0.41495188911432773 0.19891416740383164 -1.1839690945127546 -0.42128990826471313
Ni 7.667242102187995 3.7915851495460817 8.133433723110906 0.2409401341266302 0.5820378490114686 0.042638146385500765
Ni 3.076898222274678 8.382172350145815 12.326877405278879 -0.3474488539138468 -0.5961256945631024 -0.16005297156225984
Ni 0.023220002986034896 5.119061707743667 10.20291220859956 -0.026510130475386598 -1.3012077991229656 -0.8845474192104636
Ni 8.593428777219723 2.2668566215594987 5.761433727011834 0.7194954517717157 1.2282825717181491 0.6257394036644771
Ni 3.7138126486652774 2.6359650909773427 11.321538510955587 0.26244047009225124 -0.8646645642436077 0.7344906396289673
Ni 1.058877556024656 3.2886503025986955 12.633157769900581 -0.5596286280783329 0.3813457637716077 0.3236178129325201
Ni 3.0357139431292235 8.346142864801498 7.937380332999446 0.49266450335295797 -0.6192321986735787 0.27826586716028207
Ni 5.546936628869938 7.839017494921369 3.618765280236568 -0.3186596975962963 0.5499615373022141 -0.37121176066139944
Ni 2.959266188207802 8.292909705739747 3.515515301112412 1.1647056182974522 0.5806545955106968 0.6591426617152712
Ni 3.5379278398946323 4.096871504104382 9.455182332112683 -0.95652493799003 1.6560413755366576 -0.9873542646660609
Ni 7.26255474128957 5.978443336537921 11.521350755078334 -0.1818844656150545 0.6303488774120305 -0.05341081152097253
Ni 0.3982411650838206 9.079195997958776 0.28777988176443636 1.160914526686136 0.5893346397831979 0.03868764637818498
Ni 4.619136827806036 0.3844304631603174 1.4511807951721658 -0.1734489332531916 -0.9706287243812638 0.9577073883339056
Ni 6.072509311531413 5.6109750287840745 0.4145292320701435 -0.6154182242441272 0.3523426916710383 0.3633608971584129
Ni 8.126135904893841 8.980065347936891 11.13998072544051 -0.3473503806627696 0.0636564005083807 -0.1525299237123373
Ni 0.28700215675562835 4.935183363830348 5.60882749842951 -1.437138423715725 -0.6753318698806241 1.2582814320730846
Ni 8.01344237957351 8.871255941721962 2.45969817861025 -0.4397172617319653 0.2251155083895478 0.5007310824111764
P 8.564392508640585 1.7022715221757758 3.6635840494869165 -0.6848439231361173 -0.6377891357401596 -0.8204935261533484
P 1.7776829112106045 3.1389359854338275 1.6341363228525532 -0.7610532206088441 0.08972944344634869 -0.49130027601557963
P 4.687482905057487 1.0289581234725966 8.131969293053766 0.46385992041643986 -0.0037095876411032884 0.3991683937753254
P 8.322027081214356 1.7174745591382226 12.343022183416535 0.7671338795852853 -0.3901723609243022 0.36871239127831335
P 6.377948868003384 7.7665349660008225 1.454953166999362 -1.2509694717927036 -0.28478669899793535 0.13035338761529808
P 1.793760100268699 3.3002485886512556 6.039078851593124 -0.28451184806999386 -0.7828790582346841 -0.3157872611445078
P 6.984024650359903 3.899592498683561 6.002569033190064 0.3874984136365649 0.3397450575116859 -0.9795345115113259
P 2.2452191042229037 8.405296827232739 10.100242594371897 1.1905158944923369 0.4212258877959972 0.9190945610577139
