# total energy = -381177.9714173023 ev
CRYSTAL
PRIMVEC
9.12480619068971 0.00000000000000 0.00000000000000

0.00000000000000 9.12480619068971 0.00000000000000

0.00000000000000 0.00000000000000 13.35507620962921

PRIMCOORD
 96 1
Ni 7.334829576987806 0.6785981600631693 8.087940905597817 -0.11429813392464831 0.29383698212566167 0.10849104032456801
Ni 0.6311382173438653 7.544982991732151 1.184376138028644 0.6439407571638522 1.1140613137780233 0.035355239570842335
Ni 2.3368264036458632 2.2094076079578757 6.422923806100495 -0.15441505655019214 -0.10722040114226049 0.24484718249052023
Ni 1.701101146156456 4.4370557037831455 7.158534668637033 0.7545784115177778 1.0745180042677624 -0.5396329016826965
Ni 1.4954918849678696 4.941228628313966 11.731980677698571 -1.0261807506149554 1.4108077562409962 1.3739756750143113
Ni 8.430883064559396 4.965454989138343 4.055682597972592 0.42467656534875897 0.17003707935816523 -0.45352819947312856
Ni 8.082744328388973 6.815746718902548 2.7711653603193858 0.6232804006010234 -0.1597261843504604 -0.6700618797309363
Ni 1.9309093937504092 0.2022595447823232 8.087460028303864 0.22840369222251636 -0.663725138879631 -0.5645669459202147
Ni 2.566899270623586 8.848507200985049 0.7013481272222419 1.4576422000960316 0.6446390687824575 -0.028870403177447053
Ni 4.206097730590748 3.6876353593363964 5.987374900106705 -1.386586421799786 -0.052064839016039366 0.9091233087776149
Ni 3.855413173452339 2.074698092006733 0.4893451142334139 -0.18596429211138296 -0.0639379363045415 -0.27199700343243477
Ni 7.3760463272114265 1.387317305844331 12.82191507014066 -0.5253265123623534 0.7517478840475182 0.19346137181937648
Ni 7.045856085105617 8.774267776628312 3.4221317818332593 -1.198874036649045 -0.30089620296528824 -0.008979577790790987
Ni 3.805828975817813 4.237240694618469 12.641461075061542 0.23082207185602183 0.6095437677412212 -0.7851259452873317
Ni 7.002504130199171 1.34653854632488 2.0706649276058386 -0.3272350979701332 2.179289150993111 -1.7669770207469762
Ni 6.010738054251615 4.565332231266799 7.638676503199084 0.6012702148785194 -0.20000302959263622 0.2276390461423499
Ni 5.569343797318428 2.4569909782960426 8.970765006208904 1.8454756284745117 -1.1363882594099977 -0.22001418260724043
Ni 8.509867388211301 5.789707870353726 8.116988814090593 0.16862605794325153 -0.06893101864375871 -2.2878562959712534
Ni 8.25027577273382 5.932538463944679 10.314606259780605 -1.0270639245508568 0.5310271622915563 1.8251857678772245
Ni 3.751910495173276 5.624977741554296 8.01759959850819 1.3396493909286156 0.18485486109728808 -0.7865498222180519
Ni 1.7213855906433078 6.863250460692268 7.7055321342680285 0.14157548158336264 0.27230322181894395 0.7799294886880568
Ni 2.344217496778725 8.563128882799584 3.424669390475542 -0.32836561203015063 0.5444112969079462 -0.28392820765238197
Ni 5.393937645104866 5.791806575811204 5.6926546051935585 -0.9151407186162884 0.5982900492042729 0.8945346123301627
Ni 4.334803123972233 0.6281544056717103 2.4479857069221906 0.22528700097040558 -0.5210566813424058 0.18835593227201108
P 2.8376961482827383 0.8949217688525031 12.064361785805863 0.019443967657224576 0.16842911144109704 -0.2560692764585848
Ni 1.5212420884505036 3.2941189612527424 -0.020616587437513524 0.2644536438675381 -1.1501030378929291 1.0265579314487159
P 3.660005445748368 3.423901081781978 8.200804722697871 -0.5402715637079598 -0.658338420646421 -0.625854846196419
Ni 3.9873031242453902 8.040231855665517 6.824483720970096 -0.45982894488017584 -0.7187344052359751 0.5670416327129525
P -0.14283880591665618 8.18998817726615 4.51055693130723 2.31846142245162 0.3618256914608091 -0.8990445843853743
P 0.1325934733616238 1.4211703373541014 7.120018861089124 -0.8795126850000337 -1.1924935870439979 -0.718950120791207
P 7.549828263897027 4.877747350628394 5.932966417361878 -1.8505754115949222 0.8054661995065805 1.9878808050480214
Ni 4.273429676550477 8.396564667926445 11.042484761427286 -1.000794706441683 0.26635626020688963 1.1206425665399669
Ni 1.9638408198201562 4.946584889633706 9.406861400582907 -1.2797804824871248 -0.30008861946232834 0.1646670732955035
Ni 1.7006814050649601 7.556051381818769 12.034099365589647 1.3257528354521813 0.9481182019835737 2.0861347410256137
Ni 3.7793214134092192 6.970028944446266 2.2301373429939666 0.10636088135544262 1.7805272486275852 0.4490012581370525
Ni 1.3782107491201394 6.359214408256501 3.637696206735366 0.0535283109354433 -0.08181224548180104 -1.0487537508194646
Ni 6.259243030029805 2.291676861891054 6.524849717844548 0.18030246583991527 0.9111076861974955 0.8766667309108064
Ni 4.37064536326344 7.0126965388774485 13.126637977760277 0.466907448993512 -0.5936396949164551 -0.24819835835094028
Ni 8.692053271533155 6.844106616997525 12.49101674306311 1.212342503449125 -1.948778439729921 -1.1650064373673226
Ni 6.958057198532299 5.8742127018394354 0.2988355825710722 -0.39997057796164665 -1.11716566373496 0.941662933276533
Ni 8.534622987803218 1.945910575368216 10.484095887565346 0.6729759680539377 0.16790923438188501 0.3855821704504585
Ni 3.5749713754951205 2.718827296132394 3.6131358779990594 0.2662001942449996 1.3437410444994857 0.3810991949784404
Ni 6.475172447185386 7.577284806164654 11.640671478127462 0.13329472963180916 -0.43553022023381116 0.11088602291930581
Ni 4.43599722624807 3.910098137829173 10.155707794711066 -0.6299534417458248 1.5439513050069216 1.039414732806726
Ni 7.516148603707657 7.941492326294297 0.6161844847190104 -1.2008203617421382 3.6030241568187367 1.3307991396268373
Ni 5.349956078561174 8.579681281494658 8.996767054346435 -0.888059031908148 0.27066311511235963 -0.26597985070407737
Ni 4.978895828872546 5.060206978140354 1.5311863023964194 1.3491077081280378 1.048846053422955 -0.01453804571517496
Ni 6.03901582908956 3.5805831313922925 13.41477381242074 0.22240813676071372 -1.3264632312556446 -0.2735463501974257
Ni 7.983366062574172 3.344141149591438 8.64751874172545 -0.035692568305603044 0.029280237021356025 -0.5017237853417489
Ni 5.935987640740014 3.8059293486875183 4.594907553565847 0.7028071924827574 0.6319157076785181 -1.3032379421791167
Ni 5.397888686248729 0.10172607848527576 0.26918087445689354 -0.021668229002053004 -0.22069269673150382 -0.22861195157858044
Ni 1.7488330081045984 8.324652069185609 5.8207030125187895 0.057879645925603546 1.1571602018500264 -1.2231390798439967
Ni 4.290246694629319 1.1495978511563154 7.476719403045428 -0.4358233259941978 0.7568710642066965 -0.587235591162324
Ni 0.13765226599478192 5.391820690034713 1.0257824414907561 0.948738866286708 -1.3659988274564216 1.2657494583153557
Ni 2.3129741598812976 2.9523949639371354 10.804229680607294 -0.31281300900753223 -0.6246790807207628 0.7806355136161458
Ni 6.185952585532102 7.142743278790453 7.443585406275003 0.7704423751332279 -0.2645364333893315 -0.7265320469035229
P 3.3298699524805806 7.486182739697391 9.162276441607034 -0.24126435023526835 0.35411006798410627 0.36526299927713224
Ni 7.894262328694682 2.6931865903258023 3.9693026187846563 0.8599242213451448 -1.0844010677094291 -0.9544551999451949
P 5.869431303318918 7.526842876734462 2.188469827337305 -0.1619131646994502 1.0196740598446892 -2.205045691131925
Ni 7.535693938881222 0.7483171553606225 5.304542829903229 2.910425272327549 -0.7929960920640279 2.1529623401731244
P 8.902252310309184 2.5664339055004057 1.731872730566267 -0.18984794343650527 -0.7118078533194708 -0.6601821587233792
P 5.687875031634308 0.02894297321990314 6.127776470250784 -0.12798334472122475 -0.06780127591468968 -0.04521182064994794
P 9.061680926626895 4.047900963128513 10.59143007202526 0.7372160089799303 -1.782146015177931 -1.3912149217107332
Ni 5.1409432646089375 1.9953944001330366 11.626635701020094 -1.176590028439864 -0.6964676234179747 0.4229472413624781
Ni 3.629519467776901 5.313630224534114 3.7171988193872063 0.2287543906937157 -2.0171553856424227 0.7961590631730417
Ni 1.3544680030316156 0.7566809528489933 10.279095250959427 0.09495495351134614 -0.7648826216572633 1.4846680938655723
Ni 5.99797245018634 5.960387372884791 3.5569772573988216 0.21813830574076626 -0.23878966344253064 -0.5479421928793402
Ni 0.4459347605664108 6.311811039336486 5.808096180083776 -0.6576750760308092 -1.3049490113329525 0.16396979011816276
Ni 4.455944052900457 7.85895845297735 4.357734674777409 1.1483721712447514 -0.2449916784881845 0.22314424359578988
Ni 3.2568076281413 6.061125234843785 11.00658594833679 1.898735773350233 0.9732157683821497 -0.7363819431144093
Ni 0.9439794651613921 7.478006913219559 10.002231289566895 -0.3607530272219206 -0.18147848842588746 -1.6429524035631833
Ni 8.538418907239354 4.100906963139364 12.670615743788462 -1.1982741982815168 -0.5158697378248277 0.35114635737009203
Ni 6.805590809449616 3.5271482654836093 11.125927465455383 -0.10435696355153641 0.7851465141126219 -1.1561320176958283
Ni 6.676721169554067 0.6276032673689638 10.439983836291036 -0.3366499635261299 0.017538008883763345 0.5726903463582975
Ni 2.0435916272043593 1.6998966717199897 2.172924807261821 -0.3503392880877644 -0.5172200812051351 -1.8323306064521216
Ni 1.282509780259096 2.510106475982936 8.431219769913225 0.22676178574371914 0.8258645606572744 2.9415273930489922
Ni 9.34498791377389 0.16337418257777162 2.5989912145103413 -0.8844260631412509 0.8883261695266056 0.28733749044424706
Ni 3.6173104768981754 1.1968369735622673 9.758767769289822 0.07311111816337731 0.18641372094397574 0.11652779458611544
Ni 9.123711360104906 3.4117194653222622 5.904493371668322 -0.7526981637759295 -1.5281071388858134 0.7184379570414788
Ni 5.661778085510873 1.540048314310783 4.373494127801809 -1.0562567440647292 -0.4300180321663304 -1.460026641167808
Ni 7.334747453730774 7.243727510520541 5.2798228170560275 -1.4987299712752769 -1.1898317239411187 0.41636727415211516
Ni 1.399717917656131 1.8380097404347833 4.372091645067833 -1.1686561183047681 -0.30264378178401424 0.15299040828852362
Ni 2.918551057233702 4.446372131053085 1.511500445205266 -1.8238436520270331 0.1014798991140575 -0.40326878909694414
Ni 5.553576131968325 6.097067847004697 9.676113448529227 0.5027787089688245 0.20684242111197282 0.866642771015901
Ni 7.148145164141878 4.259851964721221 2.1066029773635826 1.1389153967072256 -1.1826694018647246 0.31112430845119965
Ni 0.6597280605585318 1.0207190864544295 13.24489729284732 0.2845753543180777 0.11318356070423087 0.525891640837204
Ni 8.785409165165625 8.224817563053966 6.9576210327893975 0.1512106906802815 0.5865681327816543 1.3102231152476984
Ni 1.1654476397634506 3.7904810515592056 2.8406644477841203 -0.5901594496773385 0.694638540629036 0.68947602259149
P 7.500964925963113 7.5976422491022015 9.115854901848865 -0.13100233405320666 1.0366556820043502 0.15740524952676763
Ni 2.9799153798491216 6.246057684873034 5.6709393910730865 -0.7198592628690377 -0.6450460744128891 0.311177016066006
P 1.6503215988918003 4.363053524391168 4.932937829276289 1.313535467450383 0.7095560811708167 -0.7832454404351673
Ni 8.556732393557443 8.931615937101217 11.689792135600076 0.45070409976077214 -0.32484448625076956 -1.068287192866702
P 5.808523221020342 5.386336681426257 12.033832008763978 -1.70751228972244 -0.29018627274695186 -1.8770027525485158
P 5.118614863502628 2.9986303576460323 2.1565640294998216 0.8843363316409222 -0.783458841997554 0.016790589194777533
P 2.4436596362378826 6.557031084833405 0.7249749882702873 -0.9993479466928272 -1.203121241961173 -1.633566591472909
Ni 3.500768450363731 0.8015841248327076 5.023925835664342 0.4840672486022502 -0.5998856758261669 0.5015664338282781
