# total energy = -340893.9233178826 ev
CRYSTAL
PRIMVEC
9.02335500580020 0.00000000000000 0.00000000000000
0.00000000000000 9.02335500580020 0.00000000000000
0.00000000000000 0.00000000000000 13.20659214569466
PRIMCOORD
 96 1
Ni 6.358749335604272 2.0855229540435527 11.413110426252878 0.7714587322128843 -0.415137258399756 -0.13959624636980475
Ni 4.3562773421621985 0.1634499571307315 5.786098344421766 1.104777317372936 1.1559510120332737 0.25670022517436436
Ni 2.4579799836771086 1.5961683587220168 4.900781781692794 0.7718122588975611 -0.6517625672011161 -0.9338357239226305
Ni 3.3791021218909494 4.003012988886677 4.5790820269918076 0.15696996176156192 0.5006140972173379 0.8923774567778439
Ni 5.086763056579055 4.2606568478669065 2.557694374194141 0.0332127393065428 0.4288216978653841 0.5834118465408598
Ni 7.114518491090809 6.2111272457042075 2.4979742006125645 0.7141681260215313 -0.8393659375778189 -0.17478487845579574
Ni 5.221391515094273 4.349464709040283 11.664775410125051 -0.2347095798358861 0.29412160324561604 -0.6077522230584372
Ni 5.618022113116721 7.834852930988253 12.440940055208236 -0.5511383312191346 -0.042036508245759864 0.4041956717865877
Ni 2.0433207221081857 6.511406457665965 0.642607258821701 -0.6855669173450709 -0.9871100098657386 -1.7364253732123645
Ni 2.810251767888511 1.8025685839282568 0.4376462587584353 -0.20259444446889624 -0.9585910764904394 -0.4340227824503493
Ni 0.5082025795136662 9.047176785904716 4.734549924175987 -0.21103357637518494 0.49514227546948925 -0.4448203872864855
Ni 8.740842902651824 2.298699718951195 1.2003661047003524 -0.13426429263393005 0.8351642407916455 0.5684860784689629
Ni 6.889106056629102 0.9294506949973224 4.8501472243899695 -0.7682942184419737 -1.1748090252800412 -0.30133431894397134
Ni 0.60145985710084 7.363896956773456 2.3117086900397603 -0.47673111995215306 -0.05897339321041457 1.06235668631488
Ni 7.653104511992709 4.0208972787510975 3.647805907252017 -0.03611448633437006 -0.5233333931917244 -0.05609170078724533
Ni 7.596681472375037 3.961514578651322 12.655864644004241 0.283470294179357 -0.995662270311124 -1.5129633412658394
Ni 7.712342838410431 8.91955045096911 7.050008720607096 0.07061663387629773 -0.00019668939183837094 -0.38730660934073297
Ni 6.8841161412431155 0.7955567375895533 0.33719556246292837 -0.8772146329944763 -0.41650714216408913 -0.0022183478075574695
Ni 2.0267899355130194 6.254655910843444 9.176785551962025 -0.7842381433657396 1.054114758021062 -0.9228655980643719
Ni 0.018682856793281452 4.858851152746791 1.0908352061391708 0.7346104530362834 0.6286545204287431 2.165352229197045
Ni 6.278874596007978 2.125758094560936 7.050444548659796 0.412929709225476 -0.3784440167437805 0.07548784592567
Ni 3.3662799342535417 4.349654199497978 0.6258481813417871 0.06829878437639851 -0.378862849448754 -0.3541625184885965
Ni 5.966314597716514 5.51559800905464 4.710632619072741 0.17132443071102108 0.34854722918434816 0.06338463490423277
Ni 5.264450965766835 2.6732411436194043 9.299778394039214 0.12385492437514797 -0.001679701695268075 -0.11437346724727399
P 0.4194299094252904 5.559189837679776 12.354542332189645 -1.1043965369947495 1.2894650567647405 -0.6407960408872835
P 3.8991090545835445 5.9991415636735095 12.595444258064704 1.1159215069152137 1.1443748771599003 0.04794413197944646
P 2.4242326354970207 8.417274411103755 1.5115076315656373 -0.5295498064150815 1.0667645855745886 0.6250421204871364
P 6.089221717919985 7.885591256875055 5.782572919573113 1.3333715283397036 -0.5354268340211489 0.21429990583128256
P 4.863525250703285 0.9886078112188887 12.593277750498384 -1.1248843725354563 0.21529646541659694 0.4155033834899231
P 3.9548643659217166 6.097793905291932 8.166164363571975 0.23631600509105755 -0.5459339042000598 -0.0901107380451674
P 4.7414933959472645 1.133522894580444 3.717708937095954 0.7345911697625737 -0.559404942103301 1.661692660285164
P 0.24652437845554434 5.579645783755781 3.667153785318259 -0.6384987602126745 1.1359285461647597 -0.3540339633305323
Ni 1.4057484954481128 1.091293592579692 2.6494799425598785 -0.4044463543448132 -0.14554706463660094 -0.5606133605891055
Ni 1.9700691251761118 6.54550571669606 4.797043877124023 -0.6635911844049281 -0.841303520920164 -0.8060655236534762
Ni 5.95744463962533 5.322146298457605 9.13842005062724 0.15991258932965363 0.9223156390981729 0.7139169292426737
Ni 8.922239410797362 2.217300032338207 10.165550369560147 -0.53717672683272 0.49042944337485217 0.6170166790794986
Ni 2.3908371981669387 5.252504043576878 6.85327070407231 -0.3674903459457542 -0.29664128434367626 0.13795125456721402
Ni 0.5801250362353318 8.973311600823912 9.020696847945013 -0.08214674600308433 -0.2229454973214225 0.548995316734203
Ni 1.5268960614015523 1.0527367961161846 11.51414132428314 0.5811603315025217 0.17344481948813353 -0.7252498377569897
Ni 4.2948282937380275 6.49332365398872 1.7340786114974218 -0.282004765377424 1.331170921143959 -0.697636189804779
Ni 5.563124020515744 7.61770588982413 8.305942450858952 -1.2381039286839453 1.4697047876875204 -0.4804571626534887
Ni 5.636935065465775 2.997856344362365 4.712574445096365 -0.7320460347432167 -0.1232453158156071 0.14020354093650048
Ni 0.5258306060924417 7.4477870894018725 6.54667965519826 -0.21391089792298 -0.2934232916270108 1.0484156507537556
Ni 4.976407423359141 4.277368101564639 7.193248166921314 -0.3177284440312786 1.0519483464973625 -0.5605218293165637
Ni 7.8918354186238835 7.194348113911461 8.925146735819723 1.0348674797556758 0.06796916895112165 0.5936255538490679
Ni 4.660553900445824 0.17515956508081182 10.502727885312819 -0.18352148699784523 0.6407970693285481 -0.4288121847836873
Ni 7.832696349112574 7.430390060714384 4.5181599425071335 0.22757785388711133 -0.5215158803670115 0.28436786629296185
Ni 6.923412852827149 6.205568858945134 6.968590084948339 0.7906563881872576 -0.8152592743376025 -1.0356830336784355
Ni 2.1893547015056583 5.260850647070617 2.6424281905270606 0.07074338926214914 -0.20955622049871006 0.22101485595761292
Ni 2.280662032049592 5.4319605303698175 11.321562172127017 0.5521932548462103 -0.8956928943043219 1.1447751979221124
Ni 0.9787182139981998 3.4540501095871563 3.8374524689914202 0.3928869316419879 -0.9016385703647956 0.08878533436552452
Ni 3.393277812797612 2.3954391092824054 2.7627925292553583 0.17466146550405404 1.3798267344784494 -0.5659332301401221
Ni 1.3615701487396337 3.4194726127352584 8.282540379333534 -0.11582151254771021 -0.31048487509498784 -0.6170444469936405
Ni 3.763524120424719 2.329532523424821 6.991953356046703 -0.7265094211957036 0.003557378333955164 -0.07565393918988907
Ni 4.115317666814318 6.714874092455487 5.8647838058121415 0.8018782250450062 0.50535315456422 0.8819241226550038
Ni 1.0855366920077945 7.598910241091744 11.561869458899118 -0.6220190173900965 -0.8046709572987948 -0.33335638037652265
P 0.19570123303053666 5.701506194764362 7.818302293011805 0.8798453857491041 0.5514422356127986 1.8221860618189523
P 8.514104034986248 1.7679549936558454 8.15079217577529 -0.08318110080486965 -0.8144928284852232 -1.2651365073217051
P 1.9858509732956235 3.290655194922708 10.427212328579039 -0.2791361855803774 -0.4947740934967931 -0.7505353517966558
P 4.042589424479689 5.94678805721873 3.7541723151696806 -0.7201135449716888 0.0005283616996442514 0.6502273615035125
P 6.977760520765297 3.9267746614071135 10.38306285660697 0.6778358672494004 0.07064774422454931 -0.07196543459470832
P 6.295188822080064 7.6790737280521455 10.40145967304268 0.6242101115041444 -0.3230179745649921 -0.8825159906027317
P 2.381660446001391 8.420964963351256 5.842028708849428 -1.2134254521006584 0.10013315527817594 -0.4996288504859331
P 6.971958503417758 4.1478107686315635 1.4561719062409337 -0.5809222473497867 -0.9646843338723707 1.2706260696813665
Ni 5.126538005984892 2.8869502864796206 0.5684000885815332 0.7131913639305588 -0.7089102200567017 -0.9618388940037758
Ni 1.2858100590818742 1.095760153368233 6.933368320540276 0.05277626326076717 0.1457542955514006 0.7049118975305859
Ni 6.8383226139666595 0.7895065779759839 9.191933960551525 0.1859522079265249 -0.8997238698405859 0.5143571578350431
Ni 2.7350601496038385 1.4402628288141122 9.26595615201156 0.37196483677734005 0.6342245583173529 -0.16544714599463764
Ni 6.3435540055681034 2.0224587250514037 2.4193952148127034 1.1011595181146905 0.3866260383339406 1.0159865836907729
Ni 4.19404644030931 6.701600737061661 10.417703516944766 0.4399980261971777 0.79083687962918 0.3419654622017724
Ni 7.906128413147215 7.318049289366228 13.539530835080235 0.6595550666623415 -0.19785770111485923 -0.31384350715457565
Ni 7.890833826204635 4.011449825931699 8.258425462752976 -0.5720565694290405 -0.589432598813643 -0.45781885642868253
Ni 3.1274858641364682 8.259961237795824 12.663180780342321 1.0688392087154301 1.1557553510826999 -0.7034445689564401
Ni 0.37941042709547507 4.683527362602642 10.121717617353085 -1.908706254299384 0.7777250248375703 0.26486450615271157
Ni 8.459359339422452 2.4800420869659634 6.035531852570696 0.8513693897965982 0.16448426786073608 -0.6215662461233941
Ni 3.681456705532232 2.543070222537599 11.333382767345176 1.0929343019914208 -0.6685868378473067 1.0542841937193907
Ni 1.0477198106648133 3.391437048351426 12.415860541964454 0.18448693623490808 -0.4561548384626983 0.3824423392698962
Ni 2.8191939128207215 8.407393837238194 7.9942405736401945 1.4567623685942395 -0.7356106121660234 -0.4271911042404965
Ni 5.555535378852788 7.844598154526889 3.4354971891077235 -0.6303841015253402 0.5512018374672184 2.1475907914485655
Ni 3.1013000875539505 8.376588102829952 3.696446303071473 0.2904750076319642 0.39165203079362226 -0.8869426589155176
Ni 3.7755793228762156 4.349347405423614 9.627896461243008 -1.2659296926469619 0.24430956481949534 -0.8679920859549439
Ni 7.489032845693632 6.031030100697153 11.267217211195408 0.055068915949685805 -0.019374804982185988 0.11888241086122107
Ni 0.49091834276528146 0.16836046699158816 0.19044603100377638 0.6240453037915059 -1.1898155259912024 1.79729675477644
Ni 4.578639882590518 0.42396775471934556 1.649728287757458 -0.7430251594625397 -0.7243427525616881 -0.7504733882104688
Ni 5.986211095774561 5.624934003145049 0.25594115186750693 -0.1266769672049754 0.7189786600362972 0.3568236102605274
Ni 8.021104004192853 -0.31086180285630555 11.301013285493191 -0.2960203629302257 0.2031109790939986 -0.2515770450151861
Ni 9.097166173315864 4.9238554030915385 5.819273611886716 -0.2670777117539465 -0.2159695802242216 -0.3193739500545016
Ni 7.989594448084599 9.114039847405905 2.414601106233003 -0.20838456878811207 -0.8056868001578189 0.1430628647621665
P 8.444191079451668 1.808641301929647 3.6115410429911146 0.19299600214718377 0.28712100355806686 0.3182516635246003
P 1.7107739922073915 3.33072791504778 1.592147551676817 -0.688782338958575 -0.4258446175149311 -0.0937719889468385
P 4.8607189872583625 0.8351602432479508 8.150078428384637 -0.8734235413831603 -0.4185758517676598 0.21532166222757756
P 8.424411885010292 1.6271274901674402 12.288853209190654 0.4190893010689685 0.8647861774231365 -0.36705814350434207
P 6.142928727644018 7.895544017581642 1.463316598831574 1.622385378045109 -0.44028239020681587 -1.4112877812012081
P 1.889048419478515 3.2326440448024436 6.075164232965504 -0.7025421117468289 0.45082879826409455 0.18223002187993131
P 6.913893213166723 4.0756780677354065 6.186747042482875 -0.3045451125717852 0.47150663832842027 -0.9186235349585663
P 2.5617034508776744 8.488080678796042 10.220951965377287 -0.8791051651489699 -0.6528313747852628 0.3240160768122033
