# total energy = -381167.0043489081 ev
CRYSTAL
PRIMVEC
9.21127759253143 0.00000000000000 0.00000000000000

0.00000000000000 9.21127759253143 0.00000000000000

0.00000000000000 0.00000000000000 13.48163584687592

PRIMCOORD
 96 1
Ni 3.589487499090158 3.7039560457874656 7.576733623988566 -1.8001465655204094 -0.7367670943679697 0.485040668259113
Ni 0.7316978359137833 1.030124807499794 3.184214313018318 0.5885445397817347 -0.22667591089813216 -0.7462860896019986
Ni 6.137557164346662 8.672086251535646 4.772054345180689 0.659332152018258 0.14742448416497192 -2.272187993306377
Ni 0.08876447656301596 9.188479684898303 0.9743284145840244 -0.5712800962743323 -1.0113912510106067 -0.48538391053114477
Ni 5.245039632867715 1.8213090741346853 1.852956260574529 -0.26132538265120153 0.05981825770921311 0.5907160935117568
Ni 4.460275626717898 5.242359151087002 9.890990666618388 0.05087544669362851 0.6347603762161649 0.818061776783404
Ni 5.652979483803873 1.8099792026904358 12.55965345704641 0.5215410771779921 -0.2287579902381415 -0.035456541035397
Ni 1.968026303698917 4.753802198622331 3.2201834309066504 1.6425243148868292 1.7191627294771745 0.6196978254560875
Ni 7.7493373069835085 9.181138296653533 2.942514994513128 -1.3987839923072427 -1.327242018403198 -0.750921531491481
Ni 8.374773844538867 5.853416884313521 5.921039636536015 -2.189783622766532 -2.338456634626624 -0.6146409797584705
Ni 0.35560045050252426 0.6504387083367629 6.839395722802169 -1.9791231134600495 -0.7712430166576524 0.06046540437490877
Ni 0.8775851293665297 5.0099033496503536 7.417299304573984 -0.7784058529546788 -0.8822054013408485 -0.034937692417449505
Ni 5.069233188652312 1.8964915218809972 10.229690264986028 -0.6685768105449775 -0.2719088145940027 -0.5200045859288077
Ni 5.440447675809428 3.8046997888653165 6.521956674256052 1.9733463588772722 0.7602083561100456 -1.3879282805396613
Ni 8.669571572751678 5.443837425965106 3.5260945655401836 -0.5317887230479293 -0.2572208735645248 -0.35308291227117256
Ni 1.553141149454658 1.424791207418746 8.761269841229325 -0.6275633442470934 0.6443763020393741 1.696486628035898
Ni 1.5620945112788942 8.893055589808899 4.722522542158606 1.3982054940959534 0.36293872201932975 4.026236221806827
Ni 6.583401422594272 6.727815832759266 3.152019976689215 0.9665550685325226 1.002310628865577 1.81008850722447
Ni 7.385206292298448 2.5256402043079276 10.40404777523543 0.8880857713810254 -1.3016610846103003 1.25775641280755
Ni 8.702354509719227 4.095205061717949 12.138056044817255 0.2923197741501869 0.044327104052149464 0.7872296218938958
Ni 3.937185594542259 4.6042663181134325 13.061049088225712 1.6134711062746148 -0.14327138122854682 -1.1519730012221323
Ni 0.6069273963520466 7.901047049005287 3.1692763841393425 -2.927343388239126 -1.3716192589669927 -3.9271222518217854
Ni 7.199534569776711 5.088576871605909 10.34921856646734 -0.9512438920967489 1.4725751672567802 1.5124030978869953
Ni 0.8292636882206857 8.205967971297149 10.84094696180864 0.3093091096193318 -0.27623598121444687 -0.10463489980327141
P 6.676315579714715 0.5865409967744751 0.992276588981683 1.057681392326398 -0.5918910876564646 -0.8146954314143323
Ni 6.445195413529623 2.2033376011906207 4.15525614375575 -1.5826271243105647 0.8670700883613068 -0.4040884567847622
P 3.0682673562666998 7.696059277362745 10.841877300845933 0.4644209351262324 0.11731429504315279 -0.19577253645105638
Ni 8.20381253233946 1.8969797195936358 13.18762862270749 -0.5592553038993142 0.6385535247100099 0.872935031782516
P -0.14088188520656336 7.345275403915665 7.1422339752293595 5.716517235252645 0.3307796207882819 0.09941890281997072
P 8.659982632773254 1.0082480232070359 9.08457371022142 -0.497619276255072 -0.8325149760942566 0.5339921584571514
P 3.991080779762018 7.6414271899352295 4.586533687611542 1.6771910130310792 -0.2928496785117279 0.8807007917708639
Ni 6.284090168358953 8.035190884649682 13.185633459979991 0.5582484599013547 0.31344292928204726 0.6667253591585356
Ni 6.140385026568925 4.378488692934573 2.744780182850425 0.9874056867292867 -1.5851108099643667 0.47460276075524066
Ni 5.26952320872041 9.142257493916805 11.151294247732865 -0.4330514196760155 -2.3565003795022124 0.5447324276927908
Ni 2.6033465421158044 7.153653196066299 3.178552140679472 0.08578794230009741 0.13958493351589507 -0.4337728712230723
Ni 4.998932718032385 6.593985180553169 11.770074716096667 0.32654475677132794 0.10399778043990476 -0.33804890075618554
Ni 0.49656615833521983 5.538999134819204 10.308032180948093 -0.6539960845173254 1.8871357272174596 -0.5584649467875349
Ni 4.3672417229886955 3.6717073629205412 4.299186040719144 -0.6192663943456238 -1.057479817838553 -0.6907893420862748
Ni 8.473196345662286 8.35899492601529 4.957885422804853 -0.3598870796771996 -0.6106719678083934 1.9422195555654809
Ni 3.077414154920472 6.8766424448932 13.041608686857348 -0.4442693998790219 0.8280178595548514 0.0714545563965608
Ni 7.9974891254453615 2.056500625017629 2.2202771406914135 -1.0484876416422717 0.9065033546562646 -1.1512273813053593
Ni 4.401424774150979 5.723454968698143 3.5315688278160517 0.6996557913379692 1.183564402875168 0.814026944592398
Ni 1.0077690367719945 6.5767140350588855 5.105346923598918 1.5251573122288702 -0.19830944394029718 -1.1391946185105413
Ni 8.3486967176619 4.264084625180444 1.2165555392955192 0.7476490313877963 0.60237527501724 0.38011703357082927
Ni 8.306711714374998 6.926503090525494 1.4622995297935295 0.24822535493413378 -0.25684060740697057 0.08234189273302593
Ni 7.8114121067093585 3.020377924040153 6.719840708615826 0.9006594942809778 0.5408883713563524 0.7730114214119849
Ni 3.4125112226199437 2.2921251059476293 13.314139993735049 0.8256367609171845 -1.3014039742941717 0.1109122481715509
Ni 8.226877571442227 7.701291283037813 9.017003462281227 0.7782646993911242 -0.24313971288111033 2.776825352750495
Ni 2.2083116910929745 2.071386049614301 5.1245183556614515 0.6864806874085919 -0.16201318061242423 -1.6871028728281525
Ni 2.706466794813668 4.6916260748429135 5.703365172259193 0.2805824311086006 0.31037637454158157 -0.627314718571397
Ni 4.63596232432454 8.734511079810183 6.324990083144934 -0.884083849310484 -1.1668594314156613 1.6745844286461675
Ni 8.320233869887321 1.5030502218824395 4.882926809104147 1.9927731001433164 0.0735039827264218 -0.14665495298879905
Ni 6.405669821361108 3.7296278764501674 0.16538756812549113 -0.7951069677594436 -0.09728411586515504 0.19046860773963972
Ni 4.569705604569673 1.881965337110606 5.616934833439244 0.15310790770299437 -1.55687264105428 1.5938183650406936
Ni 0.49961969685860896 6.623774452301707 12.885586224664676 -0.36680540406358764 -0.3654290925413513 -1.6308041982364234
Ni 0.508751757468226 3.2502085113616714 3.040944864658625 -1.0079403163475287 -0.856765364001189 -1.2489457564944555
P 1.2525587389109607 2.628714400617807 6.824215537322394 -0.18292859060885272 1.2856945339787147 2.331796448997629
Ni 2.6925301318094816 0.1117825381500362 1.6443825385634938 -0.5890942416376177 -0.9337639901444306 0.3683372673270818
P 5.532799944996457 3.9044855590730836 11.573431440829204 0.15306625583178154 -0.13321579676475767 -0.31292716598789333
Ni 6.529672040371258 5.509044060073921 7.810626384730339 1.0165982491328427 -0.9617846437270727 0.7029141503742669
P 1.4594071886280868 6.609183788588137 1.1847646569251629 -0.2199884715756276 0.47280221721139215 1.9222824503219216
P 4.974937339892328 1.1101339647069082 7.889210557293206 -0.6350195434148225 0.7714358493947489 0.12454218025015969
P 8.20046883857177 6.930933715049627 11.254118818419867 -0.5575923143745946 -0.008388224063695231 -0.05121020432522793
Ni 4.360066137740671 9.250517639513767 0.11871586679726104 0.8784104530747904 0.03825621526772121 -0.23210350967160673
Ni 1.3985022211570484 1.78299015933137 0.9633623886048546 -0.717726532796751 1.666961621993587 -0.3775060783105434
Ni 3.394318949365966 5.752184943523033 1.5299360989324196 -0.3312758436984101 1.8903393217564217 -0.7847137974505776
Ni 0.5718665104347729 3.8506456415189065 5.196712664955313 -1.3599536497036062 0.9337192529494241 0.5231266764975571
Ni 2.5602193404068814 5.694844740482014 8.732864103375848 1.9852017155539614 -2.7299482285829826 0.8635487054716096
Ni 5.707694472729761 7.259103901996191 9.257165418555486 0.10258007415677173 -1.8806107816147484 1.1380167961523562
Ni 3.0622800258286818 3.188456106351713 9.700535527640556 -0.7372908280819238 0.20251345471931573 1.540902490878269
Ni 1.6429971624129125 4.074544166067988 0.46348201259025185 -0.6024246401979367 0.9905025804870554 -0.46686322601913793
Ni 1.5740231157669453 7.500549910367464 8.752048431227017 -2.254230637497008 2.7724009984305544 -0.2802175915700142
Ni 5.6370439735611475 3.6135473561733935 9.053430380666128 -0.22552251401997936 -0.576712065923181 -1.7437591878696161
Ni 7.163361882653485 5.882745592182213 13.079761798663917 1.7122647168057608 -0.25183107000752114 -2.4023135811815854
Ni 0.7469415792089772 1.3019772432186016 11.688497799442553 -0.21332802883631646 1.2145575088225729 -0.4976318746605623
Ni 2.3245948594768806 -0.15971065774249038 12.588517916524216 -0.9347515508686804 -0.15103636988594632 1.344203328847885
Ni 6.51395760079086 0.007685890026895711 9.062976027639849 0.567094597438075 3.437749274735905 -0.16100273707003884
Ni 4.768733679606989 8.130960537825178 2.2211807670236743 0.457659962253315 -0.011931204219947193 0.3346851264902752
Ni 8.154744056580505 9.071404346641058 11.967162896072065 -1.2270695252466546 -0.6971847040896573 -0.07544439428224425
Ni 0.5701283423522283 3.3318020083154614 10.11465154020547 0.1001804635763436 -1.3515134893560532 -0.49100434204171567
Ni 5.877347783510399 6.19045753158595 5.640635450696199 -1.2784602210138047 -0.32468944873014405 -1.2375444566360492
Ni 2.984453941412045 0.8386803773080485 10.692932784358758 0.2643860238543963 0.27849983754795904 -0.7619885879389199
Ni 6.854931463597186 0.8577090345678294 6.645852963573839 -0.4908220508275805 -0.2848386352817933 0.2992072452986395
Ni 2.6646568058011084 0.7020909474616642 7.019928473552567 1.8171911797075218 -0.5728176159647813 -1.1361080091654177
Ni 2.49013994044928 5.241051149668235 11.414010938331018 -0.3262940742131026 -0.3645533748046173 -0.687316553046326
Ni 7.188223120887655 7.570205591555607 6.970599318637617 -4.695189956075249 2.6612252121849713 -0.4770203690577979
Ni 3.5064570428312445 0.4489816193971319 3.8797449885754336 1.59889320846044 0.6303499058532951 -0.5193191298260088
Ni 3.7789358454266444 3.6686676413135473 1.680526670726169 1.1525995790625376 -1.3888052838279759 1.462458133427436
P 2.7058035828266878 2.463141685812617 3.009410976933223 -0.4872852413189157 -0.4947882345641801 -0.23967926513633558
Ni 3.754719396624261 8.473620064431746 8.664998173424793 0.09426949740854733 0.3156389084921015 0.8896973388425193
P 4.622827042471289 6.513506248188609 7.544862603503116 -1.111621079767647 0.2930859628922501 -0.022341858030309907
Ni 5.783936217399722 6.067431708001075 1.251800650764732 -1.625179910071111 -0.01112593470983245 -0.8864454075641249
P 7.710871011738641 3.822477554627431 8.786548350338636 2.2417895835201778 0.03185519683738385 -1.7625639792809449
P 7.331559811573807 4.152047855768732 4.962778453464353 -0.7268395508416128 0.11062711283096432 -1.4296354304704606
P 2.119505763780772 2.9963272782345145 11.889198642491474 -1.011070377336078 1.115848230475117 -1.258445725565091
Ni 2.5508514710907817 6.858615974635966 6.7004675495739185 1.7204349113213788 1.0010585016260307 -0.24624457705867914
