# total energy = -381177.4351331722 ev
CRYSTAL
PRIMVEC
9.08950302438344 0.00000000000000 0.00000000000000

0.00000000000000 9.08950302438344 0.00000000000000

0.00000000000000 0.00000000000000 13.30340645723996

PRIMCOORD
 96 1
Ni 6.628865324268965 5.63994559770029 9.998042243919004 -0.5379056345789446 -0.030773790847747 1.0887783708415186
Ni 2.857512445449611 2.900405809203334 12.20470447656085 0.1912553653069932 -0.23664459207506988 -0.5863483034613645
Ni 8.472770953521778 9.465444644750399 1.4757598596485715 -0.3904212437103147 -0.09297134742241407 -0.048056746297910784
Ni 7.661623722883454 2.526827243770399 11.276605340135278 1.0974296187586132 -1.8282109278567933 -1.5160062418572215
Ni 0.5360997846007557 7.422024428849094 1.817457902930668 1.4973528884220921 -0.7462413524069922 -0.02239790807922594
Ni 8.270165935918369 7.863874249877329 6.172886780075062 0.19901006955174758 -0.036489610285601666 1.6626563097500138
Ni 7.517127896735342 5.761953993899956 3.09985313353104 0.13040249568567863 0.8791432174757569 -2.0303677705676386
Ni 3.0927578676386567 6.30276123200528 1.5507382593663268 -1.1788243170870214 0.527403192385724 -0.20997016810767707
Ni 1.5185559657222427 6.8565846381325 5.988022654053454 -1.2427175161965565 -1.885722906030333 -0.05861086766467326
Ni 4.374559553705628 3.8646020881326497 10.758344613746655 1.5684786007243245 0.09936439543295145 0.028557242812402434
Ni 5.626365880504261 4.296189860489989 3.9575368006487692 0.8477652173851078 -0.5756262890581699 0.8203143202630067
Ni 4.770316505991516 1.9831749912859875 3.151523321196735 0.26056125079166736 -0.05439400136984826 1.2693106933040526
Ni 6.667095773081882 -0.06446638971962407 4.808676025744315 -0.5743273677410884 1.122622058863841 -0.9317482452659824
Ni 7.48851414189391 1.712226002064811 3.152800396341341 -0.5043123720045315 0.3614446539723065 -0.2786798147692491
Ni 6.647317014970397 1.417144382886835 7.350969967493806 0.2003403583273969 0.01309797083453873 0.470458399569564
Ni 4.160856253172933 4.892243096665905 13.208579162100493 -0.9451421500743853 0.1997999124428946 -1.0565753037464125
Ni 3.367088151904628 7.121543645002818 7.274249110087645 1.580423946011659 0.280491156946375 1.3238257936327975
Ni 1.1444047616123665 7.977456676973434 7.926914496606285 -0.1583341890989402 0.5486965545468615 0.09690102149412343
Ni 7.108891057093264 2.0681345740378525 13.612842980064938 1.9795172635746747 0.7604235574446453 0.17069348199524154
Ni 1.3083975712848974 1.6513263332472765 10.731697827313 -0.21092507582177866 0.7537957677154824 0.7016669082307271
Ni 6.773542940473247 8.998444169450805 13.105026092403383 1.0993754296310745 -2.740286891504829 -2.440737946596055
Ni 4.701281732160297 4.666305325352852 8.521403429348844 -1.1311221259150521 1.199273843190625 1.3238612748564231
Ni 1.523927861882118 5.661714956926858 8.141923958692574 -1.0087525278361789 0.8574734458118071 1.1416127410337304
Ni 4.542133627484742 8.023413203173652 0.40580176183965777 -0.589110953808166 -1.649924206895326 -0.08645745756329626
P 8.418088504625317 0.3526999774816103 11.821792809644057 0.8983370167953884 1.1897790163263124 -0.16638791264135214
Ni 8.110127059967574 4.3097786671888265 0.7493440652416165 1.4091226552290892 0.3617467585937576 0.9881379369096209
P 0.157030250521153 5.9934636304346744 4.4471692289914655 0.3911025860480555 0.43783110045284596 -0.21068802011030816
Ni -0.19177941975838197 4.283400930038307 9.858116619783052 0.3319386740933896 0.8187940269637384 0.2859269832499657
P 4.61832184002632 2.8266444939116484 0.2176308746962849 0.5262310264544937 0.07121801490572251 1.0316592572310233
P 4.7150977764293485 5.677503423305374 5.459279004075687 -0.952196228707689 -0.24748179189988992 0.48037540157295977
P 8.528307815682245 5.577582518930574 11.827486474203356 -1.3352435485514358 -0.555029952964057 0.26106750100412457
Ni 4.518291861617818 1.2808654672776867 6.023090864839264 0.5008354691995246 -0.7610465357406249 -1.4229937567842268
Ni 1.8668475343416884 1.391539253475045 8.406834791198005 -0.8346749598600529 -0.8834498152709107 0.535732795297342
Ni 5.6177672108473375 8.361242754060413 6.798532710544896 0.44505358634321407 -0.002113189688260877 1.1985860730949809
Ni 8.647680256067423 8.091984412361635 3.837101797385269 -0.20807449374686102 0.1164779151847865 -0.4605887058643358
Ni 2.518428543175264 3.839142390765797 9.175438603940739 -0.8510721702711537 -1.25251779011643 0.010507070178910937
Ni 0.24173623614465825 1.646845208362643 4.604255834430032 0.43446501219409045 -0.6777124542976587 -0.5111592197230358
Ni 1.1468316588622596 5.650734837534084 -0.07005188919550093 0.24160836383824844 -0.9759539932489191 0.5661162926852057
Ni 8.249196452938959 2.867210944946373 6.347174360628599 -0.2568871443741898 1.0502390771157395 -0.19109929934510314
Ni 3.0277861015628753 0.6154311472135433 12.11523922726677 -0.564097462482964 -1.122840345522234 0.7624755548776675
Ni 9.210574985997612 0.8434749563273458 6.857546307529648 -0.5920342981025482 -0.7918542651501008 0.45112678912048754
Ni 6.871864092353735 4.182971013506227 8.2425511174356 2.691237699386662 -1.6601847082810697 -0.347689252059427
Ni 2.0066168190293343 7.5847083501171895 4.002129901427698 0.36877229798197136 1.1972930653151703 -1.9676390240798498
Ni 2.372769260667654 9.078513599691648 6.1064634204007495 0.24553495258616423 -0.7484928674453303 -0.6370612564351996
Ni 0.6079986607669615 7.756181820601187 12.687804279235015 -1.1333422734948224 2.2790775213373586 -0.22115600952116748
Ni 6.577973198043685 4.045837684633071 12.388783269539799 -1.813663626170238 1.7842720603819981 -0.35426356284283506
Ni 5.72674126001949 6.445675484664697 12.268747295449595 0.47285286794366943 0.002850067854285414 -0.2029320303139731
Ni 9.262112466922302 8.942443742647097 9.797945020140485 -3.1328771178420047 0.9775737882405291 -0.2921056012568518
Ni 3.828171360875832 1.2772114871486346 9.924420906970571 0.630475632797882 0.09445615949805668 -0.0160735085230949
Ni 2.0054806311782607 2.232509142828344 6.166261441477883 -0.7281091615826557 1.1014138002173417 1.4760412714285094
Ni 3.0275134164786173 4.756209597632588 6.812621439898206 1.6417954071406047 -0.6277852304499124 -1.3490148913039153
Ni 1.0063170349443096 5.007434365759131 2.188809540175499 -1.049823586844876 1.2802152560316986 1.643969531973788
Ni 5.433668420962212 1.4823797445440658 12.035830603880108 -0.7483452861238725 1.3447399180776454 -0.6041531928532692
Ni 1.133560984761722 4.291399692509864 5.611509997113906 -0.4171254924743784 0.26687459460420493 -0.08337779019670802
Ni 1.906732272665769 3.2133664804058006 3.4139599910376695 -1.2894128633705666 -0.6798037896090486 -0.5369363286871398
Ni 2.2134575449415452 4.947752690317947 11.094069944733228 0.07346181663457671 0.4796650057694965 0.24662021523054298
P 6.0354389544047296 2.781087905835009 9.59419018043179 -0.47668972519125646 -0.27192989763992526 0.6582800566046599
Ni 5.351926522204587 3.6931740651626948 6.488084377918723 1.0795807635026504 -0.2729897063630073 -1.0727832809648425
P 3.819481796190823 6.31047821988977 9.952025727000253 0.03720463407475528 -0.2575214355240791 0.5437551513811861
Ni 7.5796000495387625 7.04232862802598 0.7524217708926041 0.4492979634418649 -0.2274996923510082 -0.4286594612559069
P 2.6545802057450922 1.4425404537340278 4.339810384468399 0.5183166567034234 -2.529224775884554 -1.0249425073324798
P 9.280927737736079 2.5749743401474854 1.7404043697217122 -1.0749471213853807 -0.14286257582590237 0.5377310566742933
P 3.789586421453379 0.197962099568783 7.902609166096123 0.22975943491946235 -0.20019123434404235 0.24427999713314058
Ni 6.584381297523738 0.6681248128954853 9.939865790142923 -0.2819512864316693 1.6721529363865395 -0.7146116413168532
Ni 6.009906541015408 5.4397674773467735 1.2365995885998669 -1.3254011085397175 1.4590899882861517 -0.3653630151901062
Ni 8.228735982116829 5.349426908932226 6.417749805185875 0.560414614314738 -0.26114771942275666 -0.15056097291142456
Ni 3.834370401791289 4.090821634032769 2.186707138175873 0.7424332915148116 0.030755021794669612 0.7487378935766008
Ni 6.7056716230015265 6.564847955988085 5.067280561201151 -0.6949131344466613 0.2733835993673163 -1.1572342496210715
Ni 1.2092401851460193 1.3430103979799977 0.06660605868076551 -1.871187174308003 -0.37398392408989783 -0.5785820292523842
Ni 6.110354636553106 6.062807447361386 7.18912046258354 -0.7483679118316918 0.6219436840674708 1.0539157546363784
Ni 3.1725000757783923 1.4608739808989484 1.366325881634305 1.8530930358104536 0.28571872389390146 -1.1265738444227371
Ni 8.454910080502904 3.9491435537553197 4.0126528188292 0.23281390547507003 -1.526264943470752 0.07321936160646744
Ni 4.454656252454899 7.820153741368023 4.9238700216883835 -1.1174387148906884 -0.17419840982470644 0.6390890854985058
Ni 2.2339543737749095 8.369668723163974 10.014844189860678 3.1882939040494125 -0.2917070802668525 0.586677404666009
Ni 5.4446394508521765 7.817999529202389 9.163718599019345 -1.0198422099914373 -0.7615337597896885 -0.43434262768361326
Ni 2.68451193849377 6.984392137124045 12.058300763773218 1.99080903443841 0.8656243570537157 -0.07018571698646622
Ni 7.211457006785362 7.841268656392372 10.847703515857877 0.9533606813294355 -1.7095190357398233 1.1175767831304497
Ni 1.5570136521053755 0.5262622157110217 2.545180767841498 -0.9141035356010259 -0.19796054524131068 1.3678075985303861
Ni 8.35630715403535 6.489841378811622 8.50993611260553 -1.1374892057836603 0.3066685866726912 -0.42659486541739433
Ni 0.5608014174333724 6.6501620293494845 10.387725590428195 0.6731027234397892 0.08813073150066113 0.29603476110792887
Ni 4.7393849279338935 6.3311659282821156 3.15595354486564 0.7643843418646061 0.31380751171031757 -0.4395951343318042
Ni 8.592616048053001 2.1833076641254614 8.893354064828761 -0.5320460904743741 -0.6457718968353201 -0.23451109067183484
Ni 2.0161517074755424 3.417153133374326 0.9754845324673007 -0.45003561293883787 0.8024914331489728 -1.0678984420687156
Ni 3.7103532254709246 3.207658272642008 4.891795893127723 0.12200270165775765 1.7576961096656822 0.0971733013189036
Ni 2.7576642570972796 5.375204738897379 4.159682798360345 0.4047273759203417 -0.003851512535606271 0.05275363755294785
Ni 6.1794621264067935 3.3874940857099065 1.9165552983510095 0.17022142745482943 -1.0336060965447489 -0.34244368738977154
Ni 5.453056330452929 0.7324639495757891 1.2233825425659002 0.08404190614326816 2.1646973692218654 2.395320437693204
Ni 0.5272738773736175 3.622812223921421 12.155308482497864 -0.2841359527878139 -0.7580820537956621 0.36350950692113526
P 6.40467273749516 7.648553017844705 2.4851291496360046 -0.14146338148553056 0.7883246547302875 0.4071915211901181
Ni 3.7630814312635392 2.5116568635828664 7.803379063934776 1.3115420911694382 0.2947456099828601 0.09489144726326239
P 0.6714052144591044 3.6866841601573634 7.829999490810286 0.060272828748128456 -0.154790694722056 -0.3073941519848061
Ni 4.7085896924184 8.46478128055303 11.389138838607272 0.9744414132591348 -1.4381352404113554 -1.368136956845347
P 2.444267289760001 8.316367878694418 0.9007724551818371 -0.8610411085584073 0.3435834574211696 -0.444699288327589
P 7.548450323413735 8.509383470834768 8.327798837426498 -0.1983806634978648 0.3478777139211493 -0.8177123638637852
P 6.43870383601051 2.1822169237884306 5.084814212118915 -0.019257305567715224 0.35536579476807834 0.023379298155888767
Ni 4.099974763361017 8.85435737092908 2.87489248376991 -0.8272856093745172 -1.133279281467371 0.07579766385660495
