# total energy = -340894.1278563311 ev
CRYSTAL
PRIMVEC
9.05573773711133 0.00000000000000 0.00000000000000

0.00000000000000 9.05573773711133 0.00000000000000

0.00000000000000 0.00000000000000 13.25398754626558

PRIMCOORD
 96 1
Ni 6.518890434835759 1.9688803571806315 11.436614171118663 0.11966119800877455 0.9002710005933076 -1.1985325941492262
Ni 4.394441561451289 0.34835068049476225 6.027939959951904 0.2738060316167156 0.0935498456337034 -0.4622617226913846
Ni 2.346432169135368 1.5224506050520554 4.848652908898217 1.648771838458438 0.4329909987517252 0.22568680751198553
Ni 3.6693395962054938 4.471342885137359 4.856897252407849 -0.5171627456046384 0.016695715488126085 0.25982000175026865
Ni 5.071267389559727 4.6580540829422805 2.738671481901037 0.2703188443990635 0.7913233323472952 0.027245723089830497
Ni 7.353267985682096 6.191779081304411 2.3812777418404587 -1.1025371151885077 0.22471981561302587 -0.3958046195094151
Ni 5.215878463269436 4.502784406079191 11.532691924743219 -0.36955674155647966 -0.05768449919566194 -0.018177442239975146
Ni 5.6321707206703575 8.075571728009969 12.637796184537892 -0.5296372239225653 -0.7102487363624672 -0.6691460527848863
Ni 1.6836880129925256 6.523726198713333 0.40282818673954074 0.8374748912026931 0.5040251797814158 0.3134897233595827
Ni 2.785291324631637 1.5169628280673924 0.493806654522407 -0.2958172457804841 -0.18200427902237043 -0.08514722339230496
Ni 0.4617058758834079 9.109438122412646 4.873398617459752 -0.5465828506379683 -0.3454500783162631 0.2814797461118894
Ni 8.695409799411339 2.3630041689405386 1.3881829948273003 -0.4893871181532668 -0.1231995501793362 0.024477416316073974
Ni 6.827763532843821 0.7276393829208821 4.867884578836053 -0.3984220025276042 -0.3311362327967523 -0.6013357780091322
Ni 0.7541735996581117 7.448742627182595 2.5475890795573424 -0.0584476026139316 0.239626043300897 0.17686130136885025
Ni 7.627874172617609 4.013339900357959 3.6262116458928575 0.28935786330838553 -0.44674357245112745 -0.05572763257960725
Ni 7.60737198269471 3.8305588926707665 12.716193516075226 -0.3413679378270895 -0.013472837675454215 -0.11834170786640265
Ni 7.748605266280196 8.615646862644157 7.266286720475188 0.4451849697147559 0.9749684894071983 -0.13025619991580148
Ni 6.816706477236109 0.9381563037246183 0.2581827012269577 0.2883528190826389 -0.3302121783205862 0.9393800507796273
Ni 2.253447855474444 6.295648391558675 9.308341965320126 -1.7195118852864775 0.9109464780292827 0.37692295211356375
Ni 9.097575106158672 4.778495393001716 1.5139898294138199 0.4151200320085754 -0.09929857519202254 0.011986482937914841
Ni 6.39571429202159 1.563907771777777 7.070034397536536 -0.2990874318913236 0.6842188879576088 0.4258214775864796
Ni 3.318918774095725 4.432276433137629 0.666571110851949 0.08886940943889857 -0.006245466689079567 -0.3251417057762142
Ni 6.060950840219547 5.8452612820995755 4.766452167569532 -0.21737674498439336 -0.7343114337386256 -0.07340011015870586
Ni 5.623857553554977 2.81349994725082 9.050922662772717 -0.2387410695927824 -0.10868207328945154 -0.21174911438497082
P 0.04583471028081414 5.473115745491115 12.631938027885452 0.3273795939677975 0.5082294476707505 -0.5537282034334979
P 3.9687675598983687 6.29872734234215 12.508569903434195 0.3001858071618249 -0.10345347790066053 0.9835762856808674
P 2.4009658209532567 8.505827932787707 1.4867791490779858 -0.407695200299414 0.3945458074016495 -0.9411052610008501
P 6.343716246731268 7.852411186371272 5.7227534527201716 -0.8488481660366414 -0.19727200381471832 1.1191287009986015
P 4.779102127420812 1.0741282037654023 12.356706089481886 -1.0173919486787317 0.33648387026191084 1.1476003260757333
P 4.077572247143792 6.039035955231289 8.18872407487641 1.2302800617641523 0.6469463767593955 -0.8532750914597433
P 4.553722930070494 0.9847752408814585 3.7377439213029344 0.12763470313255437 1.090470670942277 0.8124878822400523
P 0.06994651721045726 5.686622870849861 3.6880677671328557 0.11542916220529796 -0.4757013931360581 -0.5652714281864072
Ni 1.239621808377146 1.0443438828040876 2.8070622233920792 0.3115050888293861 0.07372304071576337 -1.5054235812453685
Ni 1.6515582559932116 6.25960655591683 5.039815001732777 0.980300957363705 0.9278561093004278 -0.1313286070443738
Ni 6.223754890764551 5.740712791525426 9.115310768245244 -0.07658313587237778 -0.9519851411381477 -0.6930177171961613
Ni 8.945728498107798 2.3976876439426165 10.115841181400492 -1.1437472708782304 1.0798157623315918 -0.3283260170414668
Ni 2.317997153076223 5.1675208244936925 7.198836870120624 -0.4666382544925254 -0.25190357511666944 -1.289547846286534
Ni 0.4159309334707436 0.05530610623503699 9.26146222292045 -0.031790662148035574 0.10451380084437485 0.419903826550464
Ni 1.4224028160643376 1.1731436386668963 11.411894724196161 0.40686293420610575 -0.707051569581408 0.777016685916636
Ni 3.9711311074115656 6.83040780822257 1.566197062242666 0.25840229546713567 0.6168678122064603 -0.2745665639318239
Ni 5.5403274299468395 7.956470667115105 8.130539149658825 -0.1016382790687927 0.17945040225226513 -0.4140833632139449
Ni 5.264824724989079 2.7450114037937143 5.028747984813707 -0.014334671455117248 -0.47335166195695894 -0.19402238652916906
Ni 0.7587331635389333 7.471843813796251 7.45210773927418 0.703740245819988 -0.4874047976159154 -0.9577405555646861
Ni 5.174086234252572 4.4667244589621475 6.919217426850607 0.15897747910989393 0.47373552765893906 0.485792458823473
Ni 8.418141225621879 6.991871609603002 9.446368612221999 -0.36063912735187564 0.792524551744248 -0.5972590368365972
Ni 4.741158586883291 0.15783878961977046 10.364048082088992 -0.27308689406250386 0.006331855755298772 -0.5950430030218848
Ni 7.969628653845658 7.44917730258732 4.317115523671852 -0.08186880975134932 0.2755651803996673 0.24378660243648986
Ni 7.646474657644834 6.336181873049354 6.703866553316816 -0.42239599684469836 -1.3522678510235744 0.5357165973474257
Ni 2.290268484549758 5.465789653773966 2.7131976920365863 -1.281808054440115 -1.0558379113597558 -0.7083494624572253
Ni 2.3467038412633214 5.250199708767576 11.620963632557906 0.7458544013812186 -0.22843943055645818 -0.4389503016589537
Ni 1.1771553304230113 3.4316536514588765 3.6602738972956814 -0.8005831603826663 0.2887323139092447 0.820563203049019
Ni 3.7363701659092485 2.819938576683321 2.6800618425900837 -1.0714409080043354 -1.1559654102109767 0.22633189729515216
Ni 1.3046057813836505 2.9997945811262126 7.872258646465804 -1.2274413067637764 1.2855256125010184 0.7149016617534462
Ni 3.566203800696703 2.6114030512661266 7.110485471815069 0.4828886549131167 -0.226391546888494 -0.42087390377321715
Ni 4.127007518693751 6.929685859514419 5.887103317673231 0.006699780617678785 -0.20966420683148404 0.3655157387178866
Ni 0.8539759781569114 7.282470229137385 11.455275329587796 0.025071598256647145 0.7062632693521579 -0.5278310239517618
P 0.1709478753672922 5.501614151713449 8.079338914850927 0.7332459685885887 -1.0444214419926983 -0.1568753451652266
P 8.64256051478676 1.5310354442953895 7.9347912313044064 -1.0392897771930876 0.3087694350657779 0.00439118708916018
P 1.9006544301138804 3.3494456655401126 10.350820366178931 -0.08790061776772604 0.8139071311850822 -0.07619952728071393
P 3.8225445648961354 6.3042241750644115 3.78181366832581 1.365993428139783 0.3447036870685418 0.3205952240561124
P 6.895455171392263 3.9141795736548897 10.297857884834375 1.635948975662157 0.8482002480399972 0.37863684948087695
P 6.4836817270529705 7.750099462983941 10.172726608272699 -0.7722562884135151 -0.26452640608700245 0.08061308296737729
P 2.21557676083771 8.22632259181143 5.862344931079058 0.20776467581592603 0.24106020464426228 -0.43012036207214954
P 6.726683389769881 4.038858968910402 1.5177407159270995 0.8879333049635612 0.36104407609977823 -0.11221399770210996
Ni 5.213388135429861 2.7338819022852148 0.5559190531364419 -0.7089145909320758 0.4971976153366211 -0.5472269119798704
Ni 1.510469864209301 0.8070237898564481 7.06661495101936 -0.016929428765486972 0.21803057651830834 0.2715843413750484
Ni 7.08827899207614 0.7342899166131867 9.452398827888809 -0.4710559239442468 0.0908905536339854 -1.2161261388612732
Ni 2.6572794179398933 1.5539374046818792 9.435553344808165 1.0403231035536085 0.09453149282068235 -1.5323687423756447
Ni 6.293203342407093 2.1585527811802465 2.7234026027362837 0.012571151796791252 -0.6340736345617853 -0.3118766132361919
Ni 4.30324122809726 6.65986110203089 10.35205375763984 0.813493183576115 0.8955854221921801 0.7839419522815595
Ni 8.210701444454097 7.321817409002667 0.19857149733761573 -1.0932009253892463 -0.7540742181878497 0.41186758650954874
Ni 7.721419942009638 3.6848973533996374 7.835624565585019 0.34053181507903935 0.5758389192896083 0.6947874075020744
Ni 3.0656297934669716 8.468346234867706 12.164920056326789 0.24197140360462197 -0.42589783935036973 0.5480249824011336
Ni 9.387358709309195 5.079598668150305 10.371284522003917 -0.6778086135558907 -1.8113298358307386 -0.3572331869941202
Ni 8.642107727906838 2.295330641867293 5.85700295146973 0.09400004579724455 -0.6027825377579877 -0.7119227816307804
Ni 3.4875818868669275 2.9178854345481975 11.806638853981564 0.07661244644841644 -0.6367383258781422 -0.09265972971926621
Ni 1.0537165712184875 3.395349199426675 12.5223672252392 -0.18897325414103586 0.13536781011075394 0.8594701645268616
Ni 3.1394974450575592 8.202062270785172 7.814856136976725 0.16676637902669345 -0.18683126809736855 1.9229316538701466
Ni 5.372071825367567 7.9352530739219285 3.6223810688887115 0.44679576584530145 0.08667291600821202 -0.13173612689543765
Ni 2.9194520771527297 8.488377526435487 3.6818781704843127 0.21073172886404995 -0.8589292044217272 0.25712651407850556
Ni 3.7039868482571783 4.102294410787571 9.098372011067335 -0.9718083465116617 0.14650402923323158 0.9188472209335982
Ni 7.255927862236316 6.060018099246907 11.40101334989786 -0.1650105726778513 -0.35263245499731527 0.5794580040994343
Ni 0.5952300100513299 0.026137575430417247 0.1816273067171488 0.9304423819703653 0.4563379010077818 0.3759701012819912
Ni 4.582991073988696 0.24301977419210657 1.6328916640815185 -0.12181295424445471 0.6425053102689063 -0.43230425709734577
Ni 5.853384278725388 5.763116686344 0.3167144611945639 0.41398386152160316 -0.21885590063308114 0.47269063133419237
Ni 7.8830195794540465 8.783331955754726 11.45648155383591 0.9718481986106616 0.12997363567837616 0.631437739600835
Ni 0.006202274681181018 4.618661624389006 5.656086018094115 0.6488875596461664 0.4348316515048898 0.7801120370125081
Ni 8.049925879131148 -0.062494550740689624 2.110631628956749 0.9291977109299868 0.7124205472028053 1.3166521587024935
P 8.319180125145976 1.6233949120620201 3.58455434736621 0.35718459314437195 0.3962337366270337 0.3047101773947397
P 1.7277532321466018 3.1300070320543796 1.6472585917814655 0.9628166845360129 0.17604883276988392 -1.2657795402223426
P 4.558748864437636 1.0662134891043538 8.306803648570169 0.42850802327970716 -0.9541824058997823 -0.7845446188625651
P 8.597825171050399 1.7510355335122267 12.427455850617324 -0.4087357257487864 -0.5877215296598072 -0.24072570412297895
P 6.3542390138206715 8.0390861612258 1.5120410346826327 -0.8373589344501192 -1.7896382097899177 -0.7243363248037848
P 1.9802905865546834 3.4186315007923 5.7690237439794725 -0.5514224381184568 0.11365690079622359 0.5109190786877716
P 6.95597466576273 4.014182083954615 5.749486895684567 -0.4767069515824371 -0.15310893614425888 0.3785828563144899
P 2.3175081432459064 8.569779551707988 10.036515636759317 0.5650698536985623 -1.640105678143008 0.9401706650017227
