# total energy = -340858.24006258283 ev
CRYSTAL
PRIMVEC
9.35426396732313 0.00000000000000 0.00000000000000

0.00000000000000 9.35426396732313 0.00000000000000

0.00000000000000 0.00000000000000 13.69091085966802

PRIMCOORD
 96 1
Ni 1.6204859109666345 2.0865808195343862 13.631984719471959 0.2286626023108578 -2.007110342701595 -0.5423875816096981
Ni 5.922923477472466 8.383618728404661 9.731444683646197 -0.5883437366248383 1.296300077408703 0.010678819870084833
Ni 6.196039921277082 6.04286384951284 10.370947065994173 -2.021362738855551 -0.09507271003613305 -0.9847386814200847
Ni 0.7488845966967294 6.017728942347618 6.23827722917553 1.422584694271266 -1.1531443958224141 -0.6282076626993116
Ni 0.47302828898861643 6.949394920703347 11.74462446501755 0.40255273686652604 0.03146336071560388 0.11277346975000578
Ni 3.0723799232213937 4.035878461712312 12.55812457519939 -0.9198895461551835 -2.626335599396638 1.5229160816031773
Ni 9.137020499150548 9.310401780991784 11.061173879899329 0.4011995652727413 -0.2459573848355635 -0.292322088143032
Ni 0.4935281583792325 4.125988086097348 8.173295587472657 0.5955160860035614 0.6268904865497849 -0.10836197094587144
Ni 6.01317341581637 8.202342447811118 6.952504278031863 0.2677762804828679 -1.4069271902396672 0.5962534783902184
Ni 2.7663738874581156 5.756277265656895 11.215484623877618 0.023608126337243213 1.229130007320109 -2.5476493011383288
Ni 7.137471751170025 3.166502526830054 7.447636692674152 -0.16553122106801169 -0.908277930058184 0.26267315492834764
Ni 3.959042537836191 9.07669485110123 8.24099707262647 -0.10455956648064574 -0.4314941024912246 0.9516768658691094
Ni 6.790101160332458 3.9748418896047286 1.026492022611515 1.2543985520789107 0.31200362573235946 1.6977606096523148
Ni 6.8248803136038765 5.709178546796866 2.9169307653234893 -0.5794829438000988 -0.47748959538473246 0.7378641840868906
Ni 3.1601603358892203 0.22421796456550835 0.2777804797973896 -1.5877898994584267 -0.7511241344205902 -1.5398647936423737
Ni 5.239538372201716 8.658905361439771 0.35343121843427283 1.1853456631453072 0.1313903135202447 0.7581126499232814
Ni 7.904156576688751 7.680009704529069 8.893191320267254 -0.4425555025117088 -0.9694938394458723 -0.42693579369658086
Ni 4.503152007534556 4.202150502970903 1.3908462150304663 -0.9161195375897899 0.16538183997434097 -0.7360767531691647
Ni 7.692020579408171 0.3476166079787825 6.892415292859833 0.8630470832448426 0.7022873154235453 0.11467428631714444
Ni 5.488689191831677 7.013733547976291 12.538068097918798 0.08969936153936164 -0.6300071778018957 -0.25357016418581485
Ni 7.377202827027981 3.6858980312398004 11.552130551125707 1.3557074728327425 -1.9842735473127375 -1.8030513978720304
Ni 8.68300194530937 3.4658015553594415 5.835792250721002 1.9942879941259464 0.24612733475452447 -0.9774673445696521
Ni 0.9893069526587079 8.746769962482919 4.269620002379389 -0.5114883209276804 0.01043173685628526 -0.7899729889669879
Ni 1.6407566008910994 7.64988897469207 1.5541782111375757 -0.8701577261476949 0.7049723184548762 -0.48723613324853504
P 3.307808037674064 2.596472391796806 2.703160578135293 -0.37660259265966756 1.3168591325069772 0.35789447472720304
P 3.683157231909912 8.401363767069503 1.9402211998919512 0.47050699341931224 -0.039617100170989836 0.7920121308842037
P 5.475415491322764 6.190389945866665 5.047962111600868 0.4163099385516185 -1.3613937245842425 -0.74904411196311
P 0.2659080480243712 3.978087819186542 13.32151669981668 -0.11276267111672837 -0.48467248628641696 -0.6052438548142867
P 4.563140902082592 4.2335527669655635 11.133572140969651 1.3466358495487776 0.5271995610153501 -1.78489555289861
P 7.8048142938102005 7.3982218580664085 11.03095867199669 -0.5989616213500008 0.40172201343511454 -0.36213473806079566
P 9.270412302714403 6.282978450191701 0.1266595398173667 0.459683420441247 -0.2099863660575932 -1.1598220649529059
P 8.081045707501687 5.277628934902418 7.300732654871309 -0.11056334947256442 0.48332857066401275 -0.34780392326042037
Ni 2.4240826619315703 7.242361112555825 8.060893816729063 0.30245583414292426 1.4095124344683403 -3.15819785599498
Ni 3.547744907338359 7.287420601880305 3.8027056602918483 0.09993466611412466 1.2584773501339745 -1.9504663689553055
Ni 3.958303550986153 7.448660049147496 6.125450774849765 1.1609008998393815 3.685571480694349 2.3011381006818237
Ni 1.9430583481402621 3.754109323777502 6.218753944938635 0.383379763482501 -0.21226359212754412 0.3553956195647492
Ni 4.3955966809302645 4.4145484196413705 3.756663037828899 -0.07004122098880196 0.37766728647875597 -0.03541746026734545
Ni 4.188409089265763 1.7461510925288233 9.593454323937042 0.8966020363821525 -0.07832377271256834 -0.33457636882655284
Ni 3.1992330963019984 5.7748454795470945 5.324983960593978 -2.951920563357858 -5.413537924506084 -0.20964492355777445
Ni 2.1742863980908163 0.7898656269501125 2.300826203329949 -0.1752196520003692 -0.07734392529780228 0.7238095057660373
Ni 6.22019263073023 8.242743513701182 2.470881108919621 -2.957397527312029 -0.7115083198011811 3.125290049523366
Ni 5.708402142891129 5.287058032938348 7.172832739657549 -0.36165599865216425 0.732524259931216 0.1770302228465467
Ni 6.815385735720474 1.3257049919127968 11.267510233546696 1.4173095619152558 0.6834694113860939 -1.199213936486967
Ni 8.437349620387185 6.903521610417433 4.266621960791576 0.4978517039808523 0.09752682800358042 -0.8878389454775418
Ni 7.686632523387639 0.008881873596344961 4.2215100875891185 -0.5857358666883461 -1.3345619491033789 0.8728417007377612
Ni 0.7397698019286636 4.387832641872902 10.821145338448572 -0.7211972649541708 1.8668085856243333 1.1024754087126367
Ni 1.8002748635961763 3.7684026390541896 1.3422788767342861 -0.18895448508795848 0.19622427927649433 -0.7767269225903591
Ni 7.397819624717655 5.620977192252435 12.28833170136716 1.5665716135095988 2.228631448871665 2.5198225087340473
Ni 2.52814884809201 1.317295508644641 7.070780526520061 0.013006953782629213 0.10688384373844818 -0.3363414311467756
Ni 7.576065123799648 7.406116856818716 1.0364842473357023 0.9256665578482768 -1.6701359059565108 -1.1169450630837217
Ni 8.486263066448572 7.478444025483212 6.506372304105458 -0.9031426657141477 1.0662789041874217 0.8396832117079215
Ni 3.999406186670555 2.594610893275824 5.312155523047872 -0.11739888433715912 0.9270860639036227 0.2886055585233933
Ni 8.72777145245219 3.8186163278010876 3.2268384645696906 -1.7883202623094427 0.11344427056478527 1.1192161185060852
Ni 2.762828621430717 5.7358288447178625 1.9820609515736065 0.9647640380703706 0.26566309079460704 1.459946422749176
Ni 2.174099312812326 8.103636254879437 10.067556482424195 0.6148770070286765 -0.746509004246082 2.311422513326968
Ni 3.3286493376979256 0.25320495761485406 4.8380664605302135 -0.939563113324711 -1.1091265954805674 0.7987016270892373
P 9.227878464649546 1.3013932599729332 5.310252865765622 -2.083815348863818 -0.40493306417324454 2.0867618330866513
P 1.292450583661079 5.953493211977842 9.198115067694465 -1.2184262477493595 -1.0679722327294445 2.2128430756891566
P 4.592943586946157 6.949076875729913 8.600233547252309 0.86761644778308 -0.37810668800901975 -0.7212312035158998
P 0.12679049951231017 9.084954666146594 13.353169658084518 2.9088180757414293 0.9358095598195496 -0.5442665437999659
P 6.465882372708113 1.2094782626504628 13.47416986822754 -0.18853719504488176 1.2278822509559368 -0.31454207588349703
P 7.012339762651536 1.2797568475154861 8.734130481068087 -0.008987548210590973 0.33184225772484144 0.8665003319007658
P 4.159373454044009 3.2071374493182296 7.552645788638185 -0.26670773000903747 0.045388969657760535 0.05670130934678622
P 1.5023696203915446 8.435581664505447 6.331950828115814 0.44957101459759347 -0.545766268273944 1.0812648360732928
Ni 0.09947417799988621 1.841424270600201 7.610394336976295 0.582218854674023 -0.6093342228335764 -0.06191139279281596
Ni 1.6628794350726221 1.9041539644781256 4.596107199005434 1.666045537937221 1.1112094461515252 -0.3488321074146186
Ni 3.005655958647693 5.173880793715412 8.148857572969812 1.7229792750097872 -2.9476985548567107 -0.2625764814494833
Ni 2.272160061533215 2.992522572097648 10.051511113514442 0.31327915001067336 -0.900477717287475 -0.580961071007522
Ni 8.12788250697183 5.0030719344534225 9.58962094658077 0.0973548212020904 1.3640722998576702 -0.7203521433450562
Ni 2.307135654347047 0.3710864561654381 11.725881326391962 -1.1823071334292994 0.3188419888104316 -0.6248505733016205
Ni 9.122512035803597 1.5633407126516567 3.1847386643509332 0.853836363279852 -0.8877376440129874 -0.5695289179111804
Ni 8.638634671515305 2.738544952282627 9.770134854664462 -1.119743194654149 -1.7117746645432197 -1.1005290836195432
Ni 0.5514974673459616 8.495346056719294 8.519867324171068 -0.6408346074347028 1.7847929658824746 -1.795291294310637
Ni 3.196090063623355 6.227676041869856 13.403935248402963 0.3841726916974416 0.9124839977197317 1.4768866501479403
Ni 4.759533673178181 1.7625023458689084 0.9480340693708793 0.08895142762974358 0.9782098791626315 0.3517572514812135
Ni 5.127502353177573 1.0889205091910696 6.731875544534197 -1.394177603883483 -0.2688605146859821 2.300977920954876
Ni 4.876564869138026 1.2143611884190695 3.383283851575558 1.3091543076635517 0.224682020396555 -0.8913343602253101
Ni 6.514309397045425 4.024615927947174 5.1244257357727925 -0.6804810181817313 2.2029931794782702 -0.9942250236439651
Ni 1.6971628123560392 4.195050616652182 3.5254920488882853 0.46731342618267907 0.4094944582916819 2.1429028990545933
Ni -0.007451606642283724 5.681489925580245 2.191833126360457 0.5484479288711651 1.0764730711116042 -0.35103142905878254
Ni 5.688580457635042 3.4241002467838695 12.900369964832706 -2.366857040146188 -0.9777763911696387 -0.3458743103378753
Ni 8.747967308265258 2.6730651048108895 1.159838925708531 0.4130960596000111 -0.1333934599932025 -1.3354448659289646
Ni 0.3993737502732287 2.266051727190494 11.685616832755198 -0.1830589455391299 -0.2163832707228725 0.6522770449436895
Ni 6.0038004433639856 3.9055829195074794 9.24845690985713 -1.7843872458036236 -0.7857100999255758 1.5732132871958326
Ni 7.532324585688527 8.873838283633786 12.808668244727713 -1.9259812393297475 -1.165085113124058 -0.8606168765367953
Ni 6.550435564321975 1.8594405829188536 5.3765989180767715 1.7906728217020191 -0.1006113804661751 -2.35482427735137
Ni 4.991800046424359 0.11280961665070177 11.684494321084253 -1.645946453194501 -0.2524111108807072 0.6193005900176689
Ni 7.353920064119817 0.7094245697574755 1.8644694352046831 0.15276312276906595 0.13392696389916933 -2.326159048206194
P 3.6997610503759595 1.7864492615157155 12.420065929363586 0.3995075222822991 1.410733708469951 0.7574541904036761
P 5.372378274194022 6.254934366945949 1.3785650019239457 -0.028093930022738713 -0.02403107280727474 -0.9861383899810887
P 3.490440686536664 7.7839636395224145 11.920045911820727 -0.26514449928697564 0.20495240317811156 -0.31630225310771326
P 9.087274523599877 8.576877821085533 2.1702425497962405 -0.42677587107994885 0.8975037222608157 1.3950684911288684
P 6.855805510138385 2.363214466574628 3.054017503137534 0.3286193799121695 1.715988702624567 0.7329667467852732
P 2.021054200743026 0.7152943703701206 9.160889774406781 0.30454845500589484 1.4363033294089393 0.4012746414850509
P 5.4297853918988865 9.125439920411976 4.941761282412849 1.1278426838328317 -0.47599398467581244 0.4986551737187541
P 1.2656319089894401 6.491840455098695 3.8790317767840827 0.6793294210757913 -0.9350965929129251 0.42150510959931276
