# total energy = -381164.9312282673 ev
CRYSTAL
PRIMVEC
9.29781751018634 0.00000000000000 0.00000000000000

0.00000000000000 9.29781751018634 0.00000000000000

0.00000000000000 0.00000000000000 13.60829576395983

PRIMCOORD
 96 1
Ni 1.7318115155026474 9.145008016994316 2.212722537817387 -0.8958692719811863 1.2320227554868717 0.6419011010260042
Ni 0.5932639912346951 7.4575935807707685 7.66077693031429 1.7434977066781137 -0.5583299638715675 1.6493734765981787
Ni 4.628844134547777 5.206229312799677 9.187736138005228 1.961218979486119 -0.8961214972013083 -0.30174132457440295
Ni 5.414435343437768 4.909749801391791 4.910989200484545 -0.7355869580169396 0.8843648708860125 1.2414682171704876
Ni 1.032448267499436 7.488499526639612 4.940613907081209 -0.43768326202107205 -0.062348994550866815 0.35020481939242915
Ni 3.4445439091873444 1.5915353406159918 3.2513891857611923 -0.7593220968503503 -0.7581877261355909 -0.5144083227879528
Ni 5.645011923341935 4.9326875175345215 1.1153755031204395 -2.080766534735165 1.4117194694219881 -2.5505986135746395
Ni 8.680814470814408 2.366136529043596 7.745080242947504 0.03536012466684878 -0.644380158694116 2.097534755332439
Ni 5.107477191538249 9.133320660208174 12.700554851978824 0.6427572783787123 0.6017412409776669 -0.22015456483984663
Ni 0.8460604957590072 5.32584573686787 12.446187946053415 1.976212624681474 1.2526247480079395 -0.9923720295956263
Ni 4.504290569307395 0.34260505498813487 8.004549791199274 0.5092943986001551 -1.115144519539873 -0.21776523867206365
Ni 2.3767267433470294 8.726234310035016 8.904330287995109 -0.39978622986498247 -2.2544193564690467 1.1133617166078373
Ni 7.396999703145241 6.58979106821883 1.5895167844041609 1.9615964174301959 -0.7003373907860261 -1.2251301421320966
Ni 0.7291078964475607 0.10785747408614495 13.442437949877586 0.44294399619937913 -0.7352429444139595 1.064841657520263
Ni 6.176791306020226 5.461900702541392 7.286916331513669 -0.3336453723718512 -1.9403704181718842 0.740894229162466
Ni 0.9084283969921687 5.043629077735195 4.452280436936416 0.3820718433043549 -0.6182554365826062 1.2002665461211974
Ni 7.7035022619799065 8.536967933950125 5.295478134640965 -0.8744913205260424 0.1458820793785165 -0.8801819431529164
Ni 7.702042504608844 1.2384321197191595 1.1084067887917097 0.21564484989495122 0.4669416446655571 0.788613646725616
Ni 6.590190874377783 4.640968488763472 10.455934291149333 1.8896734060376486 0.9382472227267648 -1.6978680817644562
Ni 0.5764897984121979 9.29930530089728 6.532567649491455 1.8613249368019427 2.118116179028217 -1.4213166261921197
Ni 4.269502078007745 7.064602722155121 12.597934838574966 0.6375744486261923 -2.6244170422176865 0.38715285737168803
Ni 1.5567986938753182 6.71286628045285 1.3096282988110652 -0.3330195658623942 0.04290785510711965 2.226022036273276
Ni 4.41360895376623 3.001874810867356 1.1081427307704474 -0.8386527135608782 -0.010020103240163388 -0.8799217475129942
Ni 8.343294392299098 1.0797183724324084 12.06985133841258 -1.4147837101696086 -1.5406132417726242 -0.6070135451201998
P 8.797948377570032 5.027190536129866 10.526670228267559 -0.45157467529118356 0.685171224568549 0.9000475717285918
Ni 3.2245389479513107 1.283545130957315 13.237130049001022 -0.21927833288248041 0.06566211808449982 0.6723236791819195
P 0.37226137416480853 5.601191308757139 6.61386311811487 -0.20312332038917275 -0.5007079424827248 -1.4963756121104874
Ni 6.816406777804065 4.478609996957893 2.773139198857903 3.4375376729457314 -0.08553031776333657 1.9217036950003161
P 8.190112846514142 3.9408521175306053 4.5456472622149215 0.3582186908358411 -2.160458391439853 -0.9433549762669754
P 7.278508315012708 8.53509907260246 2.7626066310239006 -0.6658069611093242 1.3105288194135754 0.20827349713154453
P 3.3534717853048766 6.753572126124871 9.341509954774493 -2.14541949482886 2.6401190263339753 -0.494636025257032
Ni 4.8627214397177205 0.6245297626465964 10.37876147487196 0.3298231704122836 -1.168646348112755 -0.027091199789837213
Ni 1.5606200969294983 3.0924448525967194 6.668581704767316 -0.4462653472631282 0.6579013331090025 0.21880165035637802
Ni 1.1376902654806154 6.638130422181561 9.967954138075243 -0.3811907262509822 0.2537308581333953 0.5474570257128055
Ni 5.5106398626630755 0.6858237659411746 3.885045686213101 0.4977635151424201 -1.4244801115217662 2.2148984155562887
Ni 2.8084151190222815 1.5587512355818334 10.87520543135291 -1.1004372952366852 0.11911509569731744 -0.36377330210548314
Ni 3.949908191921777 3.941558751672011 7.120459361687937 0.14302095578063753 -0.24335877087045185 -0.8103649223597786
Ni 8.136297077955517 2.737305409634521 10.604019703080285 1.5303393706504418 1.7619767393189074 -0.42474161425873946
Ni 5.509737974351019 7.503636373773931 0.8928740778453612 -1.552412034179765 1.143954758903346 -1.061176807074166
Ni 3.1659441011205485 8.376022710427355 0.5464885302007065 1.5959207560956774 1.0886971239816219 0.9905527169987004
Ni 0.01812330616352282 2.4334620266477764 2.5623334984048523 0.9006695215833069 1.0830352977101543 -1.4745749712956282
Ni 6.026529274977391 7.763203549111028 8.325732674321639 -0.5495144224624665 0.11843503891115732 -1.3331254737671685
Ni 7.628245725920213 6.761744907839285 9.721208653277596 0.44722385452165553 0.16644010603552625 -0.4025010576929842
Ni 9.234824935494023 8.865655085697865 9.634659917681889 -0.4127826421246504 0.7033275837626015 0.0513547003228922
Ni 8.70531422032235 7.584025305176465 11.692792290340332 1.178643568534783 0.25490405250589004 -1.0342391021430575
Ni 9.08345646415083 0.2640580212620809 3.841567231317828 0.985097093200768 0.8159005074660272 -0.6367236705901228
Ni 1.4409571837730553 2.3043525307588593 4.293022767317136 0.5613055015601236 -0.4207386637469335 0.781589649999299
Ni 5.164584387544999 0.9406230203873125 1.6864214292985196 0.472883721181605 -1.017124296839642 -1.5955379188349619
Ni 6.063013911436278 1.9932754456403576 12.943108880579816 0.2984400281153118 0.21352060446309679 1.3178436079074336
Ni 0.09451603554005482 5.2381859120629795 2.328433878472549 -0.8485311490168548 -1.6084564266688428 -0.4872183926367222
Ni 7.959740818598276 9.079235254937698 7.524788908927848 -1.7594166919012153 1.2582986584642653 1.2945172744766673
Ni 1.3226424541758728 3.91982975182379 10.60691783284181 -0.5147456515227136 -1.6892620852630005 -0.7254874076890925
Ni 6.812789926738187 1.4049095447437212 9.391601947364265 0.5616631420098585 -1.4110818358379893 0.9663110708425166
Ni 6.976254858844125 6.337606360095893 12.697193690898324 -0.5755285871380411 -0.11270404996465107 0.38007203926550676
Ni 8.370397530749061 4.290775484791113 12.724845400589642 -2.5420890334417314 -1.9850099112581299 0.15254226500751147
Ni 0.9551369137390768 2.1423473560239827 12.397701686571814 1.1351952675431611 1.6504790509575318 -0.19298366085200958
P 3.6165814291666503 5.8143995652909695 2.199985457418552 0.7714600177644649 0.7689524208512628 -0.4355528459416306
Ni 2.8889621133248657 8.547576743888857 6.5245380541688505 0.11137838917469206 -0.044285966401568885 0.4357461928993593
P -0.2694674915708935 7.360301216880401 0.12252385164737054 0.45802608734348216 -0.8762309289249683 1.6684700882183139
Ni 5.783670277957477 7.103848810456081 5.71415049538788 -0.8936367831062416 1.2225788364651526 -0.309229405421332
P 7.263529530778439 3.345643022843515 0.7212986594032641 -0.42812030092298525 0.09700360851025874 0.6538071084349708
P 7.0033672951117385 8.71904709699151 10.799012605055855 -0.3161546717862555 0.5629072988296048 -0.06461413643595969
P 1.808416235121601 2.0149858498532787 1.2441409797563043 1.1536290487683163 -3.1547996289467086 0.6889705437099812
Ni 7.404893550330153 8.74590849218257 13.466102755360554 -0.7728445568168174 -0.7168258753593526 -0.30208430973611844
Ni 5.483824956560265 2.7964209342536868 10.982153578872879 -1.3703933569796913 -0.49677595441817024 -1.3268522391639472
Ni 2.623109613256321 3.9283000637030066 2.5427913452679283 -0.16096622740514857 0.18510168700077154 1.276997520425349
Ni 8.581448693588076 4.693380286856935 8.388520836912585 -0.34799521333562 0.1431939910233921 -0.42410140957157927
Ni 3.0221068620739153 5.437661291927651 0.06424327105318126 1.2774405215000386 -1.4307116942537748 0.26749577312797157
Ni 6.148972235611206 1.76387968857775 7.348425114395963 0.36778319459582465 -0.8770827354023024 -0.7714474193589747
Ni 3.525118796942879 7.87149523128143 3.1024195513717183 -0.2576371351663369 0.8544215463593607 -0.9842334596488922
Ni 5.1750723258542815 7.314472273683191 10.451538282964377 0.8306959206076467 -0.13127718498114813 0.5615482136985489
Ni 5.092331046586279 3.312273155297402 3.4930450451771864 -1.6703575350490136 -2.1442470717873134 -0.4516199267068222
Ni 1.8147201554883505 5.218976620797927 8.030269414382905 1.3470371987522543 -0.588059115504884 1.1072278357959577
Ni 5.301866665148331 4.764517889697646 12.191209243726632 -1.4511380804289267 0.6109388483165349 1.5371731057428237
Ni 1.2097576500863334 3.7899020479816654 0.6506380346080023 -1.4119040746289682 2.059933657150214 -1.1785144991560865
Ni 6.575044729425814 2.7862491217445067 5.513891309495307 -0.16926446285819882 1.1465844832167094 -1.522427829112849
Ni 8.83714797678274 1.8839703013460964 5.615939507113686 -0.7818184781806535 0.5954975740608002 -1.1274783585148775
Ni 3.270005276260169 3.3457638944729657 9.38354631815224 0.35743733258512633 0.2038321735307393 0.4512574011610809
Ni 9.120350204586321 7.420476692711676 2.861920340471393 0.9832243016580872 0.4543393825205143 0.71472939784164
Ni 3.3494737237153447 6.67606551819386 5.015813726453236 0.19053982729720734 -1.151579108217823 -0.27237341293524703
Ni 3.0364719903432786 5.381167751885806 10.933817014255443 0.6630458534244194 0.970867065644315 1.4966594618994935
Ni 3.932316720927838 6.458477989546845 7.209565926919179 -0.004831102840056195 0.05056845697617097 0.7332361983965759
Ni 7.655386055640777 5.9180144451833865 4.776144810669063 0.4017109576915211 0.8568998326965243 -0.7602680057033875
Ni 7.916933666137338 6.833533357915501 6.920662277332573 -0.5195968089674278 -0.6246240591131115 0.3982582232562302
Ni 3.3626952204137495 1.6702041757532617 6.0236990192847095 0.5423940093676014 -0.3834826076089525 -0.8571883104712205
Ni 2.645982244675501 1.4587532067552955 8.335094646913499 -1.9460206744791262 2.235645418295653 -0.7862430896109104
Ni 7.2713025063339005 2.019848608484267 3.3540231458915257 -0.5792877970701571 0.40723214462006635 0.20824418655550586
Ni 3.315062500592424 3.4920650551968686 12.273975627102288 -0.3364653583191496 -0.8531125977399502 0.16806967121914926
P 0.6874406564305222 1.6263928589861165 9.88092935421585 0.38551017956194256 0.33869707586314574 0.047809920394427344
Ni 5.67232891159785 6.950360436688672 3.0301318084876936 -0.23103573052872467 -0.8322223845545023 2.58908134303087
P 5.873505792092486 3.4661241439531643 8.459066168768985 -0.11152674182709825 1.405577103969676 0.945207713204998
Ni 3.2052366785097584 8.477796622425059 11.302655861743258 -1.3401276161166147 0.6283249050034663 -0.924187402199589
P 2.381980010319321 -0.06110990650510657 4.61147023248685 -0.3607975073066109 0.8800166212196457 -1.4188445105025436
P 2.9026113096351738 3.8618857522285333 4.937348513522503 0.9124842548300478 -0.040152660959485685 0.17956584478420687
P 5.6385127488045335 -0.054619100003590416 6.161904570180693 0.20632948603129625 -0.010502185082904495 -0.34308980561420266
Ni 1.8347662503419087 7.287183178880226 12.822362771667141 -0.7193995496237997 0.8768387377122963 -2.9767502208070282
