# total energy = -381168.1169368145 ev
CRYSTAL
PRIMVEC
9.25701727239857 0.00000000000000 0.00000000000000

0.00000000000000 9.25701727239857 0.00000000000000

0.00000000000000 0.00000000000000 13.54858049179943

PRIMCOORD
 96 1
Ni 0.7199450596911985 8.895604570110342 1.4947610878215263 0.6945876327864425 0.5691381102306651 1.710386011725809
Ni 4.403961052406041 0.42176728417153553 7.5834659142360366 0.08648676813933492 -0.5211800942941475 0.061594118662713276
Ni 4.043696463673179 2.6485621702223723 5.875098232769674 2.6658354572634733 0.8124359459561943 -0.3370191739400905
Ni 8.759924471516952 7.641593501265952 0.2541338141975989 -0.6889905983146392 -0.6703295315700263 -1.1208215153199923
Ni 5.2843126288766715 0.9726718073003962 4.246490861428194 0.6311428340682356 0.7917817600409525 -1.838024057292473
Ni 6.414455552856618 3.074755234235451 4.662039281559678 0.1742626874037386 1.2247105380961747 -0.9249656751265102
Ni 2.995524425484627 8.694347762883835 0.8825260497707315 -0.6199353953881903 0.1952215490435928 0.3105944040896586
Ni 1.4255528514079516 3.782093162434916 9.381402641071158 1.8939982586652475 0.6990382123586284 0.8231289068936664
Ni 5.156241798281082 5.799622995827498 12.47603361656948 -0.7666787943257377 -0.43645993113693216 0.925710780822651
Ni 0.8390828688538466 2.1305024692139463 11.227003748588368 -0.4950479159834699 0.5475516423091408 -0.6634621150262315
Ni 7.4123157034928 6.112112119673925 11.895219671420065 0.30514829337342286 1.043981783352118 0.6824985628323924
Ni 4.6454766266914715 5.016099817479734 5.6451511526653295 -0.0033766297817167655 -0.2651324151021176 1.8750065480540934
Ni 1.1825283833468014 6.220363676810521 10.60184498906345 -0.4991269711488501 -0.2535879047976278 -0.6028463011163876
Ni 8.879451075394815 3.2840841603112056 4.918446619139588 -0.2954557486760073 -1.4802745927835668 -0.4208564202717204
Ni 2.9287998467399206 4.322619643772615 7.417698658895136 1.374059235867053 0.3493036477343985 0.23913187727329785
Ni 3.0209164231950503 5.606484592535385 13.689214760404257 -0.4453621187225685 1.631410721472171 -0.7838298521837275
Ni 2.201040938974582 8.841201081031175 3.438046867536782 -0.2055887512105298 0.48225333532196296 -0.09612531967036349
Ni 0.3106256863184984 8.634241951314833 8.563840485406226 -1.5396197675111034 0.6692591813239829 -2.7175179732394295
Ni 5.683197492654333 5.621119936458163 8.376992225185287 -0.44259432616944416 -0.38977923925094166 -2.1704581829650427
Ni 2.2107978349231 7.837286841258057 9.348235674758117 1.8232960070536792 1.5147137482980428 0.013390048153660811
Ni 4.3511127421877385 3.851965126969467 3.4829202575846403 -0.05329665454061143 -0.4243533776813853 0.1023072801113593
Ni 7.781133775960416 3.912311620981223 6.893449716301151 -1.5283807042621742 -0.32938325466138757 1.0882320114197452
Ni 1.2727195002599079 2.0478465641624086 3.0954168962440782 1.1202887827449737 -1.1247180221609212 0.18328854505143272
Ni 1.381656076656648 5.8024371290043 8.026056858214204 -1.5517525462188955 1.389806985619613 -0.13574961893020493
P 8.847375511389489 5.1448093822503225 9.46823531220616 -0.5393688493880324 0.600179810027818 -0.6641794528082303
Ni 3.505382409405399 7.443983958748854 11.684959489431195 -1.8629930685329852 -0.8241519488415419 -1.1177246215622234
P 8.075034809612701 3.386753736179344 13.402539754244774 -0.8201765091335615 -0.6027956503841102 0.45786282229274045
Ni 4.069319886809326 0.9026415477746502 9.953870459667266 -0.24147903734923576 -2.1765434699271737 1.8826761487842092
P 3.4571718647186027 1.292585058804045 2.689650366007091 0.3303625878555214 -0.098561697025998 -0.06756087776910945
P 7.87082501395396 0.6661016201422829 9.400763692187217 1.6637451719388188 -0.0893131818445365 -1.0683578982036375
P 2.9305494229583937 5.223068204213106 11.621890506711225 0.7282577713453781 0.13339654531699607 -0.6637112549225601
Ni 6.043702763829948 2.6321494790300357 1.7519673059710352 1.1366145164881907 0.6335275322503282 3.5234783387736095
Ni 4.763883131508832 7.09888236390942 0.8846773805282605 0.7085605500267668 0.6409415653262123 1.2041609960795971
Ni 2.3116622924705914 4.1463660395413156 5.208358804154097 -0.18028575366936692 -0.12744958370494178 -0.43223715130483625
Ni 8.81105097656787 4.221033138896866 11.574051168407289 -0.0232168044360955 -1.355534694700304 -1.0133362905521193
Ni 8.327918000809689 7.528417211069951 9.984395473320244 -1.564998098374892 -1.4799161810028834 1.3872070861029207
Ni 3.55107504546032 6.941290906008493 7.432344185536646 0.18843357958748191 -0.15770221194189615 -0.6731518315101697
Ni 1.709715503145777 1.2809675024327067 8.794857676679118 -1.1871348938352457 -0.6443657605164128 0.7494328627610963
Ni 6.198692999945739 5.456308005274651 4.089530732088642 0.25670382471879016 -0.17280615746287012 -1.1356657794216765
Ni 6.574629718508622 8.641906761414807 7.655937249152317 0.22816020875314255 -0.24934481325055768 1.4489737257877562
Ni 8.384219178379793 1.4593224495295787 2.344161827855846 -0.6970489498427415 0.48650851105389115 0.4965029032624417
Ni 8.080450164574641 6.538971688913088 7.842826240248184 1.879745862511292 -0.4417813433498456 2.1762506212771036
Ni 0.7333519974542336 0.6635661231780521 5.033501158090764 -0.48598194912645976 0.08125225921327298 0.5479563339467272
Ni 0.5840298328652724 -0.01079831036427577 10.74392909203747 1.9347492153303647 -0.9220469588178185 0.41615541525162525
Ni 3.264135288613808 5.772259253489907 9.540314149600414 1.2351618153364856 -0.6360844943442271 0.0017102978228873769
Ni 6.883999227616291 6.296530412924762 6.163357114542812 -1.1965309903381651 -1.4536731881459546 -1.6578007814299258
Ni 7.690183583650935 3.9925607016052322 2.420399843001209 0.8805413833748641 -0.6609102951386553 0.09524703083046822
Ni 3.17670276277533 6.642159657734847 4.762515870093656 0.6304072414537918 -0.5658162449462836 -0.3360616951228277
Ni 2.797128036520068 4.206619963382783 1.7123917067688479 -0.5466895514191618 -1.3767802343426419 0.9606628714178036
Ni 0.3547631435125549 5.6635726165529485 1.7280536538801365 -0.6666564535938131 -0.05288244982132828 -2.113445770135741
Ni 6.317201331950418 1.5827925426617777 6.332348588914897 -1.4790610320914397 -0.015647476729269826 2.436888490942977
Ni 4.415226842130279 2.2035125625213126 0.5344427697462704 -1.787059650429464 0.28119486788161896 -2.3987981118291595
Ni 6.23481388039272 9.070599220025704 10.360247027326462 -2.0430659348605973 -1.106386570841585 -0.2129719310484784
Ni 6.754030708529767 1.6027043862910597 13.521266551851337 0.25405456002140114 -1.9166753885477896 -0.649244685875269
Ni 4.217163705778763 3.7331790844539188 10.531311147811328 0.2397926507857483 -0.5143635855929464 0.4244690773236432
Ni 2.5964821924174726 0.8184387951775746 12.129027853327186 0.30758801316316703 0.46407666441293627 -0.08502792420562132
P 5.390388787011465 3.5259144731756207 7.794796207393451 0.2450922086217908 -0.0703662084283885 -0.23783424150779683
Ni 5.1469107251158945 7.779708195337958 5.800011790542714 -0.4279323532818952 0.17671860514339888 0.794814119109373
P 1.5438019869358202 7.159645423687478 5.826377626444583 -2.343896317584957 -0.16154806805054758 0.8731571750956512
Ni 0.8217981666573823 2.887578349909985 7.2136573409463205 -0.10742917471895692 1.0075299682829875 -0.8740076960214045
P 6.642687307705498 7.855430594634808 -0.11253107610908318 -0.13087814977051654 -0.16503011306187707 -0.1923581114528687
P 7.513430100500073 1.0614466006080727 4.715041258260661 1.955337581004678 -0.530080739217887 -1.0477790456110214
P 2.3665749174863513 1.6893037805969318 6.387477828129134 -2.483115640231317 -0.020785826397099687 1.186309312610157
Ni 3.5445951335400516 0.2563443898641133 5.416126071457067 -0.20002771218298454 -0.7944397664890899 -1.6409199465141868
Ni 6.1502510298332185 3.705556145639518 12.462133279798799 -0.5421533541117051 -0.06596782225037671 0.35274918308083764
Ni 6.660368210230801 4.312696121517576 10.19736610989519 0.902788881919155 0.8200474397548652 -0.2530217478815126
Ni 6.250698921614407 2.168576580254037 9.512241319758404 -2.0377931164974323 -0.1647838013790259 -2.183777268671452
Ni 9.127455818617545 1.0246221868668905 -0.1846497186765613 0.8828013830536345 1.1955398300694895 0.13482710711593554
Ni 5.276379365282857 0.30870022677647585 1.6353140801789585 -0.4230778534030713 -0.30992257483361463 0.48770767356831485
Ni 3.5753376870932105 2.382413673622893 8.535226120068023 0.8943744326032145 2.9610832036937325 -1.7766618521349078
Ni 7.386062803198684 8.63462148901302 1.974867944712941 0.11986611493072906 -0.06419144707624429 -0.2911959449583888
Ni 1.982279112546322 3.566413922677298 12.488132537826322 0.06987024262857645 0.13131626574919966 0.9926574220465291
Ni 4.475425223869572 8.155931881428739 3.5305161363407143 0.22861812222616756 -0.6653495618569315 -1.4937260903027825
Ni 7.931606587766077 9.1060535952466 11.823615718999395 -1.1966353771265135 -2.3224947119807293 2.0227066544779553
Ni 0.214304572728818 5.272445133045551 5.987835740358504 0.3174505077795436 1.4859443894748345 -0.5238311587637494
Ni 5.577315731877149 6.428702102064179 10.412273314432593 -0.21985631687313745 1.9603370911017983 -0.27735158287612877
Ni 8.466273377324448 1.1243110032517045 7.031333910649136 0.3530451170547017 0.171972091597349 0.8820778746240485
Ni 7.495665884821508 6.270138657375212 2.303502231959568 -1.1961437822020755 2.1476296151063012 -1.5391759951054653
Ni 9.272753957904019 7.701060578659957 3.747605219791842 0.09095046033764337 -0.6379950811033787 0.04949013631032767
Ni 0.967376793559834 4.236705268726886 3.3064500391548632 0.7867151441513226 0.5114638954476481 0.28157770514233443
Ni 2.2223783632263228 1.846497186765613 0.8359558485014656 -0.004348249666366705 -1.2932474066253081 0.22087858749006478
Ni 5.5327246808486725 4.922011496397438 1.2632032867541423 -0.1302366595317757 -0.6676134181904437 0.48728884086334145
Ni 2.149433069038159 6.668218160671356 2.374144380310928 0.945755358178352 0.8452650766710734 0.2726215243903111
Ni 4.724013159165125 8.82637133975079 12.821536040246267 2.0848543316512935 1.8851377229508242 -0.24594427220944093
Ni 6.733072821976212 7.880443054647044 4.192729809330836 0.7186775838561106 0.7496349514695735 -1.159120410900191
Ni 0.46643053993283656 5.8997561490297015 12.667258594441705 1.3791263659773152 0.48854328209573283 2.088848797522667
Ni 2.106795248602793 8.83202737715548 7.002461274535826 -1.3256618184002718 -0.27802444057343734 1.0133329481180096
Ni 8.119403692232483 8.212538540560796 5.983703407956779 1.7026606180570936 0.7672102413491754 -0.11221168370926482
P 8.541764351195575 5.4892352148466435 3.898671406389058 0.007610979578038505 -0.3739556419551237 1.3656291028218288
Ni 7.524520006900761 1.994137351360413 11.328468986541038 1.1465734274731156 0.9097789400837429 0.37675557329776405
P 1.554475327570205 8.23624576117195 12.693014392921366 -0.6135927409996143 -0.5017638945510648 0.5402983031808373
Ni 0.4967491221060693 3.1998823334158333 1.036899768552393 -0.4171190647164752 1.256802790645029 0.4146315224079311
P 4.638728261277364 8.069730538855111 9.082819408205626 -0.24634073631691122 -0.657866366106009 -0.023416579151727415
P 4.733686741960382 1.6309753162974876 11.88584416457314 0.6976675572633468 0.760433070526342 0.4338471761044334
P 4.142126325742055 6.034436489783966 2.7939612109944623 0.8853362336603463 -1.190034583980544 -0.7045925665179543
Ni 8.658930415731055 2.905925757661373 9.34934651680159 -1.283964952882118 -1.0018799690860616 -0.8192329142733696
