# total energy = -340871.4762348073 ev
CRYSTAL
PRIMVEC
9.22647248904363 0.00000000000000 0.00000000000000
0.00000000000000 9.22647248904363 0.00000000000000
0.00000000000000 0.00000000000000 13.50387511384552
PRIMCOORD
 96 1
Ni 3.503346925815294 6.793230186385207 7.3573837633991825 -0.22456734919556165 -0.28036131623673005 -1.9572967616135775
Ni 7.458929395890717 -0.029230387182913712 2.8965006157522417 0.183764970467219 -0.19411314647076247 -0.20709361789083044
Ni 6.407997284630781 2.443372871611873 8.135692991087888 -0.2211279844967095 -0.729855197739485 -0.404662069900045
Ni 0.9016699315022564 8.175355750603657 5.812297475863673 -0.8077593664161316 -0.3827382732437602 0.7601487065167037
Ni 5.347275886163664 5.536538514326636 4.699402221318167 -1.04503696408951 -0.30783046819127624 0.2419786026934736
Ni 3.684933128948694 7.7702121214287825 0.7535186190204906 -0.3117130910751341 0.3865576469898504 -0.27524764915924854
Ni 1.4875011053996186 6.702321753913616 0.22976038343015437 0.31921274188628895 -1.5775648792963088 0.019471478461050337
Ni 3.193088338712665 4.586110366825254 8.187372308246102 -0.35633201533608955 -0.6311052959620808 0.11744953506943642
Ni 6.389110695645766 -0.08983170314352537 7.1054152609231425 1.9333240528480637 -0.044212947071788376 0.8067684632577717
Ni 2.8657607776861096 1.712986864170878 0.14051363863623814 -0.9566241825720557 0.10376535271412451 0.05835144335569951
Ni 8.462022247801704 1.003323513720769 11.817969818635124 -3.101472635388794 0.017216363878286477 4.451726284195817
Ni 2.202063712689514 0.9890870668209756 5.851377122324312 -2.47694242154107 -0.34849555001080623 -0.36314595293412943
Ni 5.4294468492806836 5.209118688576167 0.7474245340060295 1.949001354374005 1.5169176979278973 0.9342267887134621
Ni 7.892010783466484 6.302963122928093 9.495127891754386 -0.10545611015298612 -0.8726619806267875 0.09024160719607685
Ni 7.473654845827251 3.149391765467414 0.4171860209400154 -0.1768337905650245 0.9297834082301276 -1.176695957890109
Ni 0.9346693326570208 -0.42598161707065263 0.5892080627925821 -0.35267924907485065 2.7074292215448597 1.8555337840414625
Ni 2.2446438827754163 2.76494311386625 9.64383279257963 -1.0404765984123372 0.8724215824812072 0.10192238596811479
Ni 1.7914580118589818 7.28559165907515 2.53040987626807 -0.2632519102499531 1.0962721081154023 -0.552018676941559
Ni 2.658478848942907 9.288566550504944 9.69767294957189 1.0730743298427003 -0.9816114486450128 -1.3519518624450524
Ni 0.5624070057903007 0.7671433508007401 8.077734136820148 0.7703410736686732 0.21604105689210532 0.4349046708346703
Ni 6.291208597101562 6.8761208143487496 11.245257765830967 0.039823559754841094 -1.883805634402962 0.4701737784496096
Ni 7.503760825240099 2.0336252327137325 4.116467237104438 2.1380036619807634 -0.08095066881245414 1.0803590364295717
Ni 7.504176016497709 0.6223855348644988 0.5497215288994866 -0.012089584174682404 -0.4214647432796806 -0.36359872420083184
Ni 2.6525370007229028 6.589583487764181 11.362592660525753 0.17913132834994958 -0.43264904203127424 0.10380494770280833
P 5.0973861079173854 7.644243093870207 4.27562388585456 0.2554509261482955 0.09818245930970833 -0.17472934262751197
P 4.932702802204868 0.8822583562381763 8.696752009261818 0.31653339528191293 -0.08968213514818105 0.943010191333047
P 0.8324713885674206 1.9402256526964872 4.065693036887812 -0.14409259157826151 -0.08387375599652007 0.9641251189347911
P 6.3814711765057615 8.874233354828323 11.831420170087176 1.6036019267900188 2.3434690002395513 1.3475982134620468
P 2.5259867054036755 5.248700255134892 1.8733254240343271 -2.2901816016703203 -1.3049302422798752 -0.343076435877764
P 1.078371640151696 3.1996299076381045 7.916457244714502 -0.5263706373561516 0.49648747664347403 -0.44817439136038295
P 3.5496730436920685 4.862129514883727 5.962122470437222 0.7393903909234298 1.1801160393152517 0.9779165162919288
P 0.48349391007465325 1.9125462355225529 -0.158411149780904 -0.36143899754535175 0.5325906501239344 1.0560852514838717
Ni 0.8585463221925058 3.9955515484745847 0.47906059009062807 -0.47536200751876845 0.6035926923641088 1.0656142740202292
Ni 4.380581467836401 2.8329883477521713 9.90152724382172 2.46924119624207 -2.6931616558822524 -0.4761320529155736
Ni 8.274540328810255 8.073892233716407 8.165874627574345 0.916365592162325 0.4435780302389522 -1.4402168055307325
Ni 3.300521383237095 4.7833354406619275 -0.10596972600316817 -0.7392397242781784 0.19823848149304568 -0.39306613753232955
Ni 0.8688126180223181 1.277368196687501 10.498101722171524 1.2594867652350954 0.6029753704950841 -0.9776522068869484
Ni 4.255359784541523 3.6917238126286995 2.0858489117430334 -1.1657343166722827 0.91070093767738 -0.2419796311347381
Ni 8.035565467402899 3.7157310937908914 9.131806016634847 0.09591603187303481 -0.8885765949745149 -0.11006532679022335
Ni 1.4497094744848067 8.758293502759106 11.918519914755635 0.71236578270547 -1.7376918986296137 -0.12490701978874616
Ni 2.9967951385875145 8.218489509033038 4.579528201421293 1.0754736833128125 1.625920644891877 -0.36647630285894306
Ni 6.9988421236255824 6.936434264370752 5.9123069007020534 -0.6757931257877587 0.4809024777210234 0.7374317245351623
Ni 0.5473687784397022 3.985799167156968 3.9399989582064987 -0.020109883375997624 -0.5563877525435321 -0.7657423985543974
Ni 2.3074300273982904 6.112381109213164 4.456940675994134 -0.824765928276457 -1.7569710585742 1.0964549135501698
Ni 8.696614534823187 7.3645425833276015 3.8664159955913115 0.247685937490896 -0.5744173563517333 1.3695055550580995
Ni 5.638223466551278 3.1685366956793852 3.9815909730992907 -0.5412077023689841 2.101893546521767 1.9697457860102074
Ni 4.314990475606568 8.449455792404738 11.506098444158495 -1.0112359563796651 -0.276184302040905 0.19812561006426524
Ni 5.808507241005322 4.566319583545892 9.594395508212507 0.13773862433577566 1.8862001027770678 -0.5608517018521566
Ni 6.255502148947186 8.460361482771267 9.465771101899712 0.1370284856426285 0.848923242248951 -0.060678805937295494
Ni 8.666600820134251 8.531894323221104 10.634599077375825 -0.1599339294858923 -3.259538658428012 -3.3930231354731237
Ni 8.766809536776286 2.20576352811843 2.02109752850081 1.1024286146351014 -0.30620116011796944 0.8007788213332403
Ni 3.9565420232041197 6.420766722420357 2.7393691776920126 2.7088443567248315 0.41960943523849675 0.20807140842306746
Ni 4.18301501452125 7.179302697127242 9.44793171753111 -0.0918932838668869 -0.5288774629384053 0.8216173553451462
Ni 7.6758345353380575 4.924989471285731 4.645711533178647 -0.09779679383551546 -0.24219200425586027 -0.33691478715174233
Ni 5.116946229386966 4.069649348249206 11.851580934909434 0.9902130742710946 1.3066770497676528 0.3663266646549562
Ni 8.01172426274375 5.5626586576664385 13.59651169179351 -0.5724486626611367 0.011706489803650806 0.46411985894604585
P 5.254651329827288 3.175853288285695 0.21809719968029762 -0.40280264809380306 -2.286732723889771 0.6799500853789258
P 4.630489699027462 6.494596954495631 12.708537535908915 -0.6438145159986332 0.06158383425006813 -0.6370838821430189
P 8.615532295448343 7.498178809443356 1.608986990023255 -0.39471832842377186 0.25128085393100597 -0.46378947218982053
P 7.451640482701582 4.883018248377656 11.051381901472341 -0.05580913654982002 -0.6056097227941377 1.134665106071304
P 3.4885199846824566 4.604323423325703 10.61106142365835 -1.8115134125964545 1.0182537824583948 -0.7500949218251276
P 5.824469038242291 6.605443793804845 8.125848345046359 0.9262036612986694 0.05777448780630695 -0.2661436299754513
P 9.334698912461503 6.062659649496386 5.63420810576658 -0.3231143909335403 1.1867322590801885 -0.5136411056046251
P 0.8629464268759223 6.827534210736103 9.994839172351249 -0.32328382663186905 0.48127477345877756 0.261804122059833
Ni 1.970257820330206 2.617697840973311 2.194689915954378 0.23986258479173528 -0.2303032232380743 0.7743409388566858
Ni 4.18963039522582 1.6762193716915021 3.1118464813654505 -2.55357517970446 -1.4924101997048362 0.7539929713279531
Ni 5.764939838373549 0.4419175801849257 4.8532250463788715 -0.43456708498959346 0.01758428874066649 -0.9102417386527742
Ni 8.827824198700027 1.621081972681025 6.187462450944699 -0.16739244264646655 0.3471061258624474 -0.7001568993441037
Ni 1.363709525325393 4.460132112794288 5.962325452829831 0.7276707884936565 -1.585198998802799 2.9872719462739585
Ni 6.60604351451028 2.395459800483793 11.16079033373575 -0.242483310244034 -0.4248699123064877 -1.277135845775426
Ni 1.8295817957798806 3.4817754333644078 12.016638835401038 1.002874728899163 -0.6877875791454735 -1.5909978648727632
Ni 0.9269098693759278 6.154435370372761 7.840336079544466 1.165822762621031 1.0068727943149627 0.39598716783386645
Ni 0.7526956176831856 0.03868475344229052 3.18496996565555 0.3978545600599083 0.547180117902335 -0.501702188075194
Ni 5.136561709690894 8.965907584508395 2.402582637169885 -0.044076678604240214 -1.5098389367042448 -0.21686663811719425
Ni 4.21179238190975 9.161868631627458 6.893282975643827 -1.4872839342218642 -0.6350257140624096 -1.5917347430387876
Ni 4.88663502555505 1.3548890177192994 12.452882135065305 0.8120096570520533 0.08417843172113244 0.3463795321090679
Ni 8.715030573716245 3.193448171135926 11.527717914265814 0.9537229497648607 1.7530033321757035 0.6994598732770793
Ni 0.5473567840255934 5.58315065284754 12.043552455366493 -1.0300222358482325 0.13231256822419793 -0.8243175278851288
Ni 6.175148800891256 7.570302144126237 0.36908380712791333 -0.03519351718199746 0.3081174033040758 0.10657428291782935
Ni 5.543172347975989 4.572695075968287 7.14236174696691 -0.016482056815423227 0.6548903141968204 -0.5098993791740057
Ni 3.345325133169303 1.9511590224801911 7.658438944291479 0.06526616819766178 1.423780257241264 0.04626443028417839
Ni 8.152197304901465 5.21899101403487 7.290998371896458 -1.4530478958571298 -1.0659181784138934 -0.9149761680139661
Ni 9.356381122581086 5.517771869482708 2.3840549579608923 -0.7100713302443383 0.1292519270210032 -1.2040812918815973
Ni 8.3110218006455 7.836181399026659 12.824292858530308 0.3911817760254231 -0.2562371694950168 0.4380403882501746
Ni 3.037363937692111 3.5875477128584023 4.401425914262852 -0.12056339810806978 -0.8677066935040412 -1.0464636692337075
Ni 0.685804615493417 4.607441970993966 9.957716460684807 1.3158587162669206 0.42241579433904025 -1.2375789094184106
Ni 6.592056182365053 6.7031244570116595 2.769671680966797 0.00019077585456741338 -0.32615266353923184 -0.3447710499713675
Ni 6.177261663068865 2.00961795155154 2.066808240669084 0.6543236430600731 -0.2716876997221321 -1.1726253873651613
P 2.2285713678697516 8.556612042757427 7.63934475967766 -0.5687462741088849 -0.21748370287590282 -0.556483654691448
P 3.995533095529802 1.775902179407231 5.309169632540309 1.5726954670191495 0.3422035463545074 0.10378952108384061
P 8.209004695414771 1.4131449643980396 9.630612180290122 -1.52522904600707 0.558892778353573 -0.9957967390064592
P 7.8920476893560485 8.899587700959648 5.4301240723542055 0.22447993168807792 0.8931153633851329 -0.4495157358796258
P 2.877413812316336 1.1290342000523872 11.499603007595011 1.294165033343571 1.2419289588569902 0.8099448041032246
P 7.26779379383231 4.152004840814052 2.5698410513268173 0.3492522256711727 -0.05467707982790584 -0.46702546262861505
P 7.080376460147601 3.318503777927761 6.093340438139214 0.12508776834098456 -0.5043560807582734 -0.01532994548885102
P 2.8034451831551923 0.3295105443943395 1.8687610881423455 -0.07820704462904596 -0.3677996496560569 0.5717979164510152
