# total energy = -340871.82406690664 ev
CRYSTAL
PRIMVEC
9.25129175408194 0.00000000000000 0.00000000000000
0.00000000000000 9.25129175408194 0.00000000000000
0.00000000000000 0.00000000000000 13.54020061700263
PRIMCOORD
 96 1
Ni 3.418269080915803 8.217395236257163 6.05186023852919 0.0012750100576816752 0.40633740071993896 -0.6516995751736648
Ni 8.650522218593176 4.3285129383856376 12.7348436077979 2.1964718334199853 1.2060957512084647 -0.8980670509634534
Ni 3.4519067781214443 3.2056003836211664 13.403823949960746 -2.539026335356008 -0.45699378942422586 -3.3024951073848805
Ni 5.900483200070312 4.925249017278796 3.4181423382173106 0.7898395487129172 0.5959927685296639 -0.7018756818074234
Ni 1.6719859779911095 8.132727413147691 1.2585984770983514 0.933504822945773 -0.6182945173506578 0.00942720685117086
Ni 1.6320574023201657 4.633833323665561 6.527555190104016 -0.09601707622727335 -0.11496944896006006 1.0753317584183093
Ni 3.1631554565641022 2.5098107227750903 5.607119184391206 -0.6569824208391588 2.0362021178612286 4.513795799833052
Ni 0.3626663681370778 0.44461246118111947 7.312277519607362 1.5272357920244535 2.6681111406715274 3.924187594673493
Ni -0.2565059437767415 7.969127567882408 2.989107202271301 1.207875983037339 0.13874881076784493 0.8774146648204243
Ni 7.12444761582962 0.6952447597554787 7.416441515184152 -0.49088761395819325 -0.04552935189036675 0.9273102640992869
Ni 4.086406630390134 0.6522586321245614 11.74631346834413 0.5775111647857086 0.1801057764480769 1.4997093044694105
Ni 1.1108396188862086 3.684447250332945 9.051976478114769 -0.5872595024217241 -0.6012450180675387 0.23075162362940257
Ni 3.655351937430926 7.148260441079159 10.520072309657895 0.5519947656821591 0.6013272933686999 -0.6657321420073309
Ni 6.663548255327672 4.26759318148268 11.501127405288189 0.9089700710292022 -0.6622637238427562 -0.5107992652804558
Ni 8.59901102551259 3.5743938823576107 7.342471885982438 2.1965345683371202 0.2643081194286093 -2.0813365483060218
Ni 0.5846363142684998 1.2593876122940726 3.0574853506723847 -1.1978594793416015 -0.04310608716085479 1.1862607187604086
Ni 7.459251868269716 6.702607209563706 4.50064062448815 0.6627702311655295 -1.3205828612154675 -0.2813725311100638
Ni 4.740047405518689 6.450703783487683 1.6905209412340971 1.0566763481006511 0.34404728443146554 0.8703670139450237
Ni 4.471787695432881 7.011045280200699 12.882796743139119 -1.0881847031215774 1.1426458102839354 -0.08307491424430855
Ni 3.2006231886000895 6.083714286664082 7.437442872837212 0.5980429661904733 0.6383254678596039 0.7799081485318181
Ni 2.561294161980095 2.718695641698685 10.878237924304724 1.1970020164373127 0.6238532423853578 0.6971805903245993
Ni 4.837898319529712 1.6414844687262575 1.106531292266663 0.09311044410343965 -0.5034644221819394 -0.09186268773926759
Ni 9.7176494834374 6.173220535416719 9.013264447323513 -1.2326367349217868 -0.3210127712095052 -0.2336122330066493
Ni 3.001350361919801 1.730139598627706 3.6435870695716255 0.27756344177661874 -0.5106946213817914 -3.384111177695475
P 9.061362838836672 1.2424669994807833 9.497070006472645 -1.1904256487713756 -0.5018510549482325 -0.7894209731182598
P 1.3810235976790506 2.497691530437524 6.972796739131665 -0.143499695189269 -0.3084930414759397 0.7206563048490363
P 4.424828137947777 0.9214046159706287 5.196241558980266 0.9743313700438315 -2.053444449881444 0.43645838847503543
P 3.3413168352181875 5.5083486919692275 0.40864158816819945 -1.8134201427008638 -1.3518330774790008 -0.2528682530227839
P 0.9199373610815157 2.7189269239952036 13.17402000988165 1.0079696269235672 0.2280537650822653 0.1550362350739588
P 1.8987258902059276 4.077608651830572 3.181784782984069 -1.3543923535657447 -0.5507444382148257 -1.393086170591517
P 7.1935085095700275 6.899770741699746 2.2063618738385937 -1.5370885164488173 -1.4213114839857974 0.4367332394029769
P 3.6225931129520537 9.006289898389701 0.3780068603005529 0.30342565425536133 0.23212253583500025 -0.27916575326673215
Ni 6.71305191807448 6.314367495335992 13.1278606891425 0.6080738680639141 0.6172125971403887 0.4664369371149967
Ni 7.778467693924467 3.010564648613096 3.5212378095841843 -1.0374455248954972 0.7230309757287999 -0.40617259300730046
Ni 0.7153228384808376 1.5283781744368794 11.385101403287562 -0.5752182549864738 -0.23244932304679966 0.15502003712404272
Ni 5.406057157865051 6.172850483742288 5.837749264833464 -0.506830767551011 0.1330371050950483 -0.15822825964869522
Ni 8.394659239600756 7.813215546153397 0.7310750131321154 -1.0136489366965318 1.0998881076014346 -1.0852094225433373
Ni 4.65376060633359 1.4709369032735595 7.407112512471784 0.03103938580430784 -0.23790443262409997 0.048079372005730106
Ni 0.6792085704440761 5.568130539973313 1.0945573452113104 1.068700626255037 0.2686129174515503 -1.4164790955941606
Ni 2.4960355491944517 1.5551329104981326 8.766143014010304 -0.7507407829392425 -0.6034551383449801 -0.1321744999844369
Ni 8.53896089004454 8.756754803030027 11.47048620151624 0.9965505864533483 1.2594888221176244 0.16541552142575383
Ni 0.5939264615550525 3.2094766749108152 4.931693467188986 0.7468149655222751 -0.34393929809869156 -0.9256976681965283
Ni 1.7108784089736502 8.934795914889921 12.531604752296913 1.073283360529713 -0.08149857089612415 -0.17460335857260897
Ni 1.620234251322143 0.828810285994878 5.398234265467612 -0.49998494827377116 -1.5896192393576816 -0.7385951487156441
Ni 0.722239104275925 6.309991634285863 4.919723220650377 2.118181227938197 1.0362463623810734 -0.45676033325718113
Ni 6.974252892470545 5.2338073547099775 7.993525074777546 0.6066654177521617 1.3785627801643614 -1.4373551677122212
Ni 4.836094317616867 2.0867306433998376 9.893553546877465 -0.45577611496704085 1.5156007788886865 0.37692552321672507
Ni 6.129822725297998 8.41015515346749 5.296723540396482 -0.5744993745425784 1.7139513604795644 0.14998915956835457
Ni 2.3764255967269756 1.7151247519377288 1.2651668943194754 -0.21462386482960458 -0.6576627347356351 0.028890200671788952
Ni 0.0017512695492376308 2.943455777455305 1.5774470264662317 0.6345114934301525 1.6991670030815385 -0.19961684989781106
Ni 8.03260993263079 6.595560511443112 11.277917786047428 0.7732235374227909 -1.978584210237444 -1.0499608837536887
Ni 0.3160722366804728 0.6873497072815251 0.7709166266595681 -1.2837520655403631 0.6908361361638103 -1.347154441056409
Ni 8.532762524497848 8.584875051549382 5.943606246820769 -2.081963126146427 -1.923002873427714 -3.082879188657323
Ni 7.158621887963185 3.0676636219775686 8.856943518494257 -0.48575517782763433 -1.586562969029861 2.553073300367377
Ni 5.199337041236869 3.0085293644037336 4.50167029327225 -0.3407999811387615 0.9711416594619403 0.5699572636978506
Ni 5.298945700701432 4.511642260768939 -0.03182999477605384 1.2743649678985085 -0.05655604201817356 1.3394781554580737
P 5.68196768631969 6.132468594770169 11.136801355391295 -0.35166006378171694 0.9166337582220473 0.3629901440825555
P 4.23911770513533 6.296743784341286 3.864508844335226 0.9439147054251872 1.241984237574958 0.34108305959681906
P 5.843448985748865 0.48105144956219276 9.14522764981263 0.5274042208269885 -1.2287906217028193 0.02719301547502414
P 4.483731113225093 4.402865571070386 6.573374988431877 -0.26825527700181545 -1.6435656116671498 1.4558478271997701
P 7.0747404246618775 7.344239807857026 7.157147232040584 -0.43257422292928077 0.15346554815272925 0.24928284966437067
P 7.791151215065537 0.29816543615482904 3.8954747684514865 -0.33150544321071296 0.2179706698146504 0.2370644532213079
P 2.6291986442379094 9.188799384218335 10.452452767189392 -1.1599809591282733 0.011914749159714964 -0.7115587134231423
P 2.355230887074025 5.580638286569031 9.690315616505664 2.050167836012702 -0.07347312948848637 -1.838171638613931
Ni 8.917190706478939 6.1830269047890996 6.808202379991353 -1.0599339358060003 -0.10336683172412521 0.9444482093311541
Ni 5.806675100602433 8.756505018149786 1.171688140841838 0.0961659431003118 -1.7014989936488245 -0.587533324908401
Ni 4.380875250317413 8.579888605236444 3.4287443186897155 -1.717653749031816 -1.2706404678590697 0.011971313429263254
Ni 6.3740568304214715 7.337588129009155 9.542456844341425 -0.2221073176908433 0.1730496409322439 -0.5199819602209883
Ni 3.792002769505881 3.69842595233452 1.9404464411102962 0.2765368002843173 1.081739461716866 2.9050922901504097
Ni 2.3204090245102087 6.463775858886905 2.8873263394778377 0.025920319410187617 -0.3212559975685628 0.4558187952795182
Ni 7.454626222339346 2.557732414613711 13.361104259535416 -1.352657116042193 0.04154054244594781 0.6740131510692005
Ni 6.183498720673998 8.391893103334397 11.753530401124692 -0.4810282046656103 0.3624638392654403 -0.14481018647057642
Ni 6.405048658154942 2.9902765655624983 6.558845834564588 -1.1471064171584502 1.6427485150824934 0.19792969200337526
Ni 3.229163423990465 4.551173030889871 4.724988152627781 0.6572418451481327 2.600663648551831 -0.6550147555898267
Ni 5.505582555702866 4.633407764239967 9.471383794621309 -1.7264656908964913 0.16330413150970585 0.29526831525554953
Ni 5.784092697170372 1.1598622144562574 3.4709894178425884 0.7980688786012449 -0.7929618963919828 -0.6843289311729117
Ni 5.08495406867071 8.154060892178553 7.728611556957765 -0.21317350553632322 0.20163156633499468 -0.04132662666292883
Ni 7.190955153016463 1.80933065695562 11.071348465476575 -0.19181458024457287 -1.0771477285811255 -0.3334983052710256
Ni 1.1957387242921977 7.1952107472724025 10.98827926560064 0.22857827012716764 1.989667207524483 -0.9902740094160171
Ni 7.4164183869545 1.1783555468858717 1.7781399264471431 0.3969348764591164 -0.18666028973714305 0.026551268125967177
Ni 3.908180492693024 4.792752015249312 11.42669706175181 1.154759562828334 -0.1957249710425726 -0.2865805576735645
Ni 2.2844955095068253 8.284300578994017 8.43987770395767 -0.10047331222641406 -0.6789787226045919 -0.19428206794845893
Ni 1.663539548522256 5.0741115546099245 11.537862435008806 -1.9823045965118247 -2.097261961287027 2.3680292060774186
Ni 3.332037789481867 3.812087324135542 8.60579962348 1.5966013271024697 0.44146869720543325 -0.9079015205553719
Ni 7.924092279104338 1.7427028529745878 5.511484879910017 1.3372366677220646 -0.8115640848742023 -0.7161206217622119
Ni 8.35844968325783 8.40737976590927 9.039113481911599 0.4421150725401805 -0.3887353713674595 -0.43674172404340916
Ni 9.264891259772902 5.244548104560295 3.197870004142334 -1.4734092331223012 -1.7526811729495944 -0.39639391635398186
Ni 7.540219174634891 4.818748145377985 1.1998971799835991 -0.5509192732297932 -0.12064284519575352 1.672297432384204
P 2.04474828093581 8.960320229133696 3.222093586750489 0.4577934025073858 -0.2965633799178892 0.5679973117580025
P 0.5820144981551667 6.990479658394279 13.024251771077356 0.5758247782222211 -0.5098746965836574 -1.4687930745065285
P 1.2617189378429783 7.86254343435485 6.33510796655858 1.5879261679259749 -0.18333096825359393 0.8881035119928382
P 8.736411212228264 4.340169566130167 10.246316407077623 -1.491500029185741 0.942700630512428 0.7151855115424521
P 5.124013022906744 2.8230779677633873 12.068123356236633 -0.29988653075385124 -1.0887524026995894 -0.8452841028344669
P 6.05196385299803 3.239423106664023 1.856551100871197 1.1199748510489809 0.2844102894951231 0.7864045548894392
P 8.14651183802019 4.513066959715492 5.347715736003682 -0.7694869531984941 0.2995216912152648 -0.5071243875320298
P 7.4008484627528786 0.42104664542426257 13.0386310540165 -0.19406532395196258 0.02060867738928709 1.1008216751592976
