# total energy = -340875.66135136015 ev
CRYSTAL
PRIMVEC
9.21038705929340 0.00000000000000 0.00000000000000

0.00000000000000 9.21038705929340 0.00000000000000

0.00000000000000 0.00000000000000 13.48033246146685

PRIMCOORD
 96 1
Ni 5.166474479129301 0.8248159441911265 2.7775819313219077 0.10638684949737161 -0.16390551253913063 -0.23256245158589625
Ni 6.682771279187378 -0.1966509726599809 0.8749434753935033 0.45659989641991683 -0.6324852070287429 1.2784921026930047
Ni 7.58436685141879 2.584360906777639 11.04616172223249 2.017899205786983 -1.5363549807169024 0.7737156465678611
Ni 6.357082784773553 0.4906852090607005 12.285799680949706 -0.4522866137565436 1.1990735542543607 -1.3741703075236207
Ni 3.3273351942378366 1.0172227705253278 0.9011249214561355 1.1566871188683499 0.3981026715149724 -1.281218243374916
Ni 5.1284447912405335 2.406121497714085 4.777240761743577 0.003153715137633278 1.1130655255236572 0.49257528607326134
Ni 6.213658638538658 4.629131291646001 11.495905840076345 -0.5246215158755287 0.09850101899139166 0.43811315046963895
Ni 3.730943562601521 6.226718967292902 3.9422289191526287 0.07074261793120074 -0.18067373313640497 -1.6589477505501753
Ni 3.7043623857434484 4.666737301733148 7.874428647909984 -0.572329106364137 1.7009595762055867 -2.4451317047883756
Ni 7.723646323507414 0.7027285804612257 2.980986880762909 -0.8332019748589522 -0.17009312940708127 -0.882690568507383
Ni 2.8559383776151734 7.820226441502476 9.91831667770454 0.9328800448775804 -0.08756534591549435 -0.10386202619298887
Ni 4.459172020487992 6.729375837365425 6.056173915522222 -0.04265203034257171 -0.191948791829592 1.236839974369857
Ni 0.7483282854184782 7.961965086917887 10.982668998466442 -1.5769557849574 -0.19055551102649118 -0.20002899773456517
Ni 4.295696861772147 3.154483861564432 2.343272579998759 1.313275786031093 -0.3630117413491103 1.8857522166063718
Ni 7.891395101787412 8.354447307795587 9.03640554455181 -0.7072186912868916 -0.3967014202920716 0.6609869140128617
Ni 8.184699875538389 8.13781900575059 6.02933484782838 2.5000460974380685 -0.6653559896148348 1.3635076856034518
Ni 1.2022686555757554 0.5492862962954497 1.9586385298766946 -0.7526760522887425 -0.7207113264566878 0.3964800483098849
Ni 7.940200942456478 3.3685056240907767 4.9821018733679665 -0.4055982085610692 -0.1122384231821422 -0.2536652950027825
Ni 0.625037124108761 6.558698156022064 13.265563807579753 -1.0083578635009214 -1.0796069887548954 -0.15891782951655212
Ni 7.986648924055667 6.587627981563022 1.5527726956613424 0.6711330013079281 -0.18196288426147372 -0.7809080505512422
Ni 1.3215247463444046 8.556210045235966 5.89532648021511 0.34495231274423815 -1.5541369872906718 1.8544798888556513
Ni 8.668116247185232 7.959948012166703 3.574512507856935 1.2260914776041014 -1.1727182041892836 0.13805589846587835
Ni 2.504589745042446 3.573759098201014 4.498885367118843 -0.5873019256238854 -0.08836753010181554 -1.5708758973119075
Ni 9.38787114903933 1.978860855555691 9.057395095467214 -1.2547302243867167 -0.7171182097887908 -0.0008014128553728134
P 4.021918108443595 4.147483314301565 5.793874067501435 1.400106824883724 0.7902558103147292 -0.008665131874165722
P 2.288873271309628 6.4720560455910565 7.9881621906384055 -0.35952635390367116 0.525329854796463 -0.29703672000988196
P 4.793103811259398 8.423230477849671 4.1989620092756255 -0.2786767294454556 -0.9474006070912588 -0.23431980059663515
P 7.112933193248159 6.638524580079207 7.454044480679602 -0.74191804244129 1.0111454535483877 0.6721521866010617
P 1.7151766863700515 7.316998527436467 4.047523905319245 0.49396419600098807 0.39788695595974055 1.9444476735650513
P 4.757597769406359 5.352625610618733 1.9561314625375514 -0.7114306724857102 1.1500030219799549 0.03567431347315792
P 2.590716073801918 2.074538355625565 2.640621634677795 -1.0966454322944208 0.1238837207305544 1.4007917667658907
P 4.6319404596784715 4.321172792191215 9.630295902970708 1.6438726013846077 0.048267319646820094 2.129739879310074
Ni 0.7619265007730375 3.0863454185997683 11.14789781486551 -0.24478676156623005 0.24718534370539363 0.9701003626816196
Ni 0.03565248700620674 2.296711310639572 3.3003902070935918 2.2687496570487893 0.37565822646852726 0.5836810410418464
Ni 1.0324567506096147 8.739340169792118 8.518733901605401 -0.1893658615937642 0.20660407984892162 -0.5609514606548145
Ni 2.26334207856861 4.5573547458196115 12.79806574777068 -3.6162478545978627 0.6564077792826115 0.5874759893079043
Ni 9.080299485838196 6.346371104702195 8.547609385863108 2.7357753767877204 -0.04159453561233482 -1.5510454928495416
Ni 2.016264237129022 0.9987006822850008 10.321337423378154 -1.416600194553057 -0.27119096259137165 -0.7032201116504598
Ni 6.73258105203854 1.2479429646676408 9.12702101593104 -0.2611384634513761 -0.6735315834470916 0.282542640158765
Ni 1.7991017326385048 8.61583809062029 13.308121321713644 -0.276336254237737 0.40932245149019186 -0.020093171205449265
Ni 2.016890543444458 3.3362416384588194 8.2355660797775 -1.9257387843016383 -0.41753481209765514 0.4067066111338995
Ni 1.8386603447678953 0.5865027070128486 4.2270951363418 1.357943561252113 1.4692638434953598 -1.38760560709292
Ni 5.662509080954786 6.358676181723118 0.13850764165871973 0.6732865573158211 -0.0582488563395642 0.010881679909510292
Ni 4.327924005856137 1.102897790322206 9.219940926135596 -1.4447414328739634 -1.64127038787507 -0.07313991451878371
Ni 4.024275967513472 3.566961832601132 13.613787355846194 2.8689999153032266 -0.22705437728347347 -0.6240797565738672
Ni 8.244401604018647 5.783745404926653 5.811614193886166 0.25418285806914936 -0.7449866540642848 -0.050885473995957525
Ni 6.624340584111975 0.510217676754018 5.155432146164941 -0.5414478434042482 1.073143492517739 -0.14352154956613994
Ni 3.908427719931755 5.316557735159201 11.556688867989427 1.0037687014683423 -0.2405454697913728 -1.3364699647593692
Ni 4.745716370187054 7.473777734809339 11.613279327743887 -0.20072216714684787 0.38855050905016303 0.16178049577632783
Ni 5.9622703359869496 7.303938198682223 2.537483721144636 -1.0408311535382786 -0.25582913542332064 0.869107944726942
Ni 8.10597869792025 2.202139057008703 1.025125282564214 -0.9443541069554512 -0.6485772274945991 0.05695327745659224
Ni 1.5643473889938233 6.876760450006755 2.079219995333451 -2.134413373526343 -0.24360071167792885 -1.1471917777834049
Ni 3.2448285475661063 8.348469766637967 7.504150827991897 0.44484327010462094 0.36184163230040906 0.2819839394418176
Ni 2.6069171445203345 4.747107138622802 2.065160339590607 -0.5420710788105438 -0.19716401748194431 -0.07543076743548945
Ni 3.5349649481919347 0.32330300418297275 11.805117873200702 1.233460773484979 0.9330037149396383 0.9198954596924545
Ni 3.283502962544293 8.377537747983801 2.39505061255005 0.8580043786146127 0.13308724160669338 0.8667343022884428
P 6.590114786050783 2.5938015534441408 3.076683722645465 -0.10637270842998456 0.11576083451310386 -0.1181614735347965
P 2.293515306353449 6.768971291042783 11.79029007118275 0.9318973692493371 -0.44644532448441826 0.34527395774971503
P 8.955461900552573 0.7299158007833526 4.966949865727907 0.03120805017168819 0.43856155086096726 0.021516791025853264
P 0.6923613688633579 4.580270188654984 0.986005084855629 -0.7747643995473495 0.6645232093008941 0.4077589636578139
P 2.6649149514071264 2.397491365102853 12.43172444725285 0.2322958281880709 -1.7288565597261707 -0.9458618018492292
P 5.261378306691871 8.410768824249887 9.718820616502821 0.6145576760160448 0.7339633063705876 -0.2429887891255428
P 7.58787600886263 5.966590007486062 3.67982038856534 0.2786942129469523 0.19537992899832804 -0.7237760814249407
P 7.93336683530863 5.984052901222342 12.11925009505603 -0.3122309112518171 -0.19205626394173375 0.2936701175304942
Ni 4.180788073663585 0.5069728574168388 5.750952743081372 -1.0621579400405126 -0.1834296986149873 0.3198328919687911
Ni 2.0602438350144325 5.824851362070651 5.831254423107287 0.35220359499001275 0.2123180995145634 0.36204140701604104
Ni 6.118764021363079 4.658005854865008 7.082499311511454 -0.9292473332209996 0.3339598182884765 -0.3097582813416085
Ni 5.851515432411649 8.758985925245433 7.307890375740365 -0.5234768607481244 -0.9954748368906663 0.9904645281602684
Ni 3.008222916136092 3.1085332408627955 10.437672900431732 1.0757066252592247 0.45993770254389815 -0.1819826817558156
Ni 9.188972841953372 0.8961411810549217 12.800465053582021 -0.5771036449346447 -0.48208467095458263 -0.6195733840630814
Ni 1.492828734003202 2.2152638584718884 6.184399081143397 -1.4622352187833527 -0.8181512511734167 -0.9708747789537988
Ni 5.967805778568968 4.708055097777955 4.491336533940439 -0.7123094755462377 0.7104850207429892 -0.2906351873589124
Ni 5.325261550866366 2.309034808434479 10.828427252709787 -1.0332775095607367 0.7725779334189921 1.3045065244788951
Ni 7.2884094862142 5.845427366610129 9.692075494756295 -1.3785380975740131 0.021093073224873353 0.8152811287144732
Ni 7.950424472017276 0.6804339177090947 7.2319019199426675 1.5013998047979562 2.6460191938684945 -0.02321654732577937
Ni 6.2578777064858535 3.938186480301967 1.317462965681061 -0.7440505154032605 -0.03611911432006038 -1.5816462484545342
Ni 1.897183143713215 5.328595710957364 9.744204443051972 -0.23731256467637193 -0.26317374871384996 1.0376807808347548
Ni 8.047271691235096 4.025896995624013 12.94571561955737 1.2689659083701241 0.34213798322389466 1.0274907276756302
Ni 0.6043819102411543 5.226747251603045 3.816727264964901 -0.10811771614554927 0.04658427551744235 0.08179784730409784
Ni 3.1784216573558837 6.806125992167337 0.44106148602677014 1.3397617481367636 -1.0810529771728026 -0.8085587223889752
Ni 6.497578027945083 7.337040329530425 5.090052214104293 -2.264868833937144 -1.5668328375907854 -1.6531409140604112
Ni 8.33382525132115 3.800905662190543 7.576108818442023 1.6046609641821525 0.1473535217177204 -0.7325491996318804
Ni 8.155208216390935 4.17822758607989 2.335656510995315 1.433473573269628 1.1081434056316914 1.0696511630937642
Ni 1.315722202539628 2.416206871470006 0.5900910737848184 -0.09437208442468265 1.6729823742663703 0.21321721429006502
Ni 6.662259747356842 3.5619605924646343 9.2298218293003 -0.7626187653237512 0.727361999003986 -0.8136729036870891
Ni 4.728087689484923 6.557067917524532 8.724309739260349 0.9345072960683583 0.4686897377049154 0.26225817887811603
Ni 7.074452196396798 7.655848664861444 11.331864242560508 0.5733112677717481 0.9840969340710277 -0.6116785546960368
Ni 4.622039293662384 2.4258961985852836 7.402900122753341 0.9249399640948974 0.4327472581720353 -1.216637274169737
P 8.946159409690946 4.264860486123905 9.619282122206021 0.4218406385618606 0.06782415873282513 0.12470467396995297
P 2.4308790179477984 1.2869121120295617 7.814332714866481 0.6793283926345268 -1.4198156161665612 1.3490621996020828
P 6.196251007124328 2.6864580465807344 12.957632018247244 0.05039850705720998 -0.3993951650741508 -0.46192722217010124
P 8.883519567760333 8.653140157936713 1.156648687767121 -1.2571146654584928 -1.2811357109634387 -0.9073803579445793
P 8.625545838509552 0.42178598813052137 10.743056175683636 -0.8594578232316876 1.222170031062508 -0.7689629623742241
P 4.645194206559541 8.512829122505016 0.20205654878541499 0.15911606157028724 0.17460670100671863 -0.11339207717061117
P 6.881559061629435 2.500518753992111 6.668181105153812 -2.055283817083028 -0.9855740328371866 0.7223560611489624
P 0.5399570953115475 4.238997719451186 5.911449262644097 1.4947594166633031 -0.8161810148209233 -0.19440033869387813
