# total energy = -340857.9595189296 ev
CRYSTAL
PRIMVEC
9.32117910823161 0.00000000000000 0.00000000000000

0.00000000000000 9.32117910823161 0.00000000000000

0.00000000000000 0.00000000000000 13.64248782412265

PRIMCOORD
 96 1
Ni 1.212750666896042 0.3706977055197296 1.2359026118831402 -1.1153211543270536 -0.5958948094992188 0.4799665961703154
Ni 7.258663264317992 3.4193720698615535 12.629424207296951 0.09620759497152463 -0.4035973760809565 -0.4254630658057963
Ni 7.571109192318447 7.379316608352536 6.569294947303812 1.083321204381689 -0.6634754847626702 -0.8020908552764444
Ni 3.143474485646592 2.4376095456200253 8.9218729674587 2.0013808964169857 2.252881322557965 -0.1437100114278622
Ni 8.223694271830379 2.1229172134236234 1.4962123880612528 -1.3269275724865726 3.4914629622092774 0.5585737044512573
Ni 7.275832876471239 3.280915273485695 3.9600461393446573 0.8635024256147065 0.33626198405909186 -0.5488703611205644
Ni 2.5631005816782038 3.2922311850785517 11.473250302011422 -0.431732957974908 1.8554538227331465 -0.27336328765234214
Ni 8.585281456764557 2.42262108940807 5.866774446387225 -0.17225594138635494 1.2747210656863466 -1.7115075269247622
Ni 1.3093367261424838 1.52712607899841 9.454748938392724 -2.3649073726189846 -1.0855050994068856 1.1322336138116758
Ni 5.659288725059095 0.4323806091158816 10.63882113313247 1.6106086971251552 1.5185495771043653 -1.1409972189369189
Ni 4.438382026331299 5.3123451127051275 2.0884735919096826 1.1072226935896352 -0.34930261929313394 0.3405001905101555
Ni 3.650714417327046 8.842424828356103 13.292380962945103 0.8696815578422248 -0.4792693129929746 -3.160732706601692
Ni 4.777290782183583 3.894248867233607 11.999823291545866 0.4703087613655771 1.6534142223264556 2.20041307745592
Ni 5.034900212736942 6.4122908684835815 8.179258346175136 0.3739798103248398 1.8117119017605054 -0.6360865512267562
Ni 7.292461860228781 8.791661686235265 8.356705635296397 0.03599133049294447 0.6648350841143582 0.8450017957073577
Ni 3.112388352893564 5.329402870707539 13.153582079291272 -1.5307558893625703 -2.3033309945680847 3.1614150773806973
Ni 0.8320979419519543 2.7893442441014455 0.6229120375311239 1.687641776050758 1.530466126036293 -0.9098655862602781
Ni 0.37311189094192876 5.668470086606841 8.928967316975442 -2.3707144662190656 0.8273357458861622 -1.8759267458755178
Ni 1.9424125775128585 5.8098537332628934 6.767697179466177 -1.052545099541097 -1.3962463134870535 -0.04388975940441473
Ni 4.436704214068766 4.820457163226844 9.752673401260964 -0.4574172501148896 -1.025754461710814 0.5438844778701988
Ni 2.5642657290827398 0.23769659535087195 7.641894227438837 -0.07110951435231626 0.4076329796029109 1.5128568975949623
Ni 6.165764320042173 3.1739454205700257 8.265601361558817 -0.41180999379873595 -1.1291763150425909 1.486855331324878
Ni 4.2445481041126385 4.312807099659993 7.5363831390736475 -1.0088232331731142 -0.3630217686514393 -1.8128668413005553
Ni 0.38215716327282506 7.269336014543545 5.105223849485135 1.0689726489695008 1.7444592992604342 3.594676813295306
P 2.5335617646783994 1.4336905783338345 0.17875598268603654 2.6679368198771924 1.8713537817928547 -0.7290753821506669
P 4.028837374226405 6.065869242166848 6.14027928389223 0.14636004745619954 0.18885472628530056 -0.06155992299066817
P 6.061879777453715 1.1264645107057012 1.1514583207098905 0.08905735707998856 0.572371272455982 1.5646743964868859
P 5.286627979192202 7.143434846598969 12.84421120832087 -0.43297942878749945 0.11493345351580204 0.689833663041225
P 5.464718429680768 2.6192140806806723 10.644892017169068 0.5006408366902152 -1.2242909340602528 -1.6772023258849889
P 0.5752463232705054 7.389933431502671 7.538266017279378 -0.10784543632076911 0.5180358922382111 -0.3201797337852486
P 1.2405277810201876 0.04370328096727142 5.642847097004201 -1.3862868882814963 2.417586962400888 -0.077189401997809
P 4.60997561489217 8.919305914697027 8.378984185789054 -0.4491179862205749 -0.20411499487848073 0.1386145991828258
Ni 2.6449591777313066 7.988203999604736 5.983553908331167 2.2160777805763705 -3.283374070284713 -0.1962474192049459
Ni 8.60472543665146 3.347049040167176 8.257620567896705 -0.3231359882000951 -0.2628734438646118 0.28201196446627563
Ni 9.4876554974506 1.0698103833075279 7.433764412625479 0.04542445088138628 -1.4856065465194415 -0.006371193633666446
Ni 2.2241545411089736 4.42164118842292 4.595362802203437 0.5838934141629686 -0.7775388769686932 0.9711254615120243
Ni 5.741576095357067 0.7982779073289216 4.023374231076015 -1.1301322511979568 -0.6662692454577235 0.17615810465423856
Ni 0.8328203333427667 8.02116368938426 9.696575748263196 0.10726950921264106 0.6977858280087659 0.20184162546327175
Ni 7.771989926039743 0.5107493556629172 2.7795616664929583 -1.685388718350523 -1.728432584814875 4.130045026164377
Ni 3.735723571962015 6.254874793541109 11.455324742222112 0.299472068924252 0.09930654561182252 -1.2447566581137723
Ni 0.16192752569283772 5.238698475559197 1.0274484200323586 0.23659111312931513 0.8632687123373455 -2.095149028709082
Ni 2.947757685222202 7.0482190007002625 8.610743189966408 -1.5680762230795833 0.43529599273581804 0.41636161772516034
Ni 6.371687811730301 5.941795025352586 11.318176639411028 -2.5684153300410864 0.9383984035926484 0.00728573502813584
Ni 7.686057974660382 0.3462995188687393 5.2850592247267345 0.7934658326115948 0.04558334505675375 0.3681020113878241
Ni 3.5302195333395194 0.17690852496140377 1.6859384665904795 -0.32916728199583956 1.809371169442471 3.342026075599967
Ni 2.387881054394416 6.389519227609324 3.358534597222133 1.2664886504742252 0.3812436909761047 -0.2690967990665043
Ni 6.256217043351135 0.3268835025195463 12.862833060199131 0.1399644283425009 -1.2885438305020518 0.15108419240474624
Ni 8.439945630112318 1.4416881501185717 13.131699678916156 -0.0982469939990566 -0.3407575579366003 -3.0427319270144757
Ni 3.379822306361973 7.108210110265028 1.0089803676114963 -0.9873570928795383 -0.27612053868250513 0.7543033034795202
Ni 1.2704114816517347 1.480240547439869 12.128199232577677 -0.18608693373217627 0.23456919760327985 -1.1820682779456158
Ni 7.113597751863603 5.449030885026091 -0.009977390254525301 0.004068256532102671 1.9622852159671047 0.40161762664676637
Ni 9.056196752961188 5.146073917488178 5.164472993182692 2.122153325212068 -0.850966755041541 -0.7419064724770643
Ni 0.400995266509368 4.235655699121217 2.9915523137459887 0.25734042986152456 -1.7503005885325598 1.105306964624161
Ni 0.5237719751739386 3.705485666519489 10.285099159237873 0.03276073937078874 0.08346675036608851 0.7637407947433362
Ni 8.413613298769796 9.039185600854958 0.9726221758824218 -0.9217607950359673 -3.1490149039441317 -2.247824219750032
Ni 8.100962304826142 2.161553501358047 10.402765065327188 -0.06688673452022029 -1.6917300871875187 0.49088350019313526
P 3.9465127192114875 3.0796803349534208 5.243572520181853 -3.2310132972948096 -1.011787972228393 -1.8321886815576187
P -0.07402228066915337 1.9935019609069666 3.4619726553251717 0.9050432251709705 0.010735384139633125 0.6008855778455909
P 7.150472336922369 1.5115503884945687 7.301173434343018 0.07382794172474381 -0.4645466620708193 -0.11406159243381
P 0.5589174814843717 3.9172162528718264 6.675610453437094 1.859595612815662 0.4494614856029227 0.6620384952058276
P 2.429388265533617 8.161587254578976 11.608543490154483 0.3466890929296868 0.30751062295801235 -1.104793258212536
P 8.995320131368976 0.45606386131944837 10.559654493642809 1.8490975414978155 -2.568660613282673 0.5955903908849226
P 4.206293984526902 7.894377009412238 3.6107713000636945 -0.7261155281913946 0.551618870399979 -0.3587725064567821
P 7.988800555075859 7.496865999701394 12.81267020202111 -1.4073179979201829 -1.1809971563686241 0.3741212209987105
Ni 6.061217973727939 3.5112229700559596 1.187419430203499 -0.22653244334173242 -0.9904118205454621 -2.5904144600199968
Ni 0.9046437478300792 8.955611907822378 3.4335551761874927 0.013369222218054392 1.2245917531301231 0.6828382055599983
Ni 4.98356847868269 4.865580991909726 4.4058007764287686 0.05734485646805607 0.49934988579293355 0.21292565119157525
Ni 2.6044866174873333 2.1400775043976337 3.1183315367746225 -0.46354676005139517 0.2506275366177232 0.2977782261615968
Ni 1.3912885339879493 6.194417625014529 11.582963377976332 0.8259342375529454 0.8914837413189808 -0.7760057281536183
Ni 8.560673543580751 5.679692786407334 11.100319241946677 -0.02926506751270444 0.6128242382647059 0.31241757334132647
Ni 3.992633914072653 1.5226425917857542 12.026876150043352 0.6815439122286069 0.6734912171274595 1.8646591433814983
Ni 7.098972821641865 6.7306557452990825 2.2781316258304845 0.5612558792691108 -0.8452751039734023 -0.11792647470585496
Ni 6.799623150468396 5.28527640820294 7.449835057746767 1.2276534227745826 -1.7406309266532798 -1.150764839846644
Ni 3.7531448559546416 3.2593926706291003 0.8338577805917657 -1.1813555681493075 -0.7188243938466201 -0.33314580702761337
Ni 3.3452314102160994 0.704141453985777 5.212685860664481 0.5193240149220153 0.3932443149814066 -1.9925635552356715
Ni 4.6859339044887 7.719101555053031 10.257322977231652 1.4831945946438392 0.9012490482358608 -1.112860865712019
Ni 5.797931945019679 3.0655401060519676 5.9454918050376975 4.189879224713191 1.2028546185633477 -0.6785627181130959
Ni 2.1047875198090384 2.353374048861668 6.436949116035265 -0.7551461110957898 0.7922152480339453 0.08272421577310915
Ni 5.402751230117909 8.26537858537507 1.7954604583810452 1.4443544818481902 0.15223476106942171 -0.18447433782941777
Ni 0.1445873359595666 6.73608999279384 3.086272272909325 -1.0095521409193389 -1.3453438702102314 -3.41757614222214
Ni 5.129594072598417 2.8364628051408936 2.9972950922734674 -1.9907033620984813 -0.7213623297771254 1.4656010499317922
Ni 5.788750583471932 9.067428773940918 6.540890517817063 -1.0819842307378205 0.06525331268185537 -0.034317799445263475
Ni 6.117322151551171 7.170009528601634 4.565117439817522 -2.41131218513577 -0.5238357867494398 0.9143742727639091
Ni 0.38811712527650916 8.650921200946515 12.577228399927497 0.9547465059333685 -0.5934471192896746 -0.5480419516819982
Ni 4.4099897143775575 1.7827687407329122 7.0242439955866 -0.4982268279320839 -1.5508991970796644 1.6714014029324957
Ni 7.478363458917357 8.246559124496999 10.759571417431072 0.3858832466306451 -1.077044884454674 0.440610462970196
Ni 7.13903524999944 3.9296693483315104 10.325453340505545 -2.015515278935838 3.588552959785755 -1.2241716348735692
Ni 3.4496099753040794 0.5041676710041726 10.158551101454298 -2.2299619947576304 -1.5438127225465283 -1.1531012012893043
P 1.030950387071433 7.4277680980227725 1.1511740247431836 0.4180132943959704 0.6068669922400064 0.08811453355074501
P 7.093184369336127 6.421220558191949 9.165773739709248 0.5147351099997522 0.8551846497776304 1.7137780681264936
P 0.6095762263977631 4.47707424134114 12.504704964879538 -0.32528825865640754 -1.599781267492348 0.4997324659433328
P 7.0867341133046144 5.223560880479461 5.2454954794583 -3.0932368777425627 -0.23262775760619292 0.3166784055002095
P 7.907846113408676 7.923701439289607 4.061737408458816 1.4272880132842065 0.621702257480626 -1.2311789194293377
P 2.4092265548455205 4.864583625731443 1.579746000023117 -0.7524461956661235 -0.40816416951603257 0.8634327487190355
P 7.608878610583897 4.468097945736592 2.0176009377044717 1.5218004799414953 1.6240789636974482 0.577365897457096
P 2.1136519612627502 5.110849181154237 9.639154487813876 3.945366285633637 -0.9860663990925728 1.2831902794996224
