# total energy = -340862.5097578312 ev
CRYSTAL
PRIMVEC
9.28852656672748 0.00000000000000 0.00000000000000

0.00000000000000 9.28852656672748 0.00000000000000

0.00000000000000 0.00000000000000 13.59469752906214

PRIMCOORD
 96 1
Ni 1.987521715690326 6.021203613960503 11.936321110696445 0.8761939050394459 -0.005964702223867147 0.8100746448128695
Ni 0.38057321729516536 4.8046667399774705 2.5541849854251404 1.1845054266321988 -1.8991602624821615 0.08456512563658984
Ni 5.270430605605277 8.269184897217624 6.598444657510268 -1.1767049567511734 -0.1780272966524934 1.787129070214819
Ni 3.145819529417169 5.305912776287677 3.828103588681643 0.6536960367784032 0.5119277224579442 -1.5972330471491976
Ni 3.346098734719235 6.375941724047285 6.024911593682077 0.4588619529812162 -0.04490611648407104 0.8148630673404482
Ni 7.060849792007511 1.6537849636959274 8.586370424097108 -2.0743734867246277 0.7669955542352082 -4.289038189003556
Ni 2.8754769698069 1.5633518710875927 2.046410043938845 -1.016986742820513 -2.395984039419132 1.7566967218668905
Ni 1.167409858082716 3.8650394137388577 7.4229490592319385 -0.7326199049688157 -0.2931875214671209 0.1285235334954109
Ni 6.749767755796981 6.675357371153865 2.9605719463180686 -1.0109824456079621 1.2167483458263044 -0.38902667735563323
Ni 4.570540144631775 4.252891120287093 12.822681524837583 -1.4542234042224695 -0.7267014826018517 -0.892315750301973
Ni 1.55252144935574 7.240174081848978 4.605747374934018 -0.5553893931860048 -0.9894319731306961 -2.1280673767036578
Ni 8.131872612087282 4.8024746477573 6.652959018697442 0.33961753079488605 -0.6553130035565359 1.4690915795835537
Ni 5.634577992891344 5.591795040492619 7.03578563248673 -0.5921155449624448 0.3661896248564597 -1.6298739731126703
Ni 5.961599140329886 2.285246850999996 0.26849414286529594 -0.3385808620002556 0.737315253561956 -0.19586766726802396
Ni 3.1155017793890667 8.67892966038848 5.584729258493117 0.08425787880881619 1.786337427551459 -0.5772234583419608
Ni 7.222284380086072 0.3395653022831957 5.923427012414602 0.6226065144624503 1.7006459016199098 0.35991433337070916
Ni 7.558380417775059 8.403394814544844 9.812421535627257 -0.035269878945887644 -0.14846783782782172 0.5418687329917508
Ni 5.569669770711082 8.501797462767184 4.3403927539772695 -0.5248416023061347 0.5643630574395249 -1.263760452909785
Ni 1.2205866714745315 1.614735998892575 12.057517802598003 -0.7007425966442448 -2.3463139258875136 1.8718654313219505
Ni 4.343017691525659 8.13093447092526 1.6363801230088386 -0.34704364805562815 -2.8708289980921653 1.761337820183328
Ni 0.6542317808147581 6.276545203504783 6.460227669912789 -0.627148625307178 0.11717442703117883 1.2840071189739628
Ni 5.730417007839249 0.5845799082241543 10.419125784780315 -1.2770535704742652 1.5227350759406226 -0.1396381553513337
Ni 7.37368735969945 7.256716947290169 5.843544756894785 0.8943124690170274 -1.0769438401004356 -0.7447799373701174
Ni 7.8359773164698705 1.3972451542516389 10.416841736149212 3.8015850546482075 0.6583361066535759 4.870663375957638
P 3.5906284795843764 4.931520144430226 10.723021288148706 0.09994829296087947 0.4939551971399236 -0.13055624765472354
P 2.308802553840458 2.1116721589732963 8.223092442878023 1.152080473334274 0.20372444430828138 -0.1774220589683267
P 2.088320803712681 6.7503900870628755 8.038599088119083 0.2819032068025532 -0.18121469324153952 0.5253882188382242
P 4.505186073186393 1.3382165692551344 4.44591505765198 -1.2705833893688891 -0.3187121481007866 2.793088865797209
P 8.653989967120879 2.8541598018183905 3.5527972405863806 0.724194657019598 0.7651124782798823 -0.7426230389281147
P 5.778940269526384 5.980343386517604 4.930524414404793 0.08510094353540183 0.004503030076676116 -1.2114978960606426
P 8.921146562190817 6.796126790843015 2.936277805632253 0.9623322887004265 0.7639673089318455 -1.0908740770282825
P 3.667138071184094 7.496128714132798 3.787632550493088 -0.47241758017846386 -0.2095888735088584 -0.25783331033754303
Ni 0.7268104680603421 0.4552028111602974 3.9585720875924064 0.25609935836557185 1.0793354802610635 0.42198076368415066
Ni 7.586979790427181 1.4546203815566596 1.8267466129830885 1.279602047927732 -0.8901292841736155 -1.5678805621290095
Ni 3.8855020373025555 1.3107318197658098 6.843720271041849 1.1723119698898004 -0.3706481748484456 -1.2134635044274455
Ni 2.4818570883911852 2.2071396328669346 4.356067142204115 0.4459948672105609 1.0498827222175853 0.2011021761940859
Ni 8.293065698480568 5.30587562218225 4.423075500193616 -0.07917557918990235 0.4448047035572017 0.10704428057571241
Ni 2.7740555505186495 8.075872086683045 12.921256939650156 0.15434126588946323 -0.8145558205126746 0.06254594105302132
Ni 8.044932005389047 8.616882304326065 3.689804862052225 -0.877142127885328 0.4653228781152115 0.4957385142925913
Ni 5.089202167860699 6.541974132672386 13.286233792339873 0.06854920982430775 1.3663466977141436 0.17759252310791995
Ni 5.6003683503198065 3.247649643865112 10.688422456322824 0.021792670395059242 0.03990197840126031 -0.20243555029352878
Ni 9.559565555736015 7.2483665620955415 10.382310710565736 0.8697167819555344 1.0468228523453391 -0.5369800374408816
Ni 3.3594835011991657 4.771060851619114 7.948302536848191 0.5244230267114774 0.904500722403939 2.4662741431939463
Ni 8.8857108341402 6.216197647765635 12.327141430268268 -0.828774792325534 -1.0758673192068053 0.42196687972707975
Ni 0.5046725736831743 2.3446469770507665 1.2068963124774665 0.4808970784043846 0.08591546901689719 -0.4795392788249096
Ni 5.835711742618223 5.81928033949331 11.071576026239867 -1.9992075429147507 -0.1980443632043686 2.0296023531565237
Ni 5.135180373326111 6.9987095506815304 9.372401749649539 1.1691384572578252 -1.184443977266644 -2.5947328848896922
Ni 3.0203965580233376 5.685915678064545 1.0472135404697709 1.0850081051658087 -0.5933206210141394 0.2635576144158299
Ni 0.8444747333884646 6.444658242033773 0.9516791891863647 1.4912948551534704 1.2726335870296985 -1.0413348326475742
Ni 7.984770220177031 6.121287485453396 0.9153536203107818 -2.5344302313448934 -0.10453848343472319 0.07331397820280278
Ni 9.08753193481747 2.5591840703102884 5.702118583441083 0.1824439376629503 0.2224274200344234 -0.8064704724013788
Ni 4.478899543597077 3.4264537762306055 1.8196093093306394 -0.23817748377982853 0.1262249672692213 1.4393405735733662
Ni 4.58921008260864 2.728188807369517 8.566372226851245 0.32265673457083144 0.6801940830689318 0.4538431596103862
Ni 1.282940548906716 4.651396766566405 4.884261980032867 -0.916971086956808 -1.477941573775016 0.7111545360061883
Ni 1.548155841968115 1.2807856107919737 6.286514578843375 0.4766946102872629 -1.4931802451016414 -0.3937266539344639
Ni 4.77636460016876 3.7502425164970328 4.597726732425051 -2.4632505258762736 -1.6955273494464216 1.996053570666801
P 7.070509859418427 7.6040521018707015 11.986199568379014 -1.113984694903817 -1.0916178971728425 -0.303189112764523
P 8.071794423612475 2.2819587126697427 12.959661280724356 -0.8521882861534678 -1.3774818883953568 1.7433964052135589
P 0.2503174256379695 8.444273619040457 5.735955756105719 -0.6881627030967051 1.3633251372790005 0.5598140046162616
P 5.86859312592076 2.3556631693097523 6.791122132842053 0.4967479293937122 -0.4113993886238786 -0.246004436023415
P 0.8150700455012209 4.5033933875995595 13.094439655864607 1.0496762626337341 1.128924346932785 2.523410483195622
P 6.088099580781089 5.072213453154388 8.904798755803114 0.2521239186575916 -1.810772934886004 2.232433082005942
P 1.6741639905224155 0.06805053064671755 0.5645975014730954 -0.41274433268754723 1.3523298146097613 0.22276346321760346
P 6.23827647491539 9.057102722473088 1.6662752450877132 1.772834765079334 -1.344785169493284 -0.7853293195473895
Ni 2.8950386063140026 2.7571597210759053 0.28251517340065757 -0.8705246225688105 0.8576714207552262 -2.6723568033217586
Ni 6.317637644106599 4.456950755816315 3.3533493583932352 0.6160108635228035 0.09123456723696545 -3.297473742910889
Ni 2.947165816227517 7.422675047704417 10.166998025355433 -2.5652883543763303 -0.8159804687743432 -1.353938810968094
Ni 2.151640687885957 3.5544218038461586 11.748238669353295 1.688101489295996 1.1513556793531072 -1.0259735197001556
Ni 7.030346271452276 3.436708309328346 5.242685777377967 -0.9216371249739095 0.5648641654456595 2.5802352054941498
Ni 5.2043891832095035 1.299009699503719 2.583019357794085 -1.5498992950602404 0.09450295357559207 -2.943539538383015
Ni 8.916047161221016 8.548054324023296 12.491460105780565 0.9775388212375358 1.2595266173340953 0.23120568044768572
Ni 0.9596905431689744 2.428095097838901 9.821054292023128 0.009082164806926293 0.30883525530670686 0.9336035533071664
Ni 7.787324015413744 3.7919108457329602 1.5187316481755222 -0.8804290261667159 0.040788751881587815 -0.5679890842278863
Ni 6.8700727491682985 4.14069501042513 12.574836704915754 0.7113720513336329 0.9111693926733663 0.8226259991153186
Ni 1.0282863103128272 5.144914748947879 9.885832474834398 0.5307690235341632 -0.7197993561653797 -1.1827398500913437
Ni 4.244856544988592 0.5139908233241646 0.33008914769414244 -0.23867319246932445 1.655324551975291 -2.056545200293955
Ni 7.781500109388125 5.314736876326493 10.362068225076689 1.8947042835933368 -0.3855127506651038 -1.1554568460056744
Ni 8.942853848286305 3.634061628828067 11.62527437088607 0.06826536003530179 -0.22026357961388518 -1.7646303748916707
Ni 6.828125764141672 1.800348621077492 3.849066863815964 0.3247421563449504 -1.0804158578094363 2.294951769365454
Ni 0.053676536109803226 1.4615310451660064 7.955617251354052 -1.284623412401723 -0.3665066418762462 -0.08782039934909391
Ni 6.468028174347103 0.27871059300497414 12.730862584096837 0.5875927173914267 -0.23995257340238027 0.2897116471033785
Ni 1.9918966116043075 8.409441645203023 2.5262757502813167 0.5449879953470227 -0.41221082878158044 -0.7036967941765623
Ni 3.1663750382444333 1.1195553702932604 10.234876718264552 0.05253252268107727 0.15526326348310035 0.6808425152862081
Ni 2.385405030703742 -0.1619946862178655 8.148172118137929 1.1606363333240848 -0.19952866105937894 0.34305869526595106
Ni 7.74195885268787 6.54320950667782 8.187528533163686 0.7359489693420487 -1.3839096462985714 0.7314161144687017
Ni 0.3465307681980468 8.211270935383917 8.059262343852085 -1.4624928433201136 -0.2207297206170263 -0.510521843249353
Ni 9.035952747958998 8.758523042738606 1.4640807456509066 -0.2219193700497533 -0.45862335460784887 -0.18605453783234407
Ni 4.668106825482017 8.03649802345721 11.369667129487988 1.3795714239345338 0.6093403934811635 2.2614235557010214
P 2.3607718588059092 3.668717120664725 2.4634267943943224 -0.47872423912278195 0.3007630198215336 -0.16837331850249715
P 4.396798259130656 8.829738174315034 9.141794576940377 -1.5348498569262856 2.1303209486245245 -1.216683296916324
P 5.502783092416852 5.0139372387927725 1.0833877063657404 2.2613435943927054 0.9843543014974724 0.4214161494299322
P 3.0647214057972665 4.200503831635593 6.041184163006291 -0.4012491875637541 -0.7230626002976838 -1.982208951474225
P 0.6791278180084845 9.391628999207802 10.662810273747 -0.2430641224481685 -0.09016087455681247 -0.9799962816390929
P 8.380043459284229 3.4886683257674402 9.310178840438981 0.4471292379253202 -0.6779721357169485 -0.7516542958924474
P 4.454851548859712 1.7938745182069076 12.040700925629288 0.04657039156037141 0.4741721009757254 0.2606617809252737
P 7.076175860495983 8.399047784209934 7.6887532448643485 0.034217012201341074 1.8712177704356223 0.9232121827705132
