# total energy = -340896.5075185173 ev
CRYSTAL
PRIMVEC
9.02708860606972 0.00000000000000 0.00000000000000
0.00000000000000 9.02708860606972 0.00000000000000
0.00000000000000 0.00000000000000 13.21205664708785
PRIMCOORD
 96 1
Ni 6.4818015804742775 1.9766074005269487 11.62468102540966 0.10511003966747703 0.050397478615945464 -0.1308177288462263
Ni 4.642947550054019 0.2915451683043729 6.312800040907475 0.21628711146464039 0.39094369187268796 -2.2803144790682532
Ni 2.6355036153013525 1.5344606070914526 4.912057695375027 0.6584857448575627 0.3022781709144794 -1.0044086490451862
Ni 3.345466069570746 4.41006672161284 4.793439947414612 -0.5652362040730976 -0.7013989992813212 0.2631704062797403
Ni 4.903911650736475 4.739835290640854 2.5254056334422943 0.3293403172385941 -1.0088959953925785 -0.35146517416209144
Ni 6.903204124597508 6.122279727837375 2.6376683111173143 1.972153881231068 -1.0971969339225167 0.3251807865442658
Ni 5.204089423748125 4.266698502475589 11.661462800104072 -0.43027745647530413 0.9137371534005426 -0.10542422847378619
Ni 5.614668488791543 7.952612186738583 12.34794850538025 -0.18149828592022935 -0.06564592013458372 0.38317098990580456
Ni 2.0407358370431954 6.43867917883603 0.2177712877541158 -0.8900107563178801 0.5353887816943618 0.8428011885116131
Ni 2.783520785002492 1.6578067439943238 0.5072916801138668 0.11840932787954446 -1.0294337103346143 -0.08404550568769396
Ni 0.5722542196050715 0.015909340725821113 4.699317204027231 -0.30641147635656263 0.2252630897110056 0.03451397461646959
Ni 8.73129786555727 2.435526524346339 1.3744762262009 -0.2748097902908816 0.40019400682636236 0.3915157623260741
Ni 6.80074667042248 0.5114089351666624 4.632239617706669 0.029484639722678258 0.8517329437836041 0.5439554403174504
Ni 0.8041727604149673 7.47649645937704 2.5067899715920965 -0.21311231328108457 -0.3012042211240103 -0.17195666497838127
Ni 7.612489547231384 3.8028235070842085 3.7344144252137945 0.17893078230336926 0.588730944760928 0.4656383524731013
Ni 7.630399290762948 4.040226906850646 12.747586739193702 0.5955698220596324 -0.3593970274146585 -0.16610277730076553
Ni 7.798447569786942 8.780739229127018 6.880654457590528 0.024491557383461045 -0.19870642226839974 0.018973455778709257
Ni 6.97844490702472 0.7744474607803462 0.4480207199052485 -0.8587859939756436 -0.5757741274899438 -0.4318756542003594
Ni 1.9253786734394347 6.52296510391376 9.105300070814629 0.38981523469519963 0.03910159398715202 -0.7261900901830719
Ni 0.07250738003741508 4.927138349378974 1.4327289308296998 -0.17815379492802866 0.37680699536098977 -0.16884768703575437
Ni 6.471555835056775 1.8168369616332198 6.8365128976636145 0.42768964114346986 0.3544340269824283 0.3534071283798107
Ni 3.3626897543783185 4.2538980910200666 0.2741635094485124 0.488047830516553 -0.3358745188126861 -0.11913412186071096
Ni 5.760708726116971 5.527782762233425 4.8893193622189495 0.5224946993405131 0.028985074378440404 0.15619605971001488
Ni 5.4723383848287535 2.819737463958458 9.604768876057298 -0.8821151556198872 0.40937721598752724 -0.11785679781018413
P 0.2549222703670963 5.706555222364021 12.353801669546513 -0.4701956328264806 -1.2315406736441306 0.8520016240639585
P 4.033691294795781 6.1006959592970675 12.530856274740588 0.050980861923241236 0.4111692748909435 -0.8611092427921815
P 2.3701974850631076 8.405564405076943 1.3991174696072062 0.7062110759579837 0.7108426611927242 -0.7105575258521376
P 6.130891570241162 7.609790447777787 5.8019426608465485 0.4447594521415631 0.3184192994507161 0.5853769406870305
P 4.711011797144742 0.9902445242852921 12.545653478166466 0.19241441861210087 0.26720626691201077 0.4069323539914605
P 4.167210960408366 5.801619491079194 8.23047680246126 -0.09693084629079436 1.0104085753823633 -0.7078334420527551
P 4.735583531969802 1.166209559900607 3.7386688920113884 0.17010135693719736 -0.17837928067527342 0.4688766569047409
P 0.11515044327771602 5.717622432832618 3.503942926686212 -0.7241077537327465 -0.7257627728376662 0.5480604636247594
Ni 1.3910562796003076 1.0236357245490304 2.534124898198916 0.5216603763646758 0.28434884012956835 0.08151374040477574
Ni 1.8215039663740558 6.516032299966058 4.641937418853827 0.1855349178834482 -0.04816344707910415 0.44360914058720374
Ni 6.275749258976552 5.469196958039951 9.163142042917881 -0.7333038184097177 1.015310897779987 0.7163358230968114
Ni 8.680042057204336 2.289242555632125 10.44121076963874 -0.08083805449398981 0.9053561284256989 -0.6777713325600521
Ni 2.320720013139466 5.1886440753698455 6.960349205470601 -0.0443849538732784 0.16009205233031137 0.2404331125832246
Ni 0.402542248175399 9.067710371701832 9.550097217425966 1.228851813958058 1.294556612355035 -0.8328659316757719
Ni 1.6944657502854945 1.0562054597616737 11.485346109402402 -1.4372132428177185 0.24937463804722856 -0.5580926510497808
Ni 4.137900004134682 6.970392744106295 1.4715056920767702 -0.21239060462371162 0.19378815903117594 0.30893218589588733
Ni 5.4182570977835915 7.752246930979206 8.130026070053907 0.5457888939817632 -0.2790827066346226 -0.09350973642438734
Ni 5.213992139803632 3.0600475862133854 4.958062446362884 0.07675360001197104 -1.4278243454036506 -0.7186747556426333
Ni 0.7344213504885334 7.431054096001085 6.739998878539585 0.13390690929451132 -0.5542786766203293 0.6204095068111315
Ni 5.385272116501163 4.045814674615786 7.471656134537512 -1.0933729321907362 0.6621148569697177 -0.5041249385840737
Ni 8.1846264146863 7.326060029964983 9.000119144047124 -0.9245399004430013 -1.1511633608366432 -0.1453758291660593
Ni 4.597044805165911 0.32981731530577085 10.313675160975285 -0.05495270208679568 0.15765490364372847 0.19510662073228335
Ni 8.077637362097539 7.296929615460771 4.709133260033393 -0.4843202451533207 -0.8600388925461381 -0.157915870614599
Ni 7.229677806332669 6.057176365765983 7.000777923908335 -0.36960662095780866 -0.1596865893617766 -0.7327587445395252
Ni 2.455990933915924 5.1976440825779955 2.324172874480607 -0.4800930944458505 0.7660982392319193 0.8990908642422774
Ni 2.2592906760768168 5.229058350466021 11.325599140938705 0.33335920859000007 -0.45744193270523803 -0.17230556367736777
Ni 1.0551131820563715 3.5841332617234833 3.594392547773696 -0.30746280043921237 -0.4393701628051917 0.4389117351115345
Ni 3.5080619871567023 2.7915458666554964 2.7589156499500804 0.27725645205916116 -0.4684279994030965 0.1437570626157137
Ni 1.1139427176386323 3.2873677281548446 8.07051860012728 -0.4691638491278565 0.22886623368123163 0.192468668888804
Ni 3.5584331408392273 2.7354425117922543 6.91643242004668 -0.7615815823084884 -0.18696290857922637 -0.14527787013561433
Ni 4.006483650136438 6.8852402185351025 6.182119394619828 -0.2596030006434561 -0.23042560774855156 -0.5581839252120064
Ni 0.882733705982759 7.2763659079179765 11.129572303899726 -0.26461485203575075 1.2466353631937241 0.24333897337610993
P 0.11966759834989082 5.539183974975545 7.864133179064879 1.1393136605869087 0.5493357307927572 0.4567649612428714
P 8.531474235106307 1.5087334049417762 8.11442184491849 -0.49128227829345067 0.5362020216242765 -0.07931853252566984
P 1.6627987239202082 3.2327809241551617 10.367381823848794 0.43254928322861635 -0.5475650120455795 -0.3094548911685767
P 3.903990087607516 6.140333904784517 3.8005270157765323 0.019338552427611858 1.376017130924372 -0.40239949911811346
P 7.062514181979084 4.009588968571347 10.578563337017203 0.4138241960152873 -0.43553561955044984 -0.633125154605587
P 6.273537622300527 7.811807660727826 10.185200735110579 1.1203481752279996 -0.32040316264996427 -0.038441591805649926
P 2.372057065288663 8.597507387290479 5.739700885821278 0.7509408147651906 -1.003186346602311 0.5519559420244236
P 6.815108768183931 4.020132607908478 1.5967168254582809 0.13754013517172442 0.13761135472929203 0.21038797237138607
Ni 5.248583942834355 2.758037314241602 0.589969880734454 -0.03648575363085974 0.03855780566854005 -0.002601185068272939
Ni 1.3238405788260996 1.021496304580794 7.129806613005319 0.15256900448038888 -0.2983137869500927 -0.5827582721172608
Ni 6.809945273577049 0.7726095455671271 9.25113449052286 0.179054195255111 -0.302927117352388 -0.21197948522822205
Ni 2.7823201822355075 1.5072439353436369 9.061039353319863 -0.18473299080744315 0.9871323784632419 0.8240902423656711
Ni 6.56702632275326 1.9678782059730058 2.567776078610693 -0.8075030274309514 0.0591752248085755 0.43235593627088764
Ni 4.283245155647645 6.829191026202702 10.338236063294175 -0.539595877797174 -0.5212423149906507 0.08022124684559732
Ni 7.917460704222499 7.078808076673881 0.36661443605058736 0.4972325823396146 0.04649223002426831 -0.0008978292239210343
Ni 7.635878733466406 3.697242680297325 8.154943542367503 1.1648537138395423 -0.48411815644484374 0.41753121255322934
Ni 3.078327440372366 8.443812178939464 12.385179829080645 0.7401640358646607 -0.7694039065663847 0.26394816498602924
Ni 0.10443077571535074 5.016506525267324 9.947608669195041 -0.32795320708308034 -0.8617057387255997 0.7188025394697491
Ni 8.706310884662427 2.3094632338129233 5.846876799141441 -0.18794712686936663 0.4421546675288643 -0.554891884724296
Ni 3.5302595977132127 2.5560020471146148 11.542105733597673 0.5338921425441774 0.7369229032195438 -0.8513285092563339
Ni 1.1822506961181423 3.241338604028107 12.569421802117377 -0.827197420536085 0.7054207188462044 0.00921046285467446
Ni 3.060246182159804 8.508247536463811 7.829900654155405 -0.2807007018540198 -0.9868562419837199 1.0672245559301425
Ni 5.5552070570161325 7.780808638909584 3.624543023275423 -0.3441295597326267 0.3048711284526362 0.4046821245047031
Ni 3.236256353217487 8.2469945689502 3.6067858375390616 -0.9052026335669701 1.0909879768983275 0.06909454080481647
Ni 3.227066777151392 4.188207968197892 9.237539695281662 0.8691398264061418 -0.6311472049436098 0.002596557082582625
Ni 7.264242528097971 6.132119254273567 11.32233584845551 0.16892687701312198 0.33914213382036434 0.4229845223583167
Ni 0.43756554603515885 -0.2744126570903829 0.15726542184231307 1.2995959745511554 0.7804941029422752 0.2012749543265243
Ni 4.620009718242676 0.37463410145050763 1.6380834583884187 -0.04123458116975479 0.2089576676827627 -0.16972160500027547
Ni 5.937612578933537 5.751320554104457 0.3697892630667422 -0.2807618941092584 -0.7553877947929506 -0.08717402401434664
Ni 7.90902037649971 8.832220714691791 11.39863550836067 -0.09276077407350476 -0.25408001394269786 0.2209346375389808
Ni 9.106617123022922 4.8880149479345185 5.763218256712625 -0.5351566110788978 -0.09076662646161142 -0.8602800620226668
Ni 8.030660393681076 8.96954078455175 2.35777079507039 -0.030038712453935364 -0.566551066229779 0.8420429701893499
P 8.600883518379595 1.6648117646498146 3.6362746274556756 -0.80782055867137 0.2589211440850831 0.04596721075873374
P 1.7695440451201827 3.2876204866321044 1.5086711180313084 0.193722338790247 -0.2230313721670094 0.09226866492843463
P 4.844278704280067 1.315716199199886 8.175408854645935 -0.7203783685973013 -0.28066316374786504 0.6172799600432144
P 8.637109224424034 1.6785509933065892 12.561507753652599 -0.3113317964763155 -1.0248278361314866 -0.5630407390836755
P 6.252603804130316 7.835928041129208 1.5323347277559267 -0.02714287896337906 0.4804162821132242 -0.9112498682023144
P 1.66818789573893 3.3558652754922993 5.753494277008894 0.825955577709184 -0.5119737452045312 1.1723991302869678
P 6.938942367864375 3.8474805137629633 5.97856125766735 0.5062005901661797 0.7263788091551103 -0.5528442581666478
P 2.5023540603161836 8.503761073492445 10.088977388235397 -0.24060691915692756 -0.21304160794414922 -0.041391675572909355
