# total energy = -340861.7190669902 ev
CRYSTAL
PRIMVEC
9.29097944796193 0.00000000000000 0.00000000000000
0.00000000000000 9.29097944796193 0.00000000000000
0.00000000000000 0.00000000000000 13.59828756868729
PRIMCOORD
 96 1
Ni 2.517957678388501 5.787183969027037 6.90982046955958 0.15412657877549585 -0.9229370747322556 1.283913530818892
Ni 5.447412844243662 0.9618393744072794 9.966592716471455 -0.13234059324865596 -0.17544642329919463 0.5261988876649776
Ni 0.9249049431151997 8.999521591438922 9.476714666716102 0.5089490994455944 3.1678459206077054 0.3365383776489301
Ni 8.382619126484956 2.865068677073405 11.66859519518637 -0.18747532943927067 0.7771514117222874 0.33538420943982883
Ni 3.3423184273262803 2.791066024382686 5.81532170081283 -0.1052913024403477 0.8239717145099357 -0.7748937260363622
Ni 6.675578149520928 8.2422695883122 6.4145294950763425 -2.037366313372659 -0.5604655221573316 1.4834614751519806
Ni 5.506772913049813 7.8998691162957435 12.301963134226776 -1.8126889209617942 1.8707110060025331 1.0022455799555965
Ni 3.4562165465146704 8.866010214268096 3.8516610793901145 -0.6253215994007683 -0.14258592512574797 -0.02801602559695175
Ni 7.8354175906566335 1.9776035945417316 0.1708267386274155 1.3149662863596385 -0.9202960375649827 1.4379087262228463
Ni 0.6947404340327252 5.0488855643295745 10.956902439735002 2.0551359786512537 1.0804402832894684 0.27244643226502757
Ni 0.30282833160963624 1.6323693737405096 5.627760049689932 1.1745789115471061 1.1272783266889295 2.4505988985505343
Ni 5.984691613835487 5.699347047678882 12.862252873048872 -0.8183235150852228 -2.4198873283992905 2.717021493218985
Ni 7.879363924269578 1.149898092939965 9.95556525275788 0.6655866175684021 -0.627772632044422 0.45103860028205545
Ni 6.032391503215794 6.327565925812673 10.80874847867961 -1.3277009603174874 0.10765028959082751 -3.2977246825794304
Ni 6.947571577960451 5.718374973945121 4.3857604757552275 -0.3530050078453856 0.9097136340634463 0.7018743962558429
Ni 2.9481671988142444 0.44753812651908426 6.077632070290109 -1.3781907415369232 -0.22145348615692828 1.8060608741223152
Ni 7.895976195834048 5.043125156963819 10.507315652209224 -1.7736593178631583 -0.6493945811895719 -0.9551334569591421
Ni 0.29144781067041947 3.1037353616081425 9.499288030806168 -0.8538060242625489 -1.0920971508021062 -1.077918545308879
Ni 6.166553248960174 8.479226732596455 3.2565719763931176 -0.8136909014092181 -0.18043513476303763 0.30739183799196096
Ni 5.15758073492954 7.289052242994309 1.1209297475759483 -0.3071807504224193 -1.4911156492631288 -0.21251838845082752
Ni 8.831438479093938 1.8381274084534613 3.4967726016634777 -0.07869144046463221 0.14139319036922746 -1.6315608738967902
Ni 0.6075315829070298 7.418707863621927 7.813412834519446 3.1955924945933547 -1.2601436820928038 -1.8946988842766985
Ni 5.710263948734951 4.323557367184686 6.697741781409655 0.6715760023826176 -1.976137034248532 0.8067311822619331
Ni 5.5848821787335385 1.9726329204438617 6.704227814283905 0.2918582611327361 -0.1323552485366753 -0.6097872512105951
P 8.210447983106208 4.084509752485438 5.394522084548437 0.39896527662558384 -0.06172884446836465 0.42264770784418826
P 3.7961270359923787 1.679149456138221 11.213624284969535 0.0759205625877144 -0.3281018168458027 0.13833974825488435
P 5.950974648786571 5.109564952242078 1.5982882022904037 -0.605816182377989 -0.9805544681354079 0.2623718216378449
P 5.902847374343642 1.6434163485112903 4.441554666582384 2.4690751029778513 0.5349563221426336 0.03513721002276529
P -0.0035407923340154373 0.7314909039282855 1.5435550413361006 -0.9560336001759084 -0.22736522365567294 -0.28846234807730964
P 2.976969235643024 7.8641360086688135 7.995630314163662 -0.6904671828601657 -0.9279838931275437 -0.42385252678556684
P 1.0865707758351388 1.5129245397176747 7.884463742984195 -0.9547501054777945 -0.582254593007965 -0.22730685961391173
P 4.957917582848743 6.969554035746545 4.524980230805926 1.2153797476135522 0.8487628054116866 0.8998714511620437
Ni 3.470338835540394 0.42724569792626577 13.060788100203537 1.3359986815499056 2.0791364553309095 -0.10511723875632864
Ni 1.9956466769680188 0.2817926246470428 2.325483886339352 -2.1806317810639344 0.49607789990988116 -0.1957270279251016
Ni 4.25058601323203 0.05688959732461277 1.8614970094971481 1.462043414487521 0.3344061617972757 -2.5047851547849507
Ni 5.513871221481164 3.853898347283137 4.267306060160117 -0.09379590020623847 -0.10650126358804884 0.2780699490993921
Ni 1.665073622010608 3.1181085070836656 11.36619703593324 1.5019988718345356 -2.1245835319201154 0.6375945032308503
Ni 4.415240754096426 2.0414326245461556 3.0995525625822338 -1.6873080468604233 0.34547039003123725 -0.27653551473273663
Ni 1.1661573072787919 3.9673690814089055 13.604134808586611 0.1565732405437755 -1.3188692209584705 1.0808231205501837
Ni 0.5959104255955984 7.584161628733833 11.678141676748167 2.621510410093853 0.8800829556812069 1.3618421249755706
Ni 1.3632096940857545 3.4452624815401114 4.282943707962221 -0.6935579059703475 1.3723335114251978 1.7874422305798636
Ni 8.921914038654796 7.215467684386589 9.694165399283577 -3.9959985059682093 -1.2638355291220944 0.9429492561881245
Ni 1.099503819469223 3.511237727837261 7.029321978558112 -0.236958780881379 1.078994551981877 0.25466031192620014
Ni 4.459382198281436 4.1177064226755125 9.990975034293959 0.7699479519953126 -3.149416253147608 -1.1036288055907895
Ni 0.8802961626551935 8.635287317310329 5.408556109267751 0.21854274026803655 -0.16057079173894284 -0.14695988582372754
Ni 6.863989925279257 2.9056330941038726 2.437806255383819 0.9210771387053815 0.6588598403675299 0.9436843345819359
Ni 1.9095471688092123 6.897818382083639 9.898996194230234 2.0599735092492137 -0.4830292942560391 -0.6652238349123447
Ni 1.8019390428250435 2.5232070818750363 2.276244481635648 -0.8124164055721687 0.5201118009306334 -0.6840157708078671
Ni 2.3218622624826235 4.389309629970903 9.401978955733192 -0.513819025943386 -0.015477012589676572 -1.7712656208200013
Ni 7.683240635424834 0.5353759769652017 5.226637799167369 -0.9432379910731369 0.8706122971866103 -1.6275188426169327
Ni 7.509963865471048 6.207145538929508 7.195683472379104 1.1982970810996525 -0.8134019094138895 0.8366809345464882
Ni 3.6712748518294305 5.650123437640535 11.124473619102803 -1.5655349447149682 3.125642033546146 2.717040776492695
Ni 3.9945916517019135 8.205728165458138 9.98199994797893 -0.32310564918279194 -0.023218604208308402 0.8315790945435486
Ni 0.9221631750286923 6.145323360523477 1.3737670342304455 -0.7643645443702642 -0.20019791921226165 -0.238138403011777
Ni 3.5911401525880686 6.18013666116781 3.1373835734078543 -0.5244415386542387 0.8505376379239223 -0.2990578642049688
Ni 9.151661382752234 5.68069076059753 3.5432107760110925 -0.05655372802532841 -0.6748523591410441 -0.03028810946058009
P 6.878781164837779 0.9337341610501639 8.102349293397989 -1.3992761014523127 -0.43030702416165895 -0.7213080795004223
P 8.344182343787967 7.5839943911006324 5.374723006973556 0.4421526106463353 -0.9238593294362089 -0.9259146693033409
P 6.261395568943458 5.603148244670758 8.78902236982477 -0.6408585186941027 -0.7885694237512418 0.16328819067010586
P 6.144152697091081 3.5382651875582027 12.001944394854888 0.2304718876054547 0.2795604176019895 0.40092934233049016
P 0.20371494829403278 5.639234409523333 12.86833196101567 -0.35480143762417604 2.109222476083013 0.7819583461926275
P 2.076441035762556 1.3326981170064929 4.3802537121331575 -0.4232352049165421 -0.2717051832236288 -0.9373105698451083
P 3.3901762633601655 4.2649127038094425 4.193181695636348 -0.2553701935090312 0.4335268166505372 -0.33476534490890736
P 7.20808135558695 8.665529455980547 11.193348580140036 -0.7401154420149125 1.7664180629197128 -1.3578664281572743
Ni 5.669987552072771 2.791158934178908 0.544472775113285 -1.8018841170368065 1.6070466908055097 -0.21529749385786143
Ni 7.667947682966714 6.325661274990124 1.2510136823641496 -0.17962857970134224 3.5665525442552637 1.6114029108916763
Ni 7.849177531477093 6.963291915481191 12.095745196022527 -0.5512128932108119 -3.751968934282977 0.18223490697593778
Ni 0.28231477770180974 5.892915317127524 6.176764035564957 -0.0023975536978990968 -1.398580618047185 -1.9550182499920463
Ni 2.875827631475897 1.5984572981195275 9.197745570776243 -0.28512454195332826 -0.2732234196403681 0.4582513159804108
Ni 6.283257243994463 7.992156416882927 9.03418530731134 0.8817050646656622 0.2354228038528268 -0.29680866315947596
Ni 6.46061275400239 3.24982672518741 9.847798251022173 1.723537975726735 -0.5900758888245967 -0.3123723219256878
Ni 4.0786657263030826 5.951244087195613 8.690787913181424 0.3453688314563665 1.0672785490965295 -0.07867909916945803
Ni 2.96543912993189 7.278376907408417 5.376097142859679 0.07827235064934263 -0.07599666724128848 0.6943621470391977
Ni 7.9371723994788255 4.486558313676333 0.2731287861493535 0.0026207254522987123 -3.266932636899238 -0.937503916802837
Ni 2.8643253987036297 5.557464497868466 0.22457691393769127 1.6848896672269176 1.7204020012009147 -0.8838812463813746
Ni 8.522290423145291 9.028546611778633 7.406335066059061 0.7023073700282033 1.988577316894414 0.7772961648302678
Ni 3.8358366828976056 3.5025971167886274 12.367329821358673 0.32491082071233074 0.05797297697035822 1.2337376812954495
Ni 1.0578616488025812 1.5265265338845564 13.335283589455313 -0.0015670873768037525 0.5262886191653066 -0.353443638044701
Ni 7.818693827336697 2.902176849684419 7.726234643626503 0.1632748209336672 0.16356844091468606 -0.8444235546063844
Ni 4.994440423743559 9.269889098444562 5.310784343409591 1.3184277625456777 -0.3034788760907999 0.8206603907485157
Ni 1.3842351809707636 7.446153417425868 3.342554418208684 0.20564351570786518 -0.3377794491448828 1.0252983480100017
Ni 3.6903306510345364 4.240997722261933 1.9980511824942404 1.5411254055223524 0.44561665793553573 -0.11850034493145398
Ni 8.098779699027144 8.596841243633719 13.429383560166785 0.3831139114156241 2.7243079995780692 2.0593852408459115
Ni 5.305762568923798 6.385485892777385 6.652173242754677 -2.3470991407929707 2.391497207292372 -0.7409369094749434
Ni 6.011523962984363 1.112120969796153 12.62159048609129 -0.3934651727429611 -0.8695841130324121 -1.2758664921446994
Ni 1.5392180120484638 8.592520938109402 0.08775980621729104 -1.2746650156374306 -1.3347771504379786 -0.0740904513575111
Ni 8.460589027474347 8.361240582374302 3.2993114117531395 0.9887568014405423 0.09995317805688593 -0.6022408063219048
Ni 4.511188700654751 0.14363389946919877 7.8047647906871145 0.41077075390094425 -0.4833277993330644 0.45116355589569396
P 2.6392142534376624 7.655042512271497 1.6374654760632792 1.6145787375164966 -1.4555058704793191 -0.16876232641079966
P 0.07698412805147865 5.1884360782548224 8.773723842778875 0.5326143042730181 0.11100120834093141 -1.2592885331813601
P 0.20867168592246949 3.9544360377748218 2.129192430763447 -1.2093499964797043 0.8286405807405148 0.17091331131553145
P 3.1211931123182315 7.82423125119152 12.2387993383633 -0.10128783770790942 -1.842910181740181 -1.2846640358316714
P 3.4554268132467842 2.4664670693223414 1.0708039834162875 1.115680337438685 -2.588949445438696 -3.1380573764913633
P 6.443926154600941 9.069668487586434 1.1909391372250513 -0.30912064775760956 0.24502278883643608 -0.630661523556443
P 0.4443327385494298 1.1978674207293158 11.210319483517923 0.8116898118187892 -0.1827270161210079 -0.27414310324116015
P 3.899303364696764 2.9394522599286335 7.85197783273522 0.5343955645431571 1.0147064314267686 0.6115109187699211
