# total energy = -381158.0729226434 ev
CRYSTAL
PRIMVEC
9.41444664386252 0.00000000000000 0.00000000000000
0.00000000000000 9.41444664386252 0.00000000000000
0.00000000000000 0.00000000000000 13.77899429014881
PRIMCOORD
 96 1
Ni 6.643454958595278 3.364384337382619 13.675831067054691 1.0841462713861458 1.9427612870015638 0.5476223476460763
Ni 0.6320294660509864 0.8777549984257919 9.011324817967292 -0.6546100639522403 1.170181553810359 -1.329819035101755
Ni 0.8344927914167638 5.7213193168902094 4.737617900864522 0.7580825680162944 0.09428209581403763 0.7393016878643656
Ni 3.344256250296835 4.00580000681271 13.0510083599673 1.5350177499627178 -0.30837785605431406 -1.836412232720663
Ni 3.1355097231906215 5.189252446104356 6.08665068760989 -0.17667232528649573 -0.2344288153706737 -2.049575453844341
Ni 5.145277565478678 4.536435881697236 3.2581536034918015 0.32722867021223 -0.6562982502879406 -0.02671221918386367
Ni 4.146282380757549 6.857162899122542 1.1685333655756294 -0.03624227016148597 0.14786260014365504 -0.19348785418193776
Ni 5.7611612554061296 0.374554704170541 4.0729052415829425 0.4800804960403603 -0.05421376703824212 0.26129710051642735
Ni 9.370650713124755 0.47447681731478025 1.7055089288809075 1.0479603083838918 -0.19039430285827857 -0.23897195465666587
Ni 7.099255396508385 6.485612344900118 5.910705975762931 -1.112958824742464 -0.269470123245523 0.21516173961094556
Ni 0.7556289126941715 5.497528503926614 2.4825472348593545 0.9998588248909747 -0.21867206675704923 -0.6373168240894315
Ni 3.6892957225578153 0.921670568037137 3.3887922319469794 -1.364903537509714 -0.3389698699085582 -0.6975192046109406
Ni 1.250916364481882 4.291443734721862 13.60660569888328 0.047904536990762664 0.27190058706388653 0.907375987069205
Ni 4.630872196738161 2.3698986726400157 4.92765792233956 2.0744925288009948 0.40041589302918135 -0.9322017878636332
Ni 8.446651010969273 2.6151732530169687 7.07625778606257 -0.2846974817182387 2.3482083146967496 0.01831139671467814
Ni 6.073833859846284 0.30290699885826367 8.116503310528822 -1.205698772880362 0.9258179958244764 1.603220375080884
Ni 8.117164204688514 8.814275740909764 7.736588020396332 0.37260658412639697 3.478139505627494 0.739770657080984
Ni 7.807871386620574 2.4907707540686306 11.32640222591637 -0.4982168006297549 0.2509766924270258 -0.4220671527503699
Ni 6.211962622111308 8.607308544233492 6.260017723945113 -1.83285074062165 -1.270790620283689 -1.3463059770131847
Ni 2.556963728951767 7.392703700747806 5.224292075348779 -0.5937908757823387 1.0356521804405003 -0.4838595034668184
Ni 2.440450536354171 3.338927673453732 8.956593931964859 -0.7636279233145558 0.0029164023158465904 -0.6562062047947667
Ni 6.9856700968404795 8.02998642806814 10.293446307544844 -0.24185159019730607 1.21810280297167 0.6159607270111586
Ni 0.3349857846094796 0.9761369080867598 11.325424064902238 0.2009008588165572 0.2806852752350521 -0.45896916798304177
Ni 0.7829609344095352 5.883906811731877 10.343973643087127 0.012338466960694879 1.448229391422564 0.2928735897711279
P 1.1070447897181086 8.126738697002004 7.020549680490676 -1.396457658166911 1.1696123115704502 -0.33532841650122897
Ni 8.479055536576974 8.431343120603751 5.522579405201901 0.793434465153027 -2.4645491900830394 1.2704478922322895
P 2.512772316051547 1.0518384741563518 0.8099352071495668 -1.9022152472584015 -0.2266571418450548 -0.20650817770100563
Ni 1.9469452393304167 8.57107233881105 9.663195230479126 -0.0672006662162133 -1.7817660061306926 0.5389772703765685
P 7.233495992278353 8.64676449043392 0.22565958063736885 0.5530589452806153 -0.2830712589687254 0.8520877560198615
P 6.017883802993706 2.9728563272219186 1.9841473669862555 -0.04567719032214069 0.9073394774043148 -0.14872520525426644
P 4.7486845829830155 6.638728906342209 6.749130240129659 2.504949962497589 0.1043497644626848 -1.1750406816748733
Ni 2.5069636024257624 1.4055768951859307 10.585588828024303 0.9328844157529547 0.06102667619501747 -0.8333248735900616
Ni 2.572732927206532 1.1912664300686333 5.62841567377518 -0.377621263732169 -0.5698662466459412 -1.1892339424561196
Ni 1.1683328378605091 3.526510524335043 6.427528974420954 0.5418623052338475 -0.5090054066048266 -0.2440426843113539
Ni 3.2450656396626822 6.143754955630248 10.427887431029932 0.3343074314358823 -0.27518594268337765 -0.33420535864037926
Ni 3.5011762482135067 8.864821905345485 13.639357617574923 -1.196686542079423 -1.5852589055064568 -1.2017577859547433
Ni 7.162981786351075 2.4674888273318936 3.7743147665454617 -1.1447543719865059 0.1101936248379715 -1.0910257721147985
Ni 1.588348963793698 5.456745120738768 7.883637912372529 -1.9943712978683719 -1.4344418507201684 1.2571519464543315
Ni 4.874471005599085 0.186147147756623 1.4777969988587394 1.8191760713480345 3.561067352770977 -3.6070936989024203
Ni 5.756162184198201 8.020101259012915 12.338345099210501 -0.6414688985845921 -0.1138078245517911 0.7421090754061734
Ni 9.049646323338052 7.359517776062404 3.4285164898789087 1.6296322894155095 0.28862407046615457 1.0654283832616682
Ni 4.3514796614506 4.931466066037503 8.050680323401751 0.4360380131081652 -0.29781936381217744 1.2964954812489609
Ni 8.499579030424968 5.038866074210852 8.951055412959915 -0.42279528916564607 -3.5446410888941537 -0.30183954071516406
Ni 6.092229688735724 0.6620370735239647 10.808326164400011 -1.2745886538735403 0.8930140619205782 -1.2451932314305585
Ni 7.631755331843325 5.653177551536186 10.88084470603382 0.32091018419336986 0.558415067386206 1.401124210404645
Ni 0.5160924375926094 8.953986130223623 13.226704530420871 -0.0796057247487855 0.28495433492405114 1.1791523898504017
Ni 8.439100624700423 4.105244807508282 1.9206676356476104 -1.0489823218905032 -0.5306859769020538 -1.3818885021034846
Ni 2.9658237355226293 0.22044680148891305 7.91741035708854 -0.6757149642516557 0.42309765089741325 -0.00401194937287051
Ni 6.659628978058972 1.3030159126262821 13.128542918813135 -0.1765399134736895 -1.965939267779924 0.6099821408302204
Ni 8.67718256778386 6.851354185496757 8.011313814445154 3.1729269346750386 0.19892702291963804 -1.453128371386078
Ni 2.364325320182212 3.488447916249063 4.100656206177314 0.3071406412131033 0.4717696621818198 -0.16653446552154544
Ni 7.694323744739546 1.806622910979805 8.966666448509798 -0.22475555394696778 -0.2749974808216554 1.5141067108416633
Ni 7.0007614549314585 8.07697393164398 3.163036623953074 -1.2220931550779857 0.7326700414804608 0.2337361601790233
Ni 5.935309690819052 2.7647593969393345 7.509923918294017 0.007061534832471709 0.008203104636082646 -0.44305043987025633
Ni 0.38641125836878054 3.726511030439061 11.367491578622591 0.001191192094623755 0.047109809003609185 -0.7182428103115372
Ni 4.5814369370153125 1.9062748295032017 9.165263260607974 -0.5191126702421576 0.08244396552852898 0.5269234245358281
P -0.4352449349462684 7.96294615298027 10.558374486892928 3.34150388454791 -0.7628383375337249 0.20012284299995212
Ni 7.481924412306259 5.448215632011116 3.838332062791776 -0.02828033500193194 0.25603765188970096 0.2528075749881775
P 4.545963301777131 8.251979081708356 2.7114858672890425 -0.923481634381816 -3.8069902848241792 4.9622820660069
Ni 2.9589417749708486 4.7103112981553 1.3940620854036005 -1.5636757800190424 0.3220640952921551 2.363033038414408
P 0.24370330921950784 3.24164819550359 9.008017522834816 0.22854356023449027 -0.8859754099062418 -0.05288399248322506
P 0.9046181806945364 1.9129685011205975 4.367307229275025 -0.5165107138429363 0.0041878128291024655 -0.418514402402105
P 5.471130395325802 6.432241846448618 10.432297157873235 -0.3740610571847364 -1.6019430510303572 0.844836730884403
Ni 8.257825453121018 6.808057145034868 12.913039643296505 -0.5732153656238321 -0.32760148017061647 -0.8531593918174856
Ni 7.905715731373872 9.279547112222449 11.975199763019035 1.0551290582181894 -0.7665463825129315 0.7829600479842644
Ni 9.03334050162029 7.3404064492223 1.1917992877529435 -0.8169613446303737 0.6489019578238695 -0.28578865789988844
Ni 5.682390579706057 5.046811867241909 12.282361150349734 -0.3953755023917965 0.28872022972438666 -1.82263780464439
Ni 2.051972806930512 7.904727214468349 11.892374285116977 0.4106316572199186 -1.1671581936030029 0.20337811671245618
Ni 7.313509374945366 1.1660545417544474 5.674038082576728 -0.7821964303453626 0.49645250964048043 1.5498614998437694
Ni 6.869091003115849 6.30068436799364 1.8104771854666715 -0.52425616211631 -0.7194208897800385 -1.568013745272764
Ni 6.521161295712054 6.973647848379981 8.592374407402724 -1.829683912857894 -2.4049993555438647 -3.927590963928087
Ni 8.94982494477371 3.741555316296443 4.2342020157794 2.2144119628381733 -0.5171709731347546 0.8329965437163654
Ni 4.475336122489221 8.022285410651783 9.244933957414407 -0.5323384249038122 0.6501036914414545 0.24995030804504054
Ni 3.553351111931661 2.9294463133993984 6.696935606073394 -0.37419886831418137 1.0326329339982023 2.8908437506511957
Ni 2.8872319343102237 7.119543529188396 7.491818054363532 0.6558418794768124 1.4285337127658493 2.2902803320317133
Ni 0.4188882752162213 1.048835265652907 6.394514392665845 0.14705090287563707 -1.7871257277807093 -0.011943031294489108
Ni 3.9013467204624894 3.698776070404113 10.689992217806909 0.20006010808281674 0.2230046326941321 0.27253847775820156
Ni 1.8163762777809616 2.2062191019789132 12.626106136186815 0.76959879618601 -0.9482992076461281 1.5955651725284714
Ni 3.2809723394499506 5.9831633234930655 3.374695980874227 -0.45959188916870525 0.7708049006789692 0.40828706824714195
Ni 6.262038064211066 4.198551388942896 9.63304640630536 -0.842779077024426 -0.6371319617721349 0.10461484519861337
Ni 1.3450231738876326 2.8854902616671603 1.769071507350682 -0.09023003723185105 -1.2305274018882677 0.34943785931941757
Ni 1.6128076963703426 9.217750683957208 3.6956777759888038 -0.6101307505929429 -0.09217584810431223 0.06874384233361709
Ni 4.9867100393861366 4.812975839628861 0.6153988459214087 2.0151033882094005 -0.2418683023678544 1.5065785207854183
Ni 6.876255397069207 3.844040983282337 5.6658945861645655 -0.5169519151454129 0.2947546088439246 -0.2455202972981449
Ni 7.052117261785036 1.1080144777301926 1.722677113918155 0.8424273501119621 -0.6840597366719252 0.20609371587140635
Ni 8.915867035457328 2.351549915984173 -0.23115196885338674 0.5912210581726334 -0.4707430206895183 0.25346654872841506
Ni 8.751085974530072 5.0615078185706786 6.469871389985511 0.47912070323025235 -0.5311806571502852 0.025080597117711646
Ni 4.4213254416608105 1.2514624023915992 12.599374756172141 -1.2546605474910457 1.2974298201377719 0.05782822386237783
P 8.723068581093546 4.58747159736236 13.382131397087868 -3.3404137368075246 0.7985087943521408 -0.5505199809088455
Ni 1.7938380923350463 8.015827100202369 1.5604163003776454 0.6596584250094252 -0.14268157016334782 -0.3889888821391624
P 4.410705945761483 0.6913922598392979 6.507570600428127 2.9408033703987737 0.3980607625334435 -0.225229922480225
Ni 8.67832171583689 0.44657898735158885 4.0277657938980935 0.24467131903428832 1.6958844756755242 -2.772596659381128
P 3.943542270658225 9.213052875044296 11.05981992827971 -0.7997051286530872 -0.687052757861978 0.07549761611768288
P 5.639761964961236 2.719551223793435 11.51284592874465 0.2302356032249325 1.3993501492233575 -0.2460437739017827
P 2.282965671634343 6.205344266067666 13.676699079042208 0.5127756722805363 1.5406314966050692 -0.15693139521414265
Ni 3.925419460723645 2.45565486780578 1.456412083135934 0.4914812816781342 1.3477856468825047 0.14025959098541652
