# total energy = -340877.1836948156 ev
CRYSTAL
PRIMVEC
9.19442639436532 0.00000000000000 0.00000000000000
0.00000000000000 9.19442639436532 0.00000000000000
0.00000000000000 0.00000000000000 13.45697241501491
PRIMCOORD
 96 1
Ni 5.804772434869117 1.019432035740261 0.6212986581636163 -2.250805156755227 -0.6256779542989224 -0.5626211350477537
Ni 0.630271498963426 3.698779855673244 3.9033025171335685 0.6678466172471724 0.5538418461932267 -0.10619993029754614
Ni 7.744575755476443 9.032898793563708 7.020933016744364 -1.451294917721765 0.17571896023429093 1.5256213963494822
Ni 5.534125297064831 3.7147321856124487 0.45604723107581735 1.3969374260168073 -0.889872688078119 -0.4482288987474023
Ni 2.5000289203339543 0.2659009748563806 12.081374333863417 -0.8005937019056277 -0.8352061497731745 0.28304786192995773
Ni 0.4727829261509417 6.59412314242571 3.9665500574325874 -0.46611837743331336 -0.4294246215567055 0.01706158346797707
Ni 2.7892120219177436 2.2503726581787764 10.490530759143482 -1.5635667652450038 -0.950216222163183 -0.4978079952271104
Ni 3.1862181628081947 0.7571610204573664 3.124453683500066 1.1387045662480002 0.3880738265240607 1.5399979767861285
Ni 3.2818769758845567 6.365145145419392 7.117029484521076 0.6503397187116606 -0.5016062859272781 1.0310077396899535
Ni 8.446698939036935 8.581746675144739 11.105877865047933 -0.36144311131040974 0.35700127348897226 0.4027041748427258
Ni 7.054460492896128 6.832718509527941 8.614804316103482 -0.5186652982920938 0.8542104587898193 0.008599825853869059
Ni 3.423167727570876 4.510840796630318 9.158089185044528 -0.7577560379148112 -0.12085984630256605 -0.3254859764895104
Ni 3.737690668527835 2.311855788036681 1.179500564622452 0.5028640695937792 -1.2260418553130885 0.9348027158215901
Ni 1.6436324549003114 0.1548120752647596 9.66162195110825 1.157718902566974 0.17320442134255332 0.6491433844107143
Ni 7.761934832666771 0.00452365782714055 1.5282414831596678 0.5917766735657873 0.2884186393235678 1.9534059111996036
Ni 7.808651713601123 1.0977501604792512 13.006864155950744 1.2078808681333455 1.2067804359803151 -1.0941488911248125
Ni 3.6871121284727533 4.0151784596317 11.606329578798903 1.1725148299292258 1.4903674582431945 1.1730876717135605
Ni 1.991761024634097 0.6376564623104979 1.0646336751910503 -0.9451169532634046 -0.9033167293981669 -1.3362984721785114
Ni 1.1605113156175875 7.191806835623416 11.18781767437658 1.8631478489432944 -0.49928303711074007 1.1637378550675441
Ni 6.914466155343198 7.7443091171085845 13.171509670333647 0.8367367274850879 0.6236781502600743 -0.33072922716632075
Ni 6.114036163880702 5.170733979377685 6.592046121484346 0.8712833551117058 1.6424384400412424 -0.7323692224105903
Ni 7.795466906031775 2.370130063053788 7.70072569671791 0.15847894220692063 -1.7915377408054758 1.0564837724738707
Ni 5.031098224457392 7.255478238983066 3.557458762379548 -0.46277337222048043 -0.6553500274420585 -0.3152658414233989
Ni 7.884220704823214 4.6665851867399395 8.42541016396994 0.6855877432806773 1.035463461468462 0.008617052245049675
P 7.1874578718993565 2.404296551845768 1.4760952933900995 1.19281754604232 -0.3202769214847452 -0.7195563869166383
P 4.202542482398916 5.56133160501302 5.243751517252149 0.7577053871825338 0.27877957357190697 -0.24893780762012613
P 4.091078450206996 8.424889759431288 1.515052997819728 0.4835214034011092 1.3315959244965194 0.6367565807105872
P 2.412773813058418 6.92150908602529 9.400489205823323 0.33849035916897835 -0.13815411460663948 0.04665240975121643
P 9.30742597934168 8.717235743723487 13.4935757187731 0.4200354670323217 -0.1787891145191824 -0.9287192286316717
P 4.41849197708601 4.242896820210541 2.18348780276509 -0.20867330367312448 0.02644148202098027 1.1319929585557795
P 8.593809762683781 0.4307266999982515 9.036719997207936 0.048673553946303266 -0.6186806970454829 -0.0504661270703518
P 6.242178885703584 9.554204386009268 11.652997729272924 -0.2758019790008218 -1.6494809487103208 0.2484073890379528
Ni 4.4590210090007165 3.598146857872323 6.800454347574243 -1.0305621675121026 -0.23688576155159846 -0.8274982396059556
Ni 8.289667329220402 6.087574604477225 11.193657974075359 -0.7217587938845956 -1.1573682040957745 -0.5032548772742946
Ni 2.7519562058291798 7.505226445403024 4.868167470612622 0.25680384063176415 -0.5730065920471357 -0.5445169692478751
Ni 6.496285250274079 5.150423491287942 3.9100309984301163 -0.7139446971568155 0.2668766514867339 0.6881709306268212
Ni 4.276667948663971 6.249267788518066 1.3021330666571116 -1.3161615922193204 -0.11083640062829297 -0.8964953356009594
Ni 4.236129722322787 8.603371966220825 10.445544269272274 -1.4380131130111944 0.587605315796917 -0.29603784643172243
Ni 5.754837504667491 5.6703315309088556 12.690395674351056 -0.7436221696165903 -0.12049192144018604 -1.376638823668771
Ni 8.154555232127251 4.435520054923132 2.2313944424856853 0.07921774528174744 0.09114637839853335 -0.5584975997976833
Ni 5.904109018536651 2.8082996512859224 3.214480910358697 -1.2980648826186096 0.1191660035399109 -0.25989276396973304
Ni 0.5085786673148108 3.090458211040575 0.6395027031472658 -0.027358080297978687 -1.0318754870068874 0.6419214127409784
Ni 2.7287402789724116 4.247199811802212 0.5449794017409275 -0.8163121410821489 2.4925474750681778 -0.2011944787975761
Ni 0.28005947218974186 7.51717919982433 9.085488154689513 -1.1212799430136495 -0.3097261425520924 -1.6070569752181547
Ni 1.8427561491327968 7.316207425869782 0.2045759891338968 0.41174880154349736 -0.20092965517196362 -0.9559814067817343
Ni 0.6914843126828791 9.559077432042569 3.4110062596685204 0.6302210935849146 -0.4617462165075467 -1.0131414009324937
Ni 1.0742400119751894 2.5900423555528684 8.814128448833186 -0.11051321296091934 0.5130623502830196 -0.10755772987702121
Ni 5.412400284923542 1.3353525295218653 7.494403685995855 -0.09870645013397839 0.09376967495399335 -1.710158211985719
Ni 1.4838241282874458 4.370579820709527 11.001290344418855 -0.9177856124383033 0.2889503434573217 -0.8875543243575876
Ni 2.7268462271179588 3.2628077353693343 4.998027711301582 0.26937833486266505 0.1423550400618645 -0.5955078584734453
Ni 6.31315066368671 7.586872952527024 5.599446180534622 1.7566278163021685 -2.0961553584864094 -0.6928539379247873
Ni 2.7032625232020737 1.873998810304796 6.947270030131149 1.2677328072939713 0.4520269323372538 1.2995558653418393
Ni 7.993560824498734 3.5914808986758247 12.13356005966684 -0.9008824089250614 0.07251976443628157 -0.3118521877561597
Ni 5.705362295789761 4.821051551569129 9.753465996638921 0.5499857056719303 1.53136292681895 2.604495363593095
Ni 3.2081100922521406 8.713732667235394 7.241533052343994 -0.21925339318181594 -0.07921157463416036 1.9383667574782941
Ni 5.0130587597076985 2.4266390081871334 9.719971620422477 1.1216131579833521 0.6778492369858391 -1.2250864333783547
P 8.321636350084159 4.919753719809686 5.002871335170155 -0.6836820416175322 0.4552937760139836 -0.12311573221627829
P 7.348176446733537 7.851608074106003 3.2000410635751115 -0.1504254757748248 -0.39328185308756136 0.42806810752881114
P 5.447780438010609 8.119827883320118 7.371702225762611 0.0786454177180452 0.2507607197614778 1.4961524403560877
P 6.0878320484186075 3.6636663409540366 8.175999393001723 -0.6931935806523933 -2.398394191522521 -1.9489252497204306
P 2.3242682637818834 2.38613755955186 12.925745408906577 -0.2259259201059851 -0.5295932580585073 -1.3136267416126086
P 3.7884163194065636 0.9395784417794568 8.870419486059005 -1.822477624917442 -0.6156938465030171 0.4479306507806931
P 1.1627731445311575 7.604691751041249 6.424304843706324 -0.10123847252721274 0.5820581607264427 -0.25102991426246446
P 1.1220694185133706 5.439119288268401 2.225406112520611 -0.19026446214863363 -0.2956537236194263 -1.3678855029561732
Ni 4.38401287779378 8.106514353780078 12.784958511791249 0.438031132278794 -0.17035975280490662 0.8297250720539453
Ni 6.73105573596149 0.6808353279361431 4.788932661553783 -0.143885617773778 0.23731744977237837 1.178157887147616
Ni 8.658667247059084 6.183205834274154 6.786983593341431 0.012594291725242825 1.3030253119476787 -0.9283615881819366
Ni 4.580911520818606 6.728407741135848 8.976648211814393 0.29351739400271387 0.9740120390311998 0.2622034143807807
Ni 8.179288239352879 1.9706965935731642 3.402515206816154 0.3534392671693268 0.22570557656506288 -0.07077835626514262
Ni 1.8738333106281935 5.528066170015877 5.626333441884027 -2.1783800089152807 -2.2008059420189645 -0.13496466113506433
Ni 6.229472188311087 9.387785266758772 9.378042852462759 1.0107376765870077 -1.1539470942293675 -0.08626411060556756
Ni 8.544509247909131 8.397738618041968 4.968677263098741 0.7564483748469811 -0.2889673127381862 0.06990443830062155
Ni 2.267584624545458 7.793563659750844 2.5260215639870562 -0.35316570179296597 -0.7913140763759146 0.22875721890719314
Ni 1.116276929832276 5.231187333470061 8.621196281390937 -0.08052283724641617 -0.41897308720607845 0.07141341874598023
Ni 2.037861878994428 0.41614250071896225 5.395748259129368 -1.0180738052371048 0.29982302450576753 -1.6652125005129643
Ni 6.541071301648065 6.400516104079982 1.6941116951494315 0.39419382337886955 -0.5257556294799719 0.49859012480877357
Ni 2.9729718295056116 5.490010438823733 3.3825577847031636 0.44706393190502364 -0.651518312400794 -0.29041021583229987
Ni 6.205621846027342 7.3201242515493785 10.913254630335343 -0.27123904222048767 0.2011134890479956 -0.4357425933549334
Ni 6.701293377452438 2.8609653261514936 5.572586502464651 -0.3356271786885704 1.2107461054962825 -0.09377893092537398
Ni 8.877218764439432 7.033184590026202 1.4542281888976434 0.6323265699636915 -0.693275084622606 0.21854736825372684
Ni 4.456501736145764 1.555485488256416 11.986326950147836 0.7159002782212897 0.33633114673413045 0.8716170843020409
Ni 0.5714087806517315 1.5213098050379579 11.646431069882388 1.0076240706586903 1.0387796703258885 0.36932637071322844
Ni 0.1549895276957836 3.7564840762487197 6.555496437349286 0.7198086121367603 -0.024099721261681077 -0.4459997523065673
Ni 5.740678087891482 0.2561916604956887 2.8573997275633527 -1.2391156577779112 0.03971737319427998 -0.727137798808322
Ni 4.508955939202343 8.882698642620277 5.343131314724129 0.23148695913353037 2.5891469061614827 -0.8869082061331565
Ni 0.797050120289209 0.5523101179717795 7.419663112599426 -0.40883856987523776 -0.24127771997170708 -1.007099051393156
Ni 7.736365132631655 1.719992166799503 10.505171963866932 -0.7722071803431346 1.4137786659438618 -0.24883187816988114
Ni 0.5100718421748264 5.146460693475955 12.925664497953571 0.5110951992543198 1.2724219852395249 1.3505302995071775
P 8.781633506774893 3.6970604979218713 10.022026919075365 0.8820130828243842 -0.12440436912071479 1.2216704657182704
P 4.502161258035154 1.965106382274584 4.871357017157816 0.8575567495542327 -0.6400853879735041 0.3385294399370299
P 3.5379601421478064 6.126476222905338 12.490345181929595 -0.8505777471332384 -0.4636945984831692 0.39082799223043013
P 7.6534497946536995 5.30374055280739 13.570953253683397 0.5850853775885407 0.7527953514754261 0.18757585957287695
P 1.5573795401108694 2.196447346885729 2.4899702177671013 -0.3918309795736477 0.32435186288506723 1.0326398759767377
P 5.752511314768575 3.2886808514782238 11.470575710737595 1.436270933509107 0.904742663211416 1.5169269538992778
P 8.734778709443372 1.8234294646761924 5.651201607178878 -0.24175543093907395 -1.2906305378277514 -0.25452301501738744
P 2.286782587031371 3.9588625974543916 7.205872469249351 -0.16097496915589693 0.4565590158796524 0.5554757822522239
