# total energy = -381160.67033658194 ev
CRYSTAL
PRIMVEC
9.26713315662945 0.00000000000000 0.00000000000000

0.00000000000000 9.26713315662945 0.00000000000000

0.00000000000000 0.00000000000000 13.56338611090715

PRIMCOORD
 96 1
Ni 1.716087746280411 1.3821465974672853 6.984302905255051 -0.6820277938435609 -1.7163550848250506 -0.026058130539632542
Ni 4.06234055761681 5.42178267847546 12.962243322175661 1.0625932278057184 -2.016759949976217 -2.3870720816414823
Ni 1.6419136112699972 4.538087380334153 11.223498361666493 -0.808786265018749 -1.099330435325752 1.6281852725563377
Ni 1.9258678430108875 1.8832482969198217 4.788336121514527 0.8413161193256542 3.0918543955727396 0.06302288068943986
Ni 7.810182412104133 4.9360180846503905 13.028052942660786 0.7243514943124364 1.8885562617140699 -0.5958734693429804
Ni 3.2860791359342385 0.14500654174936872 1.5349143633634832 0.8598954249897385 -0.5143540725112496 -1.0513976162002152
Ni 0.04979786755271852 1.3277670592062771 3.126130268436395 -1.1985531629745165 -0.7211221887418613 0.11755495029904915
Ni 0.8796983835448573 0.5163535474535531 9.138548128122215 2.3934203924570134 -2.5826121903667585 1.0902295014657482
Ni 0.5158864839347469 9.011054614901417 12.06092935018605 -0.7857730919530274 0.38841578324451176 0.2518297844559405
Ni 2.4546319353927197 2.867019367672006 8.451468037131699 -0.2982556800186476 1.2818273377138245 1.807160020723765
Ni 7.939199442041039 3.9352047557417644 5.491666130763508 -0.28213897696244317 0.5439623822959857 -0.33966329643115695
Ni 7.928616375801421 3.1223196232194685 3.296553776714133 -0.09565480779184816 0.08875936622359552 -0.16883611707152857
Ni 5.631182822740242 3.247277648766747 6.816673437670172 2.1058314481235922 0.5039830136895708 1.24960293046248
Ni 8.27504962031595 5.869181340398593 3.709206249006075 0.592016043270103 -0.250371197632543 2.1684313823430013
Ni 3.516960495210781 3.0643815057675563 11.845000510504624 0.1325719925331717 0.4139422096503903 -1.0578369440676556
Ni 4.03794019561251 6.473713514720099 6.846919507366198 -1.4726453583730832 -0.09409440528326377 -2.163990315852512
Ni 0.021252316819013208 6.314958253992538 5.721470649149469 2.3341564645893733 -2.3356441048784937 1.7344240265116193
Ni 8.5322589053252 8.194953787120673 2.9343571384398937 0.7074704022863816 0.912454430033377 -0.2661145765097288
Ni 8.15141679483195 6.448979535916651 8.355506871710306 1.6005446280209337 -0.694930617948158 -1.828356452295722
Ni 0.8649840292758 9.343123802785993 1.0340007867171328 2.2181254071340186 -2.0434958233091645 1.9651689652728026
Ni 8.49389297342326 5.139329722330733 1.7726802759757625 0.25745818638631146 -0.5096651516760127 -2.4536032325944968
Ni 1.7175056176767869 4.275262212539257 5.223504020895587 -0.985279127304587 0.014020225538491983 1.1330717934422552
Ni 7.506201905281096 8.592819621503741 8.769068449779924 0.6936944315482118 1.6402931115634654 -0.5047846836552597
Ni 7.916115012966708 7.660861093085794 0.5892831064604812 0.34758820770518845 0.16407494823745936 -0.6766230778882218
P 6.273654640831441 1.6365108725504731 8.53968465924622 0.3150866355330574 -0.35763993551423573 0.1251438183899006
Ni 8.395615024674457 2.8023903799705288 12.590145678673393 -0.25892448651919275 -1.5311829495976599 -0.7930935368738407
P 1.7297938364453787 5.641209860981279 6.929873324474171 0.5312428778467883 0.32384278445913256 0.9725498526633766
Ni 4.144280550340708 2.7690101657891804 0.46277561622382957 0.9345808296187711 -0.9162349801217317 -0.1963052690260748
P 2.0062046216722167 8.408459271441627 2.963681128371609 -1.1429651412965671 -1.3161752190660752 -0.06886751239567494
P 2.965936748619177 0.2574493037619693 9.857747176450635 0.6635706155796378 -0.19959705240346917 -0.35652690495571504
P 1.052783412509125 3.8752927388948972 2.979984796003271 -0.2176207426743994 -1.4040388129482786 -0.2361095455072063
Ni 2.2254649957784616 3.9946904844563877 0.2719190057116519 -1.1660359070731017 -1.2580590316496334 0.8705876145962619
Ni 6.219377041036839 6.03040165858652 4.5339014162181845 1.1522913037934994 0.6586906617795173 2.287570646410034
Ni 1.8296101293235851 7.847056335543219 7.660139183400973 0.13734550266241508 -0.8963261570129467 0.4486767849180983
Ni 4.251380810000297 1.4834919673415836 7.49872147527355 0.7768768179046621 -2.2101953536536643 2.0228033279568196
Ni 4.661914815617655 8.431015473917308 8.097721171009196 1.5175229356120639 0.4623949058351392 2.4480141685424934
Ni 4.314508522105612 6.219766260635844 3.5605113881994668 -2.2192849746597587 -1.1773616164985659 0.25396251452822716
Ni 0.16312934764971418 6.571685648069685 11.921199514143197 -0.9515511389245225 -0.6118960700234816 3.590371243941417
Ni 1.0605770716225382 9.26634560331557 4.869472653780478 -0.29076657073045403 -3.1253990642974045 -0.8022052693671217
Ni 4.964375512577909 8.15957187214444 2.5919226619484763 2.7039834290881046 0.7521191513440079 -0.11537979702460129
Ni 4.506699599814379 2.649779228627264 9.71015047094122 0.42970358624970517 -0.3109618147314064 -0.5383753751265116
Ni 8.832810572823668 1.6452590463947796 5.736023755298938 0.8110082123707323 1.598573620337492 0.21791307710383764
Ni 7.104721888907264 0.11392272320215115 12.27337282102972 1.151807165068229 -3.0587591556806673 0.2752707890877001
Ni 5.1617654520733876 8.77081345098213 0.14421512856472488 -0.5073182487103908 -2.0660631670867193 -0.07467126356164559
Ni 5.552078572809095 3.87076111070648 4.623229167616533 -1.1235849369977424 -1.6399010183313696 1.7740136158787834
Ni 5.220018652057829 7.95960566958888 5.070196907840768 0.26825836232560896 1.1111958193047702 -0.2626209615341735
Ni 4.926055916342519 1.5110802232044025 5.1469927148644805 1.3863421669994638 0.49944604505116563 0.5757036792633247
Ni 5.621906422297285 4.778133934453935 10.535713041831114 -0.3792940234489016 0.8148880070411127 0.900143730986824
Ni -0.0022824949341660287 7.665605865340333 10.076280080592074 -0.05201495961471042 1.7160946320748125 -1.2620997773779103
Ni 3.5025964385808286 6.733248850190069 9.134819033678413 -1.1684216336964586 0.7014303667398888 1.0959604904122542
Ni 7.971106182026152 7.76620059741655 5.141269333332443 -2.9400456662971433 0.5912871355238785 -0.5729834521186843
Ni 0.3500687409119041 3.651074448467991 7.161142049923058 0.31590861721372043 0.3538362454974293 0.7130661512066041
Ni 1.1999825579995562 5.751396076032981 9.358017939441257 1.0510240349108801 0.4436518208996811 -2.3482221986538203
Ni 1.3358479994522894 5.84617104839074 3.6111432977500537 0.06800053640968934 0.9131979930676208 -1.6903522330033853
Ni 3.573832892332084 6.799935141486288 1.4018299886169752 -1.350586092445777 1.4308610753474453 -1.192552208196075
Ni 5.833428740089976 6.496028771729728 13.314443503748782 2.3361305575966087 1.1161927582987292 0.08768593065375867
P 2.177109094168724 5.91098537875841 -0.3312953822532214 -3.5553757017028382 2.31770628945315 1.214895608888282
Ni 6.412124146744185 1.2499138722719338 0.601909575594875 0.5396858664078189 1.4940729321192396 0.7126344629858243
P 7.438727907653558 4.650256761914119 7.418209547792668 -0.47457422151015033 0.4217650481289188 -0.3485302599034837
Ni 4.4627826550599625 7.523688985836401 11.18565694950988 1.546277124926621 0.42254923459311095 0.5737668672519279
P 6.72640043867424 0.7685956490088318 2.5918948605485475 -0.31630790953466814 0.08769955750051349 1.2059008615888394
P 6.9339008206105435 6.824363304890517 2.3371209781730733 -1.2580870566740914 -0.15361955723209028 -0.5004274351278284
P 7.005183610028347 7.087336746818367 11.041803239144233 0.8505427801302449 0.5822833893633713 2.0914672089821202
Ni 9.198964277021126 8.657884164470774 6.703744151158815 -0.6810669725921884 0.29733779619006856 2.2171172775844785
Ni 0.10797044347736494 3.0465608084131053 1.163886147045151 0.383471551865359 -0.9996446519976397 0.24328498020972295
Ni 6.402616067968488 7.068459596266616 6.90030468222308 0.354177430886932 -0.42857615751348127 -0.3355950398990543
Ni 8.41442730529304 5.338220937422375 10.34791458531112 -1.2365751507442446 -1.4800403652855738 0.9097015498785881
Ni 0.9573597408196911 6.828792994612528 1.3586849960672522 0.5612476517389947 0.46834958075667726 -0.5312541907006979
Ni 1.8211863051451163 1.6313583464303094 13.067631015599625 -0.023221432421785815 1.123694465992413 1.590557949121867
Ni 6.6910833936311755 3.5823864563768884 0.994366184265104 -0.04274613271827477 -1.353764747284075 -1.275662089443377
Ni 7.856369804519415 1.220231244281135 10.485108006967126 1.287038706711435 1.204448702523345 -1.296719681444625
Ni 6.075106309672257 6.930434912752736 9.237697187402127 -1.6466784462645188 -0.6903820793455272 0.5524809612899582
Ni 4.294463712756845 4.741955046013075 1.6059589874552294 -0.19351973586113766 -0.9059040305093687 0.7547882135357388
Ni 7.280259928058595 3.5010302930514983 9.23273278408815 0.026334267019154648 -0.9659565157165751 -0.3645469470467141
Ni 2.300519508453292 6.939322093596687 11.460369995914393 0.2962484197806317 0.4937813905662205 -1.8313080787248783
Ni 4.703996867976762 2.1506236271697534 2.553022943167903 1.4163155734331028 -0.28098172342954836 1.101151804805207
Ni 3.392428757795746 2.998047365537104 6.349618259283948 -1.0996309972853062 2.4643974949965233 -2.0611454180701276
Ni 2.4722950914809068 7.222117933673871 4.961730672731336 0.4394472959000303 0.44925296913654245 0.35925870206458127
Ni 2.163551278136711 1.7003799553205594 2.565609563629065 0.20655034379285073 2.767035106132951 -1.2047202110171769
Ni 5.723205456505036 0.14777370775562929 10.088216148294899 -0.8783274064426808 0.1721502690464261 0.398097786418966
Ni 7.35704739466233 0.5292265223339836 4.624355124313656 -1.3836432800110623 0.8100391635892437 -2.3075051805504323
Ni 6.172244401023975 4.606098871693651 2.782569835247856 0.6015826039126155 1.9902498195008307 -1.232363169545426
Ni 5.844428827328525 1.9191769727613224 11.839480079192066 -0.8349120155715234 1.125504008397326 -0.5139437244467084
Ni 2.7473343409779165 8.789968615533171 12.869985303224801 -0.4795127964623483 -2.580351162246724 -0.5088146307502592
Ni 3.5920335421522305 8.728175370624445 6.393196953672562 -2.2413612377335075 2.5469378768936006 -2.5914310742099693
Ni 3.335269079541844 3.791554922308928 3.7140752008469633 0.1046490408706585 -0.3008566079766044 -0.7891404657633636
Ni 8.677150534621529 1.33740487784831 8.037160454830653 -3.3268683940229224 2.4683184273174845 -1.2372058423497079
Ni 4.897049789083325 5.148142766108207 8.33510805786911 1.0788266589454454 -2.8325144187826834 -0.3042355517511664
P 4.036151638883748 1.0353055990871312 12.74917617326025 0.7737261880908223 1.655738499584258 -0.4286368355480876
Ni 1.5275664533622644 1.825439919334244 10.879518127339027 0.28393257852775616 0.7122531683870056 -0.665746283074718
P 8.59704543429294 0.942717670190449 0.2881781911034274 -2.490980387691375 1.2063209798453935 -2.1480340496335715
Ni 3.603228239190284 0.33113228070697165 3.937559534315746 -0.8548547772420375 -1.0579801545137393 -0.2551123118619542
P 6.000904373261914 3.9928370577944587 12.466637032775743 -0.6368614817195676 0.016201549460526935 1.0263105913246002
P 9.091919620161395 3.142030815769087 10.537706402206018 -0.16668101840173874 0.301037613639159 -0.33315609144025854
P 3.3316548975510822 4.750610548524285 9.95153797925091 0.5410871176307197 -1.3372040147119164 -0.47525350696536217
Ni 6.562983809891927 0.3604099349721391 6.732579763165112 -0.5135423752432318 0.007330729333458342 0.7515306258303897
