# total energy = -340895.38181989396 ev
CRYSTAL
PRIMVEC
9.06869432273253 0.00000000000000 0.00000000000000
0.00000000000000 9.06869432273253 0.00000000000000
0.00000000000000 0.00000000000000 13.27295081899430
PRIMCOORD
 96 1
Ni 6.558715650192998 1.8873313563670495 11.377905154496867 0.21934955244004806 0.5656293257464581 0.40226168798866857
Ni 4.701374466545387 0.2870314359565731 6.261328671984134 -1.4975493207036144 0.24300241597229763 -1.1651781870584965
Ni 2.6553046816083206 1.788056357649273 4.736385975410803 0.42242736430326605 -0.836368802622708 0.19176290107103103
Ni 3.4463124908856893 4.298425163720231 4.996031767709027 -0.22433517858009752 0.54755369919167 -0.5691705061304971
Ni 5.10900321573378 4.501173966710396 2.633220596756076 0.5027756236450309 0.6067068125130584 -0.012915165399771306
Ni 7.420921780008711 6.2297668945074305 2.5216620513347974 -0.47954544947249667 -0.1674371798414729 0.654067561185209
Ni 5.143727246983471 4.563348936218853 11.720148616322954 0.49700889636458273 0.746504890481024 -0.3299337278482189
Ni 5.502439458025917 7.974130282044137 12.47313592389901 -0.3467713682308479 0.13210379464750152 0.10961769772984348
Ni 1.9469217479423222 6.2880332566853525 0.4213605664039281 0.06969515050329286 0.3524643048505672 0.8947755246963752
Ni 2.7134622194522144 1.4293260092178222 0.44231741252952506 0.05578162574599426 0.1636661428348149 0.30592708052097634
Ni 0.6911052569000257 -0.06719811939333638 4.691762557242293 0.15761428021378016 0.05186660696230423 1.1177433906153007
Ni 8.513635986686436 2.33730184018715 1.273518582710982 1.255444733955238 -0.5525578372744806 0.5014512484066525
Ni 6.729687747646752 0.7978392568460265 4.944890678801642 0.07293705447935826 -0.11636581508695443 -1.5316586036824975
Ni 0.8315512217892497 7.394250749477152 2.638596518857099 0.38930384227641984 -0.05608193059523245 -0.6334879372616444
Ni 7.540193250104281 3.9096320930133235 3.8304007228847516 0.7917362515149978 -0.3898553439045157 0.12508571145845554
Ni 7.717096273762605 3.853895896601571 12.609223474210381 0.835323134967013 0.3277722014205258 -0.4691718195476565
Ni 7.855067391922123 8.941750916755753 6.864226364937113 1.3721190814215465 -0.3822464212090062 0.8383819763979947
Ni 6.9942034288927655 0.6003394142338512 0.37371455235776685 -0.7038906553549232 -0.09609086688800225 -0.8192645388422536
Ni 1.928566710269464 6.627900720551811 9.258321811314994 -0.305840434344441 -0.0019707505731256384 -0.6351712385013384
Ni -0.0035785068506471794 4.8725007318056806 1.4717185285387429 0.6007683355414363 -0.7170441620177458 -0.18496001921658467
Ni 6.315275614970562 1.706311145404636 7.070195461345079 0.4872932117387157 2.2277544455833507 0.7782906675330532
Ni 3.5461406799681128 4.1466514925280595 0.44244074677475775 -0.17739634793671386 0.6147345679135413 0.36650741320719454
Ni 6.0512405745331765 5.585281982305344 4.696315041882498 -0.7939216892020907 0.6610295943253389 0.10382654496936314
Ni 5.605659338852238 2.923320878932261 9.226970427550746 -0.8112103010792093 -0.17332757718397893 -0.3781686515952068
P 0.28998873723380586 5.464423490671854 12.542328249213424 -0.7570297012717478 0.10359900233958932 -0.39834846897719134
P 3.980839482246171 6.195269580620299 12.65927631977748 0.5365702035969727 -0.6483676825869543 0.5991835075528198
P 2.3693596752531354 8.339163373154756 1.2260267364713615 -0.2255042591875342 0.6756044068157203 1.3383203877045466
P 6.51524032874849 7.805017266963375 5.680677393514993 -1.8889807508459986 -0.8178733149216817 0.32004783619307464
P 4.761998689293932 1.076680754797482 12.820396187523825 0.0031765979557687226 0.09727280301124537 -1.2973051216344496
P 3.961332720371508 6.402480181305645 8.195768268813353 -0.19965078845954 -0.7141874092952409 0.30640222038518194
P 4.589584669414297 1.0470714672471446 3.768429799002599 0.9546423762553365 -0.3135293183482665 0.7576889321223016
P 0.3159070661216661 5.571352467549657 3.658901734280409 -0.23715701293511415 -0.8268989154590598 0.02404624231592633
Ni 1.285306071825202 0.7790997065262665 2.5908797689938186 0.1845098190530435 1.5110198443862235 -1.0199795069002497
Ni 1.906620469573655 6.55464380636142 4.9526026966064824 0.7536281317893666 -0.06588271873573814 -0.8801462048189744
Ni 5.932504157413249 5.641027247411598 9.251552030868954 -0.07623860804876546 0.0977386869040704 0.36234351163749207
Ni 8.98979686022947 2.1705466856770124 10.068157137248797 -0.6434422202608789 0.5826582562042869 0.07661553177220998
Ni 2.3274985814300555 5.268866162422094 7.029195893499726 -0.2939326271632615 0.2572067324971377 0.24557377624389967
Ni 0.3494285884803387 8.885280156089305 8.974546036684783 0.8885398281993083 0.7655130561524106 0.33400892635885704
Ni 1.5772273478574694 1.1715846427651015 11.436837158851267 0.44681119246426926 0.03539817699363581 0.5929005027575853
Ni 4.143005877338094 6.6650188871501355 1.6863418801103505 -0.02588843773098767 0.8664525093819659 -0.7599167930115557
Ni 5.654766319582735 7.887823516464793 8.041337470131976 -0.4322595199023394 0.10777395965288537 0.18146306180691976
Ni 5.382796171455749 2.9316005970129524 4.690714216157815 -0.36992132398475003 -0.0873408886095141 0.5608897541789437
Ni 0.7929938533733941 7.48725928029377 6.903567268557975 -0.5540848154419683 -0.3049518610919006 0.5273286303940466
Ni 4.797021987462203 4.716174575973303 7.052197730235616 0.850295182895813 -0.7574570186171535 -0.002564932513698808
Ni 7.873694490430053 7.158120082023651 9.035163004477727 0.7409405090193691 -0.5500708091865688 -0.07986694882997213
Ni 4.770124239568084 0.5185715302529584 10.407904894347825 -0.9592698477250189 -0.6545414154978341 0.5763677952098847
Ni 8.256166681068787 7.154238680776624 4.6437810014995415 0.0012071329342237275 0.2875802025826725 0.4812606323913906
Ni 6.999862294262263 6.029521051199928 6.9310689915059545 0.38418091922755776 0.2674178687021846 0.20811743116965445
Ni 2.366865784264975 5.150755485222831 2.6743933766664236 -0.2916327753854913 -0.018274372829155623 0.01636172918747505
Ni 2.309959726262413 5.611989287614913 11.392067734701268 -0.8294517637879005 -2.4959675564933206 0.18775686523543147
Ni 0.9661424375077241 3.34910515451446 3.703843463625954 -0.6911739791192032 -0.34328598078540873 0.15106053825566243
Ni 3.8380166125278676 2.58348062114931 2.523360617815097 -1.1054645732479478 0.0771058411450672 -0.5317067048570843
Ni 1.2765910564083953 3.3919819421218085 8.218571501139637 -1.4849845966647266 0.5876775637957492 -0.3195919796025786
Ni 3.444217622455635 2.5993236304450034 7.069333028497901 0.7744990617011048 0.4781891925549184 -0.20449294704318977
Ni 4.3075210643061395 6.983384476351402 6.011492486529156 -0.1556026491003901 -0.3005946125644694 -0.6285671029212594
Ni 0.6936444913606977 7.367543444167583 11.555099283248719 -0.041390647131644843 0.24063597262265007 -0.4314179978376506
P 0.2913100460228056 5.6331737579725205 8.092916576983828 -0.6167140602374154 -0.055539942048833384 0.029667959378077938
P 8.43166405707924 1.7829960261169335 7.999846379044595 0.27051733356311475 -1.153841936110071 0.3010720664215202
P 1.84199695254955 3.489252759354555 10.380522878167275 0.8405833549246877 0.17801752646048052 1.1152957004057567
P 3.9249944615003898 6.238282398645183 3.7752385748350012 0.699333375001544 -0.4518112167820219 1.5288869544746315
P 6.875031714436721 4.0251581922794015 10.507691367435534 1.0001064221254068 0.3808474839789505 0.20912093273350438
P 6.255376887782208 7.7725694780337875 10.375412668815173 -0.3360215859135116 -0.17134011444030492 -0.39615403242903385
P 2.492303966622177 8.54209355003497 5.9645592718708835 -0.03209328099011892 0.2721412423197829 -0.9597174767853986
P 7.046783719617682 3.846287261914057 1.682917541066244 -0.8057150822925929 1.47161486022604 -0.037517794439799905
Ni 5.748672651155091 2.8853230489672033 0.2895189788585815 -1.1327005261457652 -0.05390112089382974 0.3008021005895852
Ni 1.426677950423121 1.13715987843399 7.05550236251229 -0.7407569322536534 0.21343318695561306 -0.43872507302202507
Ni 6.971096395300649 0.5210237052464075 9.299733097890755 -0.1996399898262626 0.8827008529200281 -1.1685278202570197
Ni 2.636151598819251 1.810392552208685 9.319124687345239 0.888398674635754 -1.3098284509124407 -0.02040067514353906
Ni 6.392286968684947 1.8257367833067464 2.6544041602442325 0.4822325093863566 0.07173634930303774 -0.3742706020923812
Ni 4.042089444915383 6.8694635360122485 10.508859415287443 1.3409200301109228 1.3463501999875587 -0.6126360335132998
Ni 8.22499757806404 7.239847156879283 0.31345670486711746 0.018974227109657644 -0.339691321455615 0.47745257149921005
Ni 7.651837948123331 3.904145532839371 8.177040507796445 0.4908292499164321 0.09651458468898218 0.23517700639060785
Ni 2.9533654638187135 8.24993648794564 12.3833712651059 0.1408586580219961 0.3410072120535611 -0.29005026138971984
Ni -0.011249715530227638 4.759241806165203 10.275295188378122 -0.17889221575594996 0.5034500240042361 0.1230087743247688
Ni 8.54005309377193 2.3077016213313155 5.865808443695345 0.4125882667256571 0.8530454919474406 -0.6212667126051042
Ni 3.7334999083877034 2.7627415053782576 11.68877093334465 -0.8470013426358896 -0.925959149388031 -0.6465478557693961
Ni 1.2078412833856982 3.24970319407365 12.713934248412896 -0.16921098391244407 0.781737488431073 -0.2887950488263801
Ni 3.029742008917929 8.61497864775076 8.086638319779818 0.5736768786412829 -0.3019737523001832 0.8064848705790821
Ni 5.72619135748364 8.04641684592277 3.4871098268436382 -0.6049096114033196 -0.37546719350364366 0.693750738707444
Ni 3.092306932289989 8.528708156949426 3.685911933986358 0.19841203095643248 -0.7185760252812399 0.10571476313101147
Ni 3.6930172561289885 4.474312493594286 9.483191880804865 -0.751573563253183 -0.17042968681089357 -0.15576437148923497
Ni 7.256125463511092 6.25153176131319 11.607686828929237 0.29940419180079403 -0.7924024243440869 -1.0698756203997446
Ni 0.4563630065748427 0.12788672987284977 0.16648944176121735 0.8519807981283519 -0.9195961832844808 0.9550581236365165
Ni 4.641974517554664 0.2084339675737195 1.5770387190118196 -0.7018219457513526 -0.1700141965400298 -0.13292397655595173
Ni 6.18854967799402 5.676549323777501 0.47849878298575177 -0.7107529296923952 -0.5343896510058861 -0.18454658582824993
Ni 8.0491737290515 8.874769539161024 11.23272623794684 0.017139745004080158 -0.1394023851914438 0.7318089790317461
Ni -0.041003195323152955 5.016085371862186 5.863166732986796 0.14979169884556784 -0.8231417624094727 0.07982118319370125
Ni 7.936486131164674 8.790593916789744 2.363979218804861 0.27653011541609795 0.1166316671538314 0.7983344735578057
P 8.504948177353137 1.4563325814459704 3.6843983688739073 -0.3362696973685757 0.5511385883294508 -0.36534167503386755
P 1.7733741412498867 3.2807725414388735 1.6459517285355598 0.6788162288847988 -1.137946605036053 -0.7012059094339085
P 4.598943562140774 1.1909009620552142 8.34106779900026 0.07686364322727407 -0.427833880030818 -0.34021814049336246
P 8.652767897742264 1.6329816816582268 12.313874231656206 -1.1890411097190232 1.218190991810102 -0.04571498553861159
P 6.185892550504817 7.7036020563430325 1.3332812794818003 1.416296290159393 -0.10796807794156243 0.25684523539266085
P 1.6023294942401136 3.333788129499906 5.946414627910481 0.5647664635255305 -0.1610500453682065 -0.02181246788940114
P 6.799870374400828 3.8872233488978924 6.12054263105107 -0.4017037586026695 0.5146698039794555 -0.5272640957046985
P 2.1813475008293715 8.612230833316534 10.241196897049097 0.4207427775119915 -0.4421850065461675 -0.303477076318587
