# total energy = -340858.645219544 ev
CRYSTAL
PRIMVEC
9.37909294244087 0.00000000000000 0.00000000000000

0.00000000000000 9.37909294244087 0.00000000000000

0.00000000000000 0.00000000000000 13.72725057450791

PRIMCOORD
 96 1
Ni 5.6029106653205085 6.9100936036482645 6.576066588425661 0.016410065926907226 -0.928822072758123 0.2431389415501619
Ni 4.505087839134016 8.657221653534585 0.09309687631548165 0.7658645259545585 2.280625325440453 2.5622182000914386
Ni 8.438623134867958 2.3083166956107326 9.157380541634089 0.4024856310740165 -0.35411263908726753 2.7704251056511064
Ni 5.413143478287349 8.723034748548258 11.603328860468304 1.0256559884597367 -0.7138071431376869 -0.3030322754716846
Ni 5.815553459983475 1.8000824085078395 7.686711572541923 -1.8300814054066286 0.45179373328052513 0.4688218924074055
Ni 2.470359283974885 2.033734371309701 6.152183173491141 -0.02950983653365885 -0.6285239083881498 0.8150322459284609
Ni 4.7610808012692925 4.294855471351271 2.791409386234553 0.7350609103101405 -0.08599902986963899 -0.8920383282708702
Ni 6.517175263986319 9.271252108765488 6.49241258286118 -2.0343972034420057 0.007893286705147697 1.0726742661908042
Ni 5.383111622760231 3.1211745416346948 12.927445751061583 0.35071415492867986 -0.3109852117701741 -0.8536705271259493
Ni 6.518675918853383 8.652541486167928 3.8601710930110595 -0.927118459803455 0.24695934373751663 1.2937881096201267
Ni 4.264814236731234 5.900800035525628 4.3915811187171725 0.5347987135188467 0.8640379864032023 1.0491355596389158
Ni 4.3594211470066995 2.8722721737462953 4.4383630962886 -1.4425793922256382 -0.7724511780331406 0.9649859242731897
Ni 2.15896401996619 4.966933132658794 3.810245243493133 0.37338100039857636 0.020633359979635432 -1.3024882084972857
Ni 0.9022921865545156 6.390529372299039 6.796196712965984 -1.6553142675626462 0.9255305464910448 -0.16515301179298653
Ni 1.5302083888522209 0.2786762983602406 2.949244513515174 -0.47772716531683534 -0.4751581190380785 -2.142135681871266
Ni 4.098748017504766 8.934908457591854 4.53017128523699 0.05129170829544069 -0.1649054145585547 0.4386168295789349
Ni 8.438060389292808 2.2161952449588425 12.004741844587121 -0.4734061693439782 -0.15389697926319304 -1.1690289282631543
Ni 5.637772753700988 5.515300558362729 11.788867014504216 1.0553463164353178 -1.1810943440681207 -1.4539310697930317
Ni 2.544913693589207 1.3379276049167292 9.213456262379102 0.4369885499468926 -0.44961009536564506 -0.5830151253230733
Ni 8.972030907365848 8.959387890110834 1.386397819213604 0.5413727671919385 -1.1522650785412543 -0.8598440029265126
Ni 0.012694602266069353 0.34368372929216023 7.205502203776268 0.013986544087079137 1.309450498747732 -0.6039577890130114
Ni 8.125314535903756 0.029831142938648084 10.653197672570371 -0.9944314832278165 0.8546730002485344 -0.005511416736532443
Ni 7.037245966353179 0.6730211980551889 13.088562622954615 -0.03193592947664823 -1.2055987569673883 0.29705471773201103
Ni 7.921328644005166 5.791242851137038 12.410957862189838 -1.0253829373040082 -0.5961182383639346 -1.7914732061161276
P 7.281308722295297 4.122617808984003 10.769151398329821 -0.1288752604078748 -0.9164758924879443 0.6870740980182166
P 4.801879855467594 4.2429797084154535 5.934496302656258 -0.02723698133908212 1.6066651390963749 0.7414447023492972
P 3.565706029630722 6.212908110596178 2.045236890865746 1.1592769910827132 -0.7720256604599479 0.6662072818715365
P 0.8069311972083513 6.645809523372459 4.506999298270938 0.03292349020089814 0.507428806146326 0.4880601718117272
P 7.472013818620372 0.1382393884446419 8.538363222698074 -0.491454799315573 2.3108190754150133 0.029364054984413943
P 4.73937758025438 1.2372618006154938 5.749453364726474 0.09896561733263601 -1.4021472523525207 0.5147883318351909
P 9.258974876134321 5.255565338152712 2.2921902832455463 -1.366411232403492 -1.1439832981484364 1.3013332689572363
P 4.974577093387901 6.220852202298698 8.639711824963824 -0.5994267339118773 -1.0696586192929318 -0.6741895287460647
Ni 7.592713365396912 1.2462657298178776 5.149421205677401 1.3803509824130356 0.36244841264647254 -2.5931660546232047
Ni 4.141488543937333 7.356988623059917 10.266239746458545 -1.1635895024151381 -0.642206805191881 -0.04206299060832111
Ni 5.6818263531422355 1.6303583430429034 1.1888759981548915 -0.0748342715020711 -0.8897726721651451 -2.532130893787755
Ni 0.5938860394591537 3.089604514868836 2.422777269777454 -1.1500148490544968 0.7596735666524981 -2.1616025323466257
Ni 6.488325174167014 7.644504716496456 9.255557134674582 -0.20816422524718992 -0.5933550737965007 1.3326577901021308
Ni 1.4709419006961129 6.695021623919239 2.2319821341603556 -1.0421727551678373 0.978261044115541 -0.2277858561328593
Ni 8.23801371642026 1.3825533290260446 2.3966133521701933 -0.5350195712804011 -0.06084207098803715 1.6415210704332954
Ni 3.2352524488103147 1.2666652569170287 0.4720469328929373 -1.5000070382154878 1.1561569573964927 -0.8507656947743283
Ni 2.291368674705829 4.562600436914242 6.0634363204715624 0.14256767029330286 -0.29015721928122934 0.058344758487480164
Ni 8.012605976294331 7.831758306627283 5.856566357500332 1.059691223667575 -0.6620076419678922 -0.27380397473418655
Ni 3.7638299884548436 0.8502213384859794 2.5635912192284023 0.7930829953508792 0.09302431214753656 1.253897701183092
Ni 1.5675559368562757 9.269976552128483 5.133964460546642 -0.010509641282072222 -0.3531842137357272 1.1931816142499578
Ni 9.199351982447284 4.315836502211409 6.872149545334551 -0.8954643232332837 -0.3103761174312654 0.4539938262556375
Ni 7.498716096161191 3.701852942445101 2.9019129210986847 0.8499002614502394 1.0185769701257685 -0.6287074851538655
Ni 5.069737370145596 -0.00774806866050971 9.114386779692706 -0.580715016434987 1.7832582744055032 0.9887264624232391
Ni 3.5448000315139367 3.5132862793055932 7.716870045823449 1.910095935558059 -0.5709450815324167 0.4735488655694296
Ni 8.55807526228625 7.778644503426138 8.18974609053044 1.346353028201036 -1.9241740109176797 0.6808268315569243
Ni 1.3120319293669567 3.258015507325091 8.3986888330368 -0.45836521585045575 0.7898806863634977 0.4709006293133051
Ni 4.295980962501569 6.831599975007899 12.87185023987403 -3.071964598627348 -1.465998285370211 -1.431456285729283
Ni 2.5405617944747214 0.3994067961434135 11.686694927880165 0.3811179640315178 -1.7486663953632464 -0.5144551168654882
Ni 6.009466206086898 6.674472031333381 0.5941580331538091 0.44637770447127645 0.4634441730352599 -0.748578228070285
Ni 2.148496952268419 5.303483123876648 10.712691134775122 -1.4600554375232146 1.9845072605900984 0.3625337732714272
Ni 4.029455279018087 4.475027846328141 10.02037151512949 2.3012136911147656 0.0181347619274978 -1.6302439548575796
Ni 8.847485932492459 8.686672005300714 3.9944928343433723 1.3312341702817265 -0.01600383162742405 -1.3994247112150349
P 4.465404896993093 1.067809728845213 12.41352491992181 0.9887303190779811 0.7665163006059444 0.7370817973949112
P 3.6490298911244494 4.659186335795648 12.177636043458731 -0.024591830406751194 -0.11498410424807941 0.691501537661951
P 2.085985297962285 7.50733548255389 11.244484765381628 0.40811120479091006 0.7800737275754049 1.25912783923378
P 1.0527469056170582 1.9107463258608886 10.793009934897555 -0.3299429838195995 -0.9552717823092193 -0.5405433293121078
P 2.6807886127089318 8.265916517854732 1.396006699909273 0.5558107969941396 1.9649712474396996 -0.3930805357100327
P 1.9341471626941678 8.793002781725116 7.318861672434282 0.3559219243818645 -0.04774615703602745 0.3370513127296066
P 0.23614867733693934 2.149275416980708 5.038792928877444 0.08044827525473888 -0.3867329962254501 0.6231536452151719
P 0.9038050342423745 1.4406192932885014 0.4531546260258938 -0.7396608709759971 -0.06729142615780669 3.150804391744386
Ni 2.7174796242086456 5.814155975138521 8.158393658720305 1.5965054249545536 -1.3094810948753512 0.9099584030844006
Ni 8.07507073513587 2.772384834157349 0.49531083496959666 0.3323845033815566 0.027282232754720758 0.4964219135128612
Ni 1.7194409675889886 3.119195553028754 13.187247562831326 -0.5382136527376666 0.48004861436116036 0.4591969677231318
Ni 7.612268774133339 5.540520939222324 9.105229971275739 1.7207604129815977 0.838112267676376 1.8273393238851172
Ni 1.271880032580076 7.710552288833111 13.358907473074776 0.9009153190455259 -0.28182710214897916 0.24287951724118817
Ni 6.496953939652632 4.338290050659855 7.688646479411143 -2.269314528413324 -0.745482876974413 -1.5683672719574409
Ni 0.3172121774371517 3.8971913106722362 11.053250688215913 -0.7292353047672989 1.1239456627712707 -0.5962046274301539
Ni 8.751228301863224 6.48583971454344 0.6335989946974182 0.30173772502997714 0.5619773308161676 0.7455867495421289
Ni 0.44974720156836656 0.28333489381318233 12.632996632139209 -2.315890062180018 -0.5150346435180421 -1.803180724361043
Ni 6.006849439162455 2.0326276383452413 3.2097328748865994 0.54059166605154 -0.9154513078781717 2.3811698572244344
Ni 6.863638956419715 3.6957940484193306 5.182599746878894 -0.29266044531905727 0.1030996941056676 0.4231393027686261
Ni 4.136920925685707 4.57366776655884 0.5738757447161474 0.6222743279340122 1.8230610082247376 -0.865944973617928
Ni 2.0664017519470996 2.408025832434215 3.8634387689840914 1.2061949957904903 -0.36224915215147285 0.4820396766492601
Ni 6.993670700650809 6.1267986585054635 2.5111949166355716 1.2241808908449499 -0.278475669178243 -0.6626979831666974
Ni 1.8821588506433198 5.423901297865614 -0.11513024140114851 -0.05464185571459622 0.024194080747700266 0.03610265925982814
Ni 7.831927130299829 2.336172601580608 7.114202361664097 1.3393681122427707 0.6786905019402119 -1.8544117546218772
Ni 1.5244496257998628 7.469218848930465 9.16870485842467 -0.00928528195666788 1.333892176729864 -0.8635391923899127
Ni 4.158877382209436 8.651444132296387 7.141958849249028 0.4096782921677138 3.024773799874158 0.5668991935978173
Ni 9.335695856212967 4.327297753758611 4.501837983437531 -0.5112867464398356 0.43227468941099106 -0.20774770653506155
Ni 3.0379257128843205 7.1200914941080296 6.26676473795652 -0.8350115172638651 -1.3531026882200436 -2.492127356811624
Ni 3.0991336732746926 2.633893148113182 11.401716816987548 1.372539713898733 0.6629859467207615 -1.167732320938918
Ni 9.256639481997452 7.416348902145217 10.855537533661652 0.6157388408083395 -1.5858721136104235 0.019943533001462427
Ni 6.038588289600859 1.690478328654654 11.022337197954394 0.5840075711433298 0.6968144652344322 -1.0138790504294668
Ni 6.741963983979584 6.152150346665925 4.626289167381731 0.20087926155000246 -0.5960796718165153 1.6197597674968038
P 7.379245210557061 7.660777442711182 11.875938761528436 -1.6142403803404715 2.6019332592928737 -0.21917677430760962
P 2.7708372838256894 3.437812718585194 1.6268027289172533 -0.9957239767869948 -1.748285357874744 1.3231601350243407
P 4.566764754170345 2.4076788059962064 9.432666297904056 -0.513445187543735 -0.8802017406472582 -0.03615048177862806
P 0.4627288040777619 5.509457383474099 9.15556850088211 0.33967126685095694 -0.7497665919514314 -0.6748901543575151
P 6.279884213131827 3.847810386452912 1.080672216874535 -0.9304344115505653 0.32113464149935017 0.5273080615687563
P 7.726778119583239 6.019952031970507 6.9042166640251255 0.30219769538553115 -0.5341078580994092 -0.4346627300271934
P 6.763451485857356 8.472294078447705 1.835621667397082 0.6065468898964264 -0.4035341269431889 -1.7329458993041962
P -0.24731448745718723 4.408229946557955 13.220810646842505 2.248040449525896 -1.2033518699147405 0.7870133921180317
