# total energy = -340866.82682945946 ev
CRYSTAL
PRIMVEC
9.29022003158179 0.00000000000000 0.00000000000000
0.00000000000000 9.29022003158179 0.00000000000000
0.00000000000000 0.00000000000000 13.59717608604809
PRIMCOORD
 96 1
Ni 4.2382539792774585 8.29752258535781 11.254803908250448 0.2053933473702721 1.1047703753944005 -0.25181847160203086
Ni 1.34010490492627 9.184831471169899 12.202567969892645 0.012146919775179081 0.41115487671324025 0.6798914642268484
Ni 0.8851563419021043 6.47375026117545 13.028446206803636 -2.2784589139167535 2.8886225746301606 0.6924482178459365
Ni 5.198871988929388 5.2467909422643135 13.407725930178138 1.4266007574091946 -1.1276125700998967 -0.7887864248580544
Ni 5.4612277939271205 3.974179483630839 10.34716523461695 0.449564072619058 0.4731503445794304 0.5995450046572964
Ni 7.959628003786544 5.294737766258411 5.991812680831917 -0.30846013135547523 0.18405576223476044 -0.4570398121708129
Ni 0.4623203523749343 4.332977059580464 12.20931174039009 -1.9480073658918513 -1.7030951344913507 1.0512736890278411
Ni 2.376846974994327 3.2713650713120197 11.217764731233967 0.07189678614030198 -1.2492918269799647 0.08726169863214649
Ni 0.8521611975313556 5.21042902226569 10.015271205965233 2.266828014546044 -0.49452958158615473 -1.8425689963506784
Ni 4.3209555152579755 3.6664130846235836 8.066687566860672 0.8366793918845912 0.17264340663276073 0.0960939522117958
Ni 7.7739536723883615 6.399224118551803 12.659908764495666 0.0020118882237062127 2.025494501635737 0.4722064926089222
Ni 6.5706844137727005 6.954082491550725 1.2051598183294374 -0.6878081479707638 -0.27622543969148555 -1.679755688434462
Ni 8.979396842419373 8.386439278333492 8.850415147863194 0.17120461730370515 -1.8319107453058836 0.32699649959676585
Ni 3.362464965922776 1.3103947822498274 0.24823002590782245 -0.15256180539153724 0.8302498342091637 -0.5368383696566948
Ni 0.5975441455634786 2.5976662076073262 9.537263388564835 0.05194682538093634 -0.3049487757681071 0.5078095865245126
Ni 2.560969839698649 1.792352801076752 7.823297745428905 0.47664138845182424 0.4127543599898762 -0.40691769870344113
Ni 5.852132369241907 0.8585398623936589 10.824276545814014 -0.19154255753010885 1.434689705064916 -0.338681649244178
Ni 1.8650208997556565 0.768006671186049 5.5624958340254835 -1.2698182290680904 1.5743875100095917 0.26085307100047334
Ni 5.456211075276314 0.23774136783974736 13.063323549690411 1.0770690528243902 1.2881321968859298 -1.0779332005968985
Ni 1.9495247383625747 8.831041323651355 3.6157200716791564 -1.2483019522628693 -0.07457998939941994 0.09516064176424903
Ni 7.82467827207985 3.9742166445097338 8.978881235224707 0.17626506254574803 1.337891013476612 -0.6560357406551733
Ni 6.045982093996959 4.402142745423528 4.903250694166948 0.12227806680633134 -0.27898629026607435 -0.46754688234972386
Ni 7.891391339915852 3.207531971590369 11.04272863044141 0.38863921210922747 -1.0234993471280502 -0.7969522484982985
Ni 8.554462192256615 0.7342868896768505 10.822127717991918 0.35556659792497475 -0.3570480675665077 -0.016251171751539756
P 3.824216756850619 6.957426970651262 9.61600450387713 2.197679480574841 0.7993708852421201 -2.4339134674750533
P 5.6886523727636815 8.909766645590123 6.991246157511505 -0.5502237898246654 -1.212686259941789 1.4516481872961258
P 9.491445882931412 2.0951582227515426 12.255623485712812 0.3691998724376932 -0.27951310930382184 -0.019291244129444194
P 3.9806361863388213 0.4217666852369704 3.3747234108482194 0.1382872977503941 2.122940597000053 -1.525439105135347
P 8.641214264036673 0.4990873259535117 1.5673464664342742 0.562013840481058 0.307449944923406 1.2181079451779924
P 9.274714346996848 7.616493738291104 10.944706593114512 -0.36038253125637937 0.7262728797048654 0.9180823177431157
P 5.799298889673136 5.001129662110099 7.031561995024542 0.18295867251583975 0.4665469803302997 -0.08461166260380912
P 6.604500813567026 1.8127169627111368 5.359775807478227 0.5714793567693318 0.7272049046008314 -0.5566446057493446
Ni 5.1564714261103495 6.039321006455055 11.149534570517078 0.24403908476692807 0.9356257259435177 1.4015551272944766
Ni 5.692136205160074 3.9198038275879306 2.11166880124453 -1.7011171848293736 1.2239991138514468 0.4008781773775806
Ni 4.673463612454646 8.677696956891705 1.2970289431333175 -1.1222572193252542 -1.0068239433548982 2.288000791968918
Ni 2.7539741544588434 5.254715499688643 3.775255440862692 0.28525258289076033 0.5571886511782727 -0.14575558110298123
Ni 7.09655730123363 8.206701397338763 11.409689522462264 -0.7560079448754529 -0.6471230115465759 0.1428044688944573
Ni 8.144707761122408 5.640166716025609 10.547342528025826 -2.313836522085099 1.3237625444950298 -0.07557989141884404
Ni 9.058651706882392 7.458950192216332 1.7437965386687793 0.883204274919008 0.2391928124182203 0.7391844455602108
Ni 4.050173480970833 0.19173434172396234 9.088162089834775 1.0352767993789525 -0.4032765024064281 -0.311367020589625
Ni 1.7830718715727598 0.27156705785379637 9.803795147328376 -1.0972948929529618 1.4213405374515198 1.4522521394287118
Ni 6.908281708312806 8.656951896248646 2.7004940755973013 -0.9934974014493212 0.19410491894064635 -0.9925201251377166
Ni 2.8333497917782706 2.469526206958115 2.6478185297638337 2.194447603901105 0.11225667801458733 -0.9144586049475992
Ni 7.1118118420199705 7.170191582763801 7.217421201795227 -0.39279591459007834 1.1251252849016689 -1.0447767684495877
Ni 2.8652709867489583 6.066067549039633 7.530700417186534 1.50364694896092 -2.3060841318331895 -0.5587896771168054
Ni 5.74410569429454 9.115034050385622 4.781364869435742 0.06558344232776447 0.07042354402888516 0.16078162219816824
Ni 8.54169743035623 -0.07281209708462204 4.095374116014599 1.8561035405020032 0.07411796216133687 -0.04245765494357849
Ni 8.327966635392425 3.3123906816119484 4.682581963113472 0.7602942309556325 0.7412431278614525 -0.5313513784001945
Ni 4.808942886685592 6.818343091167514 6.059935075000008 0.6069289558261934 -0.2063657385858704 -0.38764059564138403
Ni 0.40115261669201757 3.644181588824732 7.399800292257407 -1.2555856304084763 0.2972997438632815 -1.5535541182040085
Ni 5.290965937050583 1.7459017024581736 7.098813895604519 -0.044713540857290734 -0.7428629228530625 1.1656453565029021
Ni 7.886495394121454 1.1447408743562522 8.41957470502207 0.10313877487371914 1.0104872511390983 0.3577859741737967
Ni 3.4509635990108927 8.671918440223553 6.822492103296125 0.32967918863525164 0.7506227693041395 -0.8513951008282111
Ni 2.21381290906284 7.168751598706624 10.899101833512765 -2.1260778570774543 0.2841387810012913 0.4538498444786055
Ni 3.3598451239606884 4.921995570503489 9.828650201177206 -1.0193125627402122 0.1250790265902362 0.6401249829621878
Ni 3.9455191557831757 6.082483367291439 1.425799749701769 0.03968754839760907 -0.3679341183513921 2.2624082882117937
P 1.1295234944488057 3.0471456182801404 5.394217439059958 0.023577530209623915 -0.3652861392055838 -1.169210191036025
P 5.494012979332114 6.473666649197937 3.057202281131063 -0.4983672101646901 0.007790185468380132 -0.16858234918950965
P 4.293279950701026 3.569107323237385 3.9623530339225486 -0.9497624224552159 -0.2404901910734052 -0.8249564470207083
P 6.211933288921694 2.421198483955346 9.368943187610551 1.0922550165362093 -1.9052720318068543 -2.234013539119185
P 3.867992272188768 3.6080519243192017 0.7980512417725457 -0.4183801908170859 -0.5645294078140599 -0.3386554239919329
P 7.177688790080839 4.533255616384327 12.424868063529605 -1.8199373749940915 -1.9439162265416132 0.6733878587803759
P 7.737647493708081 3.8145084772393365 2.4167075917409018 2.506774160190522 -0.47574715877232904 0.5411567945263906
P 2.6527572105689603 7.002057186203992 5.374256472961584 -0.8963490398310822 -0.3499302255748038 0.8419578666747112
Ni 0.9081477776743561 1.6081370341751928 3.3842551762847513 -1.7937069805426527 0.677121614791195 0.3644901256668497
Ni 1.0712923972205557 5.583031864724758 5.9507220389939235 0.33020420790078614 -0.9648537695706995 0.4907469746152709
Ni 3.7306921148919727 4.425024556603039 5.81145978729148 -0.0003679248623800115 -0.041137650580574316 1.064370374310799
Ni 2.1034915498437154 7.7544813718474535 8.505672745333577 -1.1700316584960557 0.7735187000657064 0.7230962817490967
Ni 2.9964303088083764 7.37888707863735 13.326292509189907 0.2700537636631349 0.6924523316109945 -0.12550814370785482
Ni 7.547411664425554 2.968076558211596 7.0504759533600545 -2.830651140321699 0.6864598614729854 -1.6090611501323773
Ni 5.575441755210482 1.587085396281253 1.562941044241288 -0.5868530110119248 -0.2885639066521804 -0.13513486816434148
Ni 3.8646663735276774 7.719782401179375 3.758109411340603 1.924634752604182 -3.023047561211671 -0.4947802641443801
Ni 4.488811205226071 3.0995703281810685 12.309292156034747 0.21828228751779827 -0.9759961593407643 0.5401224397246053
Ni 8.309218971989967 8.543509023202354 13.467390508309755 -0.06506485082013311 1.246875504228988 -0.7895582700270725
Ni 7.326852557964818 1.8422134103339343 3.195050561391557 -0.05823548660312551 -1.11890964300926 -0.7677961957596325
Ni 7.243389223966957 2.0447680709701084 12.862139196463485 -0.2755723794885189 -0.7145982715804146 1.3607514630145532
Ni 3.946150890724388 1.6785476094612344 5.167035334958187 0.4855867705705702 1.0145274826467432 -0.2918857719365618
Ni 1.7162844819789675 4.768335336273231 0.77045928919311 1.4229456771551106 -0.29662920015881816 -0.03143610702209424
Ni 1.8243761884644 9.065414986841256 1.2519658033414622 -0.6912498266624612 -0.434378108907239 -0.2271495081004411
Ni 6.103609326943169 6.187760137200585 9.118714835440159 -0.324787407760589 -0.818159735813849 -0.9506836487179048
Ni 8.621296032949026 1.2549321704992444 5.999549575817829 1.6526200085599345 -0.7871324341943993 0.5686591137117174
Ni 0.7313967023208024 8.149770930871833 6.29713761009578 -0.5366208543292501 -1.3837494665716232 -0.9582138956566787
Ni 6.743305986459062 8.570692206113947 9.198353385977766 -1.855058644177257 0.04511463295045134 -0.9005797900829781
Ni 0.6316243875979574 6.711607756761745 3.9055851463007834 -0.4774535999404745 0.274162900735502 0.27934058828169955
Ni 8.394744734766494 5.293576488792946 0.9239392931607281 0.6526521688949213 -1.5344611061282991 0.5240209061770523
Ni 0.9318183285084114 4.0916450218175004 2.8200266876724895 -1.8005173185962668 -0.45171762862695114 0.8493765277362856
Ni 7.4869044633649935 5.8262683975310825 3.198042012142593 0.8311016406864977 0.14233061458183227 1.0854809310371691
Ni 0.7810278431508091 2.2993108011801957 0.8469596035080472 -0.1374151795580859 -0.5500003609599495 -0.10397489762176933
P 3.3475448730464885 0.9890275015670529 11.200238731725175 0.18684823737823306 1.4975583195646789 0.8141724690313269
P 1.979086217523438 6.659610396968107 2.127155597523964 -1.1356197566750892 0.5950100929014204 -0.6005521057655722
P 0.9950754346071917 0.3547832720070076 7.764816741290087 -0.26648070159989595 1.151402987651275 -0.8001026212018221
P 8.764281804716735 5.994449245189508 7.871826137177707 1.3454546847564828 -0.5327549436159406 1.1689412536453545
P 2.2646675718304596 5.364730281656885 11.996012940643437 1.933210667198651 -1.6509786163017697 -0.5036446565135455
P 7.896073610656605 7.414710165891998 4.8724796283980565 0.17325301519230163 -1.2287201734762 0.47918009571327796
P 5.178879436083952 7.42746563757266 12.910749342145854 1.4755797584110586 -0.8568864629600856 1.6105176800732455
P 2.1714866680015907 3.9247926755795657 8.257252269921418 1.8618774668713032 0.814129017387901 1.4697317842707138
