# total energy = -340861.5533239477 ev
CRYSTAL
PRIMVEC
9.34076766242242 0.00000000000000 0.00000000000000

0.00000000000000 9.34076766242242 0.00000000000000

0.00000000000000 0.00000000000000 13.67115765322238

PRIMCOORD
 96 1
Ni 8.353355226035609 7.769314379259839 4.0631779436135185 -0.7135304924375324 -0.4064029638505517 1.0901497972677483
Ni 1.6594621238603073 5.324097528220047 11.79309576656964 -1.6506209758520347 -0.055196699776801715 -2.981157605846104
Ni 5.773379118103739 3.0840693232014837 2.0459027643666414 1.270987309675527 0.8319932992628317 0.4958675836712879
Ni 7.317744301267839 1.3480596073102227 0.8793127914310086 -2.3805959869988356 -0.5250040960259281 -0.4088617098036894
Ni 4.7234955001543595 4.302404347457907 4.962247392995066 -0.04093761875462627 -1.5391204592771814 1.139046008747819
Ni 6.190220221456192 0.6638371578437413 8.016069441942172 2.8018897519182904 2.910886785345 -0.21299841341103962
Ni 7.290852230803274 2.6174606090691745 5.404482307658728 -0.841043582390558 0.29116123506571145 -0.6131358559678538
Ni 1.0345647587753994 8.64881305196985 5.7891752905117375 -2.3096127138117386 2.5872568882276217 -1.186286172681705
Ni 4.556790817423861 5.130510115792772 2.613173196654018 0.42261016973803345 0.5755890080623313 -1.1745043495554288
Ni 0.9719255699822844 8.57921499117392 0.28365016137215077 -0.33426089446866303 0.20567822560054258 0.24443734864661124
Ni 0.5920225328514799 5.097481160890825 2.534878881046519 1.2512553784642386 2.3375315517091937 1.546345773381027
Ni 7.162977119771698 7.404258492529669 10.091050950512786 0.194212133942472 -0.39326514091701303 0.39284450843982666
Ni 8.716113283889682 8.871534319131053 8.590791938771622 -0.17186847613994916 0.4792196907019618 0.5938286709988095
Ni 5.64497158330819 4.296099329200324 13.579889368776204 0.33308178655889736 0.11585313711659402 0.3500348694734681
Ni 8.103508369215113 2.7517528275718015 7.625826174868931 -1.294610862631738 1.1078626411664791 -1.931316535499732
Ni 4.068604929698934 0.7280138370149277 11.708827095884292 -0.829452792229165 -0.08483611990978937 0.5667395280915014
Ni 1.5514081220770153 3.53926361909562 4.422237057423143 -0.3852762091742655 0.08320655472616638 -0.18864441004670737
Ni 4.34001027857647 1.4075976611973855 9.281499683314014 -0.6018427995525377 -0.1305081680256075 0.19012922212234998
Ni 2.775553103898204 7.484075353286778 4.722920108858557 -0.5698235663334638 -0.6280058311011507 -2.0062407956124484
Ni 4.600533632979805 6.188809765520052 7.422522495787525 0.13005796786206633 -0.5625982522296181 -0.4752681622533814
Ni 7.966516668821462 7.720966565183913 6.659876828118056 -0.7457487290412899 0.3271777623696366 -1.3043018646672568
Ni 3.443828994595284 4.984906227497652 12.916414632722677 2.337630282070587 1.356801734338186 0.5376390111811192
Ni 4.830307179821713 6.5135041946339 4.569010409845447 0.5389752134940395 0.29978960016467077 0.49340703794593727
Ni 8.490599127159562 5.521608063118708 10.40830358992913 1.0906118245058312 -0.3798398686500426 -0.25563296025211457
P 8.018759583065407 8.76008961864035 13.85011311052843 1.5876117220093495 -0.3902386953858634 -1.4751498699624919
P 6.944104248939568 6.280498742136993 7.896829870731538 -0.6923561723527625 -0.7328271358836154 0.8337514196045189
P 2.4016608508396287 0.8632167803769829 13.38454215569748 -0.9771780954640074 -1.3136773923448861 -0.9069180735961799
P 1.792222456445536 1.55722742040957 9.18734661215433 0.4750303352109625 0.14292196830892806 0.47365633768157134
P 8.131100997263855 2.245707391834283 2.593978852924377 0.30556121254112534 0.4011761682339736 1.3800838447945778
P 2.6940735864746514 5.244532868193243 3.6965303900521014 0.14591884615372291 0.42892274221962257 0.26550188262639435
P 0.6456123858105999 7.307889791250432 9.692071263326483 -1.4839486992010444 -0.4617994383429853 1.0794627498675475
P 6.58611932342568 2.602683514426958 9.016839302856924 -1.3760037611879334 0.3873652304928103 2.12367336140102
Ni 2.516486909269954 5.566266273917974 9.049280723464943 -0.22869371265910937 0.9035702401698696 -0.4674424955613756
Ni 2.676008541570702 0.6218924400871827 7.49878052401702 0.9545050793465238 -1.1666537431627584 -0.5928099999263081
Ni 2.0102359766410776 8.742071277575345 11.162323058545445 -0.5424467169824078 -0.030083706759257867 0.786162356971646
Ni 7.489997400065012 2.5066791030914914 12.512253621643806 0.397114082349458 0.767685124103065 1.0133182928299902
Ni 2.484578846502689 5.448077539083605 6.345864501047721 1.2766046558623045 -0.8629961754022492 -0.12215902472996382
Ni 0.6941610263939901 7.124614586462226 7.464821228643287 -0.6798035324987324 -1.3529137121376895 2.3014805716229074
Ni 0.7298156711214282 3.057662972661947 1.9325002389473616 0.06135757717187498 -1.8742712125499656 0.2571095447976411
Ni 8.38738364309098 9.25118048514766 11.050465496118468 0.26463747774357005 0.16224200879377865 0.6456531118692687
Ni 1.4678642949720915 1.8066446019117706 11.323013220896598 0.2825058733835586 -0.85829079950678 0.378227015636968
Ni 0.01338999062554881 1.2130855127589983 4.212917923885613 -1.8537311836150852 0.5276747008795558 0.3786934137504252
Ni 3.141290866676972 2.8316070514000655 13.084008556546689 0.6783739991410576 -2.272305749831164 -0.23337594862612712
Ni 2.6609138608236584 1.872693170947875 1.679952966159063 0.7383051282790511 -0.04639658498666849 -1.3359991957705377
Ni 7.148816515803556 5.098172377707212 5.958532751294316 -0.2954596053307492 0.7542673080352623 0.7504085964108044
Ni 3.671575594826976 2.380205107228268 3.877919693823705 0.29253728947763163 -0.672502370851629 -0.14024467858708103
Ni 6.675631901147782 8.219726202046001 1.7322995629254656 -1.2044121928584548 -0.8448015067710934 0.023707628029584978
Ni 6.713882345243786 0.5705004697888171 3.1591718984554773 -0.7033769489432984 2.542314519188977 -1.0946453711452566
Ni 1.0019000938172242 3.5943087636762683 12.927843062112531 -0.5949874671936012 0.42106056586272644 2.8289860939144504
Ni 8.938535646481636 1.8501258759696215 9.367518813883025 0.6412087029446699 -0.43003937232256906 3.1079952669986604
Ni 6.794521193566328 0.2973633425631994 5.3104926999353514 0.3296578484790129 0.08892108861244041 2.1602442185465183
Ni 0.3133790230142395 7.174148678047358 11.906416093232378 -1.9520964483595606 0.33469772489576555 -0.2966055460097344
Ni 4.342485582040557 8.667261068353149 3.2691155375624863 0.45949727257237 0.97889070727974 -0.8290617274383336
Ni 6.390841232028594 1.4878909011117334 10.886465899739667 0.16005091467973082 -1.795139342113805 -2.1803253055671097
Ni 7.3266834160419245 5.878210554999821 2.065315682062545 0.22467764952118077 -0.9086365989491835 0.7850557541710286
Ni 0.4441030682214635 5.908371894190542 5.547592210954181 -1.3876228334841005 0.17498722427458896 -0.9641220336109977
P 4.758439312453054 6.984568455001568 0.7403137600394988 -0.302589274396995 -1.7449537223983496 0.6303283085867402
P 3.431125550402227 4.028308857457136 7.843498757040173 0.5304350372335123 0.37129943527919923 -0.9953362544302728
P 6.573098293127797 4.665031634562934 3.773021003399542 -1.282186006604824 0.20883322628975648 -0.07471831474949713
P 5.120664946543153 2.115609178068923 5.909371356343966 -0.03654951698925964 -0.5631153010753527 -0.5162101518833819
P 2.5357942762898418 7.636264482873152 6.754754742858167 3.534840557863964 -0.13161528504685718 0.8963063595186047
P 9.071221252924554 3.1665015989395155 11.405888249027829 -0.18961114483535085 0.8110233818793839 -2.377558999944725
P 6.209686381528493 8.004496230651585 4.104478148392635 -0.09168039652513242 -0.829948500918661 0.047595747501092224
P 4.680920280572043 1.3383171865062828 2.186114227417165 -0.044142241734853004 -1.7924646234951196 0.6107542431095546
Ni 8.073319007721027 3.6846993735705382 0.9386332054286876 -0.3168370425652608 1.113336776907173 -0.2523028674376171
Ni 6.822356681577584 6.777287476995601 13.555458590624042 0.8970298679481906 0.9013290095441768 2.096058427897229
Ni 4.8809621635415255 9.176884018153858 6.490108373552761 -2.328069377855029 -0.7954190996832237 -1.2530860039150742
Ni 2.797251707472079 2.5587258612118666 6.1730332087244095 2.3777775437134343 1.042101792720586 0.1349302083527031
Ni 5.54324128131806 8.215747034967881 12.140316391283472 -0.48270713502992996 1.5683287054100217 -0.9048010272531771
Ni 8.604892761825914 4.328044755038745 4.296461750990537 0.0566120920670896 -1.071987781646741 -1.2774459208166773
Ni 9.153774958643842 5.016515385695668 8.26571827448554 -0.266596915462786 -0.08011506028503622 -1.4584063319555656
Ni 4.852883815567756 3.0684515594582553 11.57072104189341 0.22353350861440857 1.67294586460148 -2.097812691584174
Ni 2.69163564608172 7.2387027242372195 1.9438333925057698 0.29278514382237963 -1.1291230932071523 -0.05152233624900804
Ni 4.363969347955285 9.018006898830551 0.5663400918155911 -0.6882886871516082 1.7385025674563672 0.3443835847249618
Ni 2.267377973104791 7.0023719584074255 13.02643953650945 1.9408350165131285 0.7122272002450767 1.3607686894057338
Ni 2.7780190665945033 4.134476024147047 1.2175905650636387 -0.5294593035838042 1.4850946398800293 1.7980662859526129
Ni 5.920001150087862 4.711473932009902 9.951468121134464 0.2247964344872322 0.5490423679220544 -0.12403104494169606
Ni 5.644738064113465 8.04870608459698 8.483199370917108 -1.1966950267198553 -1.7460168735555415 0.9335770709446052
Ni 1.9328944193480577 0.09193744104013024 2.7825456026650586 0.4505603750940563 -0.9242835614578211 1.2131477729592397
Ni 3.801944690858218 6.395577001297623 11.071450465033262 1.0233011150743152 0.7632556275768017 -0.18091798793672711
Ni 8.99022745542603 9.227408231124624 2.1914048382928613 -1.1139831522419201 0.6352105763797061 -0.7647910903847216
Ni 5.640366584788207 3.800851821026903 7.452489547008233 -0.442849893823676 -0.21345169889837434 -0.05304700042365058
Ni 0.04106668558439159 5.968881387927762 0.6134904194609662 -0.05597908646878101 0.7670035246550081 -1.7713563807615946
Ni 0.8670380884794678 1.960926063482883 7.1609660524667245 -0.5703174752507469 -1.2208932212326136 0.6178144923904457
Ni 1.2693729794555848 3.828248292952076 9.84472369499519 -0.3841122707731514 -1.1610196848054326 0.3491210994099471
Ni 0.13818545051708683 1.5313254713306397 0.12257515938808985 1.0766337650591844 -0.3292570134961684 -0.5917897861919098
Ni 2.467531945287742 8.095213767418471 8.872690706183333 -0.9753724097138364 -0.7996441935081647 -1.5780207358868048
Ni 7.819063308504118 5.042669535504903 12.528713922641606 0.6079648532898755 -1.2679734625498678 -0.1741313040321969
P 3.4845360606197984 4.265872604635081 10.577798359998207 -1.263908805562191 0.6903028893681594 0.011434724199502888
P 6.029204066309203 6.276108581276158 11.762445905223556 -0.09344828705883261 -2.792592642887081 -2.97008026498602
P 1.993534683834324 1.052891345177441 4.754500310676428 1.5811970767322574 0.44478387762159527 0.051417178129711444
P 3.9185361544006665 8.39227820541242 10.165189558530953 3.7703003856023134 1.669625027758363 1.8073983619868161
P 8.482192436149452 0.711436776419768 6.5122973674355595 0.24612527787199545 -0.7339980162632649 0.5002556854366547
P 5.513845885086039 1.8446241637418934 13.03610536301752 0.1817746795100676 -1.4939340925485305 1.9276735394305062
P 0.1745882907444247 3.700195707332509 6.25510119451867 -0.3714714420806893 2.8932253635094947 -0.9862060099942306
P 0.7388528639572973 7.531358319834757 2.9595737019559727 1.2052290323327954 -1.0240199955182105 -0.7138917324316931
