# total energy = -340869.9167165198 ev
CRYSTAL
PRIMVEC
9.27015778238253 0.00000000000000 0.00000000000000
0.00000000000000 9.27015778238253 0.00000000000000
0.00000000000000 0.00000000000000 13.56781295642843
PRIMCOORD
 96 1
Ni 0.9887642752290554 2.4984650543957896 8.159437870385785 -0.41999484360237344 0.902761114005013 0.13906145691225727
Ni 6.461309087660221 5.937090947947225 1.2087933188852809 0.5901422232861577 1.8284780654752508 1.2752260303472231
Ni 6.205554710809316 1.6364887240791932 2.841791828644116 0.026688565034779843 -1.6696021449402279 -0.01808539674680111
Ni 0.09423207858665184 9.053977483154235 7.301748987939483 2.8880867567313486 -0.011948944831760067 -0.19252446182740393
Ni 2.3379337359744214 4.544407367627458 6.360129025984303 0.8193763818297695 -0.23739432575690084 1.5716063477200288
Ni 3.421003324034832 4.406569394906587 11.847101911637795 -0.060446378211515245 -1.215558182172945 -0.2775485293782833
Ni 7.5903586572053 1.777339498006217 0.7786218546077891 -0.9409988173299729 0.025064142057479415 0.08572263627980076
Ni 5.647129689709541 0.7165915223282521 7.003650385397919 0.35257949027219276 0.28106194184818045 1.4637223448518404
Ni 4.917132592537543 4.726593774102896 9.197267235534609 -1.296474141092722 -0.25182207114645666 -1.1357783937401407
Ni 1.6641786847031252 6.787182936275244 6.6791086584238935 -0.8584044422665087 1.5737195374082897 0.6480671206274
Ni 0.6034742787656799 4.813019453010467 8.223763493676532 0.19165697162078607 1.3919800820115316 0.7501548285287855
Ni 2.752634234304381 5.847652467833502 9.763859265442445 1.7235973682097605 -1.46771243984784 0.4583191931038687
Ni 3.108802957816963 7.306330299804346 13.188646667792204 0.6448375579465088 -0.32785730493516435 -0.9765301774673634
Ni 1.3687480335065794 5.372436380968883 12.582450670767676 -1.2877573300450145 0.4936523211875241 0.8193586412179565
Ni 5.79966086215888 2.344626789730859 9.990577654792085 -0.9424093245242544 -0.10113691395234194 1.7177326818988676
Ni 8.31085384288097 3.0869624666117463 9.60299885642779 -0.4620524348940559 0.4292808968899897 0.1591865097969065
Ni 3.8904811833714246 8.37658853012044 11.290115618990928 -0.574390616878856 -0.6400715040164332 -1.6634592652672837
Ni 0.6333538506046679 8.082891398387128 13.12126838161781 1.1259565225537125 -0.01959489141279206 0.07355309079680236
Ni 2.0311934925578568 2.2891078161196345 12.433231725613593 0.08548866589212373 0.7749330639147299 -0.381262202918866
Ni 5.448368241521486 7.772016664699965 3.5657707395298543 0.508160284995712 1.2370731734265856 1.1937138326043442
Ni 7.636190316169048 8.099077093482334 5.958400259124404 -0.5838031684420074 0.021927653311026755 -0.9135695174744266
Ni 3.3968731039129394 0.6306024678416338 13.29320013980326 0.9558795910965472 -0.6634045223154187 0.8903856231587955
Ni 2.618087167516384 2.1574344981744296 1.7853609653406288 -0.03271420240356947 1.5691434880018331 -0.1100110765135202
Ni 7.4130947043928375 8.765174994611225 8.333852176765104 -1.1574034282090842 -0.3298954184111157 0.29595351424803223
P 2.2570701516012854 4.063054436459846 0.6276527037068713 0.5522302787317327 0.3148261827828191 -0.9273673425894674
P 4.609956651715781 6.089223503621596 11.178195152769014 0.5147996446891004 0.5432334745497611 -0.37194169684888845
P 0.24333421975551064 3.8172562088255804 6.374307731968335 -0.0601761552692641 -1.3715588380427024 -0.6863837568194114
P 4.018094172306491 1.588812303761523 11.283807276773121 -1.9941144446625594 1.0672803488687426 -0.6380128217151916
P 3.6362934631477186 2.5079762360496742 5.435903587669816 0.34426634242080706 0.1468038198618375 1.9976761938718886
P 8.157618138457268 3.755906306110756 2.03294647935196 -1.204240700277597 0.7316297731414045 0.07488415090340006
P 2.2529727419609182 6.081649784897206 3.6695232699279483 -0.02658314980516712 -0.695964458529311 0.12891819783066832
P 9.333843539811918 1.2323654755222189 12.322015791366043 0.7201811649848306 0.5937245413207775 1.1765982559699801
Ni 4.096807080126313 0.8271094137117313 8.96064460985065 -0.5471544068707221 -1.3150434194544771 1.2728706427411691
Ni 8.972372286176507 0.7467399287364044 10.12400303251564 -2.1004007640263245 0.32583898895355495 -0.9325146911183617
Ni 4.4160156854575705 2.838744727855001 7.720763817596652 0.06564463458300307 0.894657511061272 -0.9059595663376526
Ni 1.6818939557953025 0.28591298043237073 3.311048131215087 -0.2548803983568062 0.31418700653692344 -0.40561543495224983
Ni 8.06525028855541 1.6508481981355945 6.488928595086716 -0.46142251461954087 -0.45052335120853376 1.7025444041942033
Ni 1.9789932353521789 6.319392245614097 1.4111200696699095 -1.6185055833747286 -1.6121580438901462 0.48164886896874465
Ni 0.18739438099118058 5.161772050477135 3.4643505807732 1.0756744864697088 -1.682069681279619 -0.20746874184206204
Ni 1.842814620834081 7.672121446861502 9.129577472066284 -2.358491184679996 2.289053144492832 0.3955999596977768
Ni 3.8330340169882624 6.127129177873774 7.313403430020637 0.2568305801046416 -0.8474661980874502 1.0689186558031138
Ni 0.49236865939306207 7.278575448077513 4.380965219733069 -0.035805953955015755 0.649610810965436 -0.6864500912809727
Ni 7.366373110303579 5.259247757193119 8.849714196455867 0.28578480124514655 0.618003211362484 -0.9177485885527807
Ni 8.99348043493469 5.842933957636789 1.2034518541007113 -1.0695300641348675 -1.4897460226091117 -0.6236146440119905
Ni 7.9922292574758265 7.23848201664179 10.265162502689323 0.7059915037480099 -0.9118304232961328 -0.07064620156265253
Ni 4.317473910622486 2.867472946125361 3.50596339103258 -0.30144076261484865 -0.9610865892187835 0.2249825823561093
Ni 7.398058508834746 2.166083555175477 11.898551286081323 1.5065214422952378 0.5299804661945969 -0.5308050189784214
Ni 1.4942103458883311 -0.016484194168555576 11.1558624161975 2.0993581816944227 0.1153242611963175 0.5906381890859699
Ni 7.297616351700397 4.218496438382205 13.464385650305337 1.518160826306379 0.4375930163001109 -0.6760605205165325
Ni 8.087443045747808 6.640130426942325 12.675714944905335 -0.12371505636317404 -1.826179242138745 -0.04961174948985649
Ni 0.17324255846406494 7.9513200521750536 1.9026683201191423 1.3609877473950756 0.2789698352058421 0.41264868764994744
Ni 7.5235764421618425 6.104500723276178 4.029002366704276 -1.5920350478880259 1.1523314130028155 -0.07373795311409882
Ni 5.638165447351542 0.4745106278745009 11.87955580623047 0.6034404830569609 0.9388064376643444 1.0197925877004244
Ni 2.6867604947015487 1.2843617892616344 7.11303453651213 0.9049061853724737 -1.851805427347282 -0.8599851564900673
Ni 5.496508169717026 3.1749455319889597 12.649149454393115 -2.4379344157089884 -1.2649891831105633 0.4969309919387958
Ni 3.6748202379562422 4.792347001657482 2.442328688291243 -1.6362505660629756 -0.30666241602510413 -0.4769319231090496
P 7.476076154837763 7.875508703670696 1.0249614594434064 0.8566771751627569 -0.030965080922946673 -0.6346971270783972
P 6.595948856023791 2.4862747972078183 8.149275923671372 1.35830968634228 0.1826084882652726 -2.328367111601106
P 0.6236674629729483 2.6123767504610305 3.0572757140499522 0.7638503237380071 -1.3342547022756053 -0.10224865895928195
P 3.19389373403627 8.266737163065338 7.694129727918509 2.4765382441241153 0.1726673178921607 -1.5229870440504285
P 5.480266853676473 5.659403378315528 3.211514449521362 0.5857700623603912 -0.5512013232465862 0.4974038178101563
P 2.5169775590379024 8.435342788719195 1.31914156638546 -1.739953698080597 1.6936802689353543 0.48336662299079974
P 2.8590278325905762 3.7573524506897087 9.067070653688296 -0.6551361116590395 0.06166405266870026 -0.6027210883924329
P 4.9683316727270235 1.9403737589680812 0.9698151461659891 -0.8991176037151547 -1.2785718068910046 -0.5485849686696618
Ni 5.404260831863412 7.061904055488576 9.146225748023605 0.45117409741865516 0.6790517419343723 0.6762392121862417
Ni 5.850785781087899 7.423653413850707 12.523484125560858 -0.3011204031609524 -0.11905133233891756 -0.24060743337755983
Ni 2.0679218568002464 3.5160687897858933 4.440093992697142 -0.5893346397831979 0.8079789386261053 -2.507089377438095
Ni 8.780340972375118 5.8947355980674985 6.027161652806363 0.6851537410670523 -0.45929389831231227 0.73744715115413
Ni 0.982330785884225 1.7643149266380802 5.635580927424542 -0.3579626089609771 -0.20682339494857926 -0.9282021797859369
Ni 0.6271409910097033 1.0307858994367163 1.258547181511563 -0.20290451951014732 -0.8771004760141153 -0.46381698299364643
Ni 7.301621059765191 3.9837853191865813 6.439785635843467 0.3157759482905981 0.07723851006818956 0.5777909008096566
Ni 6.248253056518666 4.561631320369093 10.913107581289326 1.83999737896876 0.5934648599014877 1.623648561028249
Ni 8.037495436828577 2.21591992220402 4.20252117586355 2.0243210501529263 -1.258042062368769 -0.19637211770826826
Ni 4.743178085973072 5.527479766116274 13.421850459368999 -0.6577349827344673 -0.8696951846889798 0.10557900888409559
Ni 1.3201631377482848 4.078442898005117 10.620584978518536 -1.2411684265418819 -0.9642485318865329 -0.6479136257686713
Ni 5.267998785927297 7.8693811295252605 6.782644267135145 0.27788740077494073 -1.5321805376242386 -0.5350249705970399
Ni 7.776401449224612 8.663917063611825 3.245950303799808 -0.32888368931714973 0.26285081815679245 0.07614784810717208
Ni 5.963807542027631 2.3093909208552095 5.5426003201081375 -1.7739974179288676 0.26621510664333503 -1.2379648320029195
Ni 3.9258839150831073 0.3991766924843496 4.742859192553097 0.4563826382027882 0.5603814470839574 0.5620382659610902
Ni 4.038201144048476 7.021310035544753 1.9213374904239753 1.7719479915990062 0.7308599848549154 -0.06911665229200355
Ni 5.625928839375785 3.739405425658597 1.6969672319836229 1.1303695640197433 0.7364567622164027 -0.8428600667740065
Ni 6.554121905124836 3.7823633357795545 3.8896070075137623 0.22983862489683 2.5657133577288906 -0.8214337785794306
Ni 3.988967337261164 0.37046886856061617 2.3650053770892754 0.5398432179212896 -0.5716577913287252 -0.04533780470485095
Ni 3.4621628235896553 7.347044831796415 5.18046254214435 -0.5287144549979799 -0.376573539193945 -0.8523150415393191
Ni 5.791401151775243 9.175768813143259 0.7364037030599115 0.10745899951562785 -0.295105307315124 0.22591306459017868
Ni 7.833412918202577 8.983709688869197 12.278178143292887 -0.3123576666376685 -0.38184095824047143 0.15243402156442137
Ni 5.160205393849936 4.774511218517058 5.692673973789011 -0.6899442204771602 0.6857373814846641 -0.05319072509036646
Ni 0.21653697530435578 3.1563588660863875 0.36457119432260293 0.8095753365789475 1.0016120601366556 -0.7748194211550011
P 6.495655021410362 0.3108200397575733 4.697285243969443 -0.5905014063977895 0.0898968222621484 0.7030154518388215
P 6.612069660016098 8.793152330119437 10.305215145431793 -0.4276806422824054 0.3353353584797644 -0.42282948483769117
P 1.5014596090982122 8.853686458969209 5.285110569762489 0.6471965450969885 0.6161332480332807 1.7106523780133183
P 1.8443905476188378 7.112593277012397 11.313004565015886 -0.2162976529876017 0.2039008219851456 1.1807575295539923
P 9.14028265001356 6.943301659699293 8.312754225180235 -0.3918795734233961 0.32808664733715115 -0.41420677616568663
P 6.792726490494565 6.103277062478603 6.798491601479507 -2.0914067880578306 0.41306957723744986 0.2607509982049703
P 1.6677476953627213 0.7754542417704281 9.089403390259811 0.12061816260540517 -1.1206379385542764 0.20601786832814842
P 8.419045851733298 4.5369819714239865 11.44265884264509 0.5597116747104426 0.21479355763824942 0.13671352550537097
