# total energy = -340864.6174916243 ev
CRYSTAL
PRIMVEC
9.24158661684114 0.00000000000000 0.00000000000000

0.00000000000000 9.24158661684114 0.00000000000000

0.00000000000000 0.00000000000000 13.52599616763460

PRIMCOORD
 96 1
Ni 8.600192905475055 9.098628645289272 6.740910412648022 0.2013903968584661 0.759791323177285 0.41523161788577523
Ni 4.697082673995536 3.8906618141262763 3.7702772084764837 0.7458047790902058 -1.7118741662355614 -1.9881759676909374
Ni 3.7209585566225036 6.9301919716832305 0.8619544788131096 -1.715884315836219 0.8372630323022032 0.32674710259012113
Ni 0.3380979063236413 8.027898404348951 4.9441574199351495 0.15623745447091159 -0.7391217106430755 -0.8955766804414318
Ni 5.5210440655176924 6.49911815769513 9.170476437324197 -1.9344571380112427 2.4012440022664907 0.7289668815972608
Ni 3.6121019062855795 7.045517732745671 6.859613973667856 0.17686567224422442 -1.6324047099543242 -1.0566336677881738
Ni 5.969159365474151 3.6647512260045247 11.103869062622735 1.4163140307712059 0.3129621329908868 0.19276460286266803
Ni 1.7009325246465383 6.04569818694375 8.053635299291077 0.7928539100592087 -0.8846980858557151 2.1084102645943625
Ni 7.0083111044872055 0.8875527499539744 2.916651247643138 -0.9142796561675738 0.8416884150634084 -0.21841289955839158
Ni 6.111026963684705 4.892588441707365 7.7258325206077565 -1.549898780839608 -1.1931787860364804 -2.097974928193651
Ni 5.987143493291084 7.649418460559292 0.8117384688856331 1.7985907909975154 0.5827328181959641 0.6541418660665702
Ni 1.6154755719624787 7.806469985801306 10.207717940355874 -0.8393834210793157 -0.27438478693832097 -0.7476780848535187
Ni 7.505055633926038 5.652403979592661 2.127747815459899 -1.5590750480222375 -1.0851014362105635 0.5303332215483254
Ni 8.794663615470801 3.6588088857238015 10.115376005542515 -0.008002301479186218 -1.469159713817328 0.1928947006826291
Ni 1.123453493353272 1.5784075675052749 6.591704994557383 -2.5581185761007683 0.38084234177262793 -1.059687367012833
Ni 1.0377192930666903 6.465811479045477 12.121902851751681 0.38554488945461984 2.9707420669397355 -0.3530942251250822
Ni 0.9945795661142527 3.8407757288458013 7.704569477811661 0.5625026071920184 -0.4115865649340202 -0.7851498565467316
Ni 5.450124128792542 5.585522616277581 13.526131461289802 1.4462763814612511 -1.8937516898720803 -0.8630681662907653
Ni 0.8342315668782505 0.34711307419898463 12.185110684333344 -1.0639546269296192 -1.334973839829817 0.2946245110239636
Ni 7.555385315370549 5.543122216265202 9.202262874953355 1.8607621223199375 -0.45496261792681 0.9600388646805597
Ni 8.847516250098261 0.18802285491975756 1.660680793553706 0.7810695158297709 -0.31077283864905186 0.2467929933629814
Ni 4.721434255083726 2.2081570134607067 1.9841012117998273 0.5109918409072362 -0.5731989105636 0.1611140658369225
Ni 4.41928981785515 2.648629521174305 9.877250812212317 -1.3522925336139227 -0.5236609517344724 -1.8388339547882784
Ni 6.911671831834755 1.6156604036974935 10.176324270163624 -2.4697965545249074 -0.9535110908643708 -1.920905110358421
P 8.267394124994285 0.4728587243228796 4.466879368828067 1.2846840904363295 0.5261227830114036 1.4679091292396782
P 5.224222782257541 0.10667009091169997 2.041397201337043 -0.0818785799433622 -0.6006945448807074 -0.542305563418853
P 7.012377402657529 4.128004245058689 3.735541780515166 2.1726297366950647 -0.9980945339017003 -2.045651950420219
P 7.689794953073259 3.7164579038748946 13.496333813129402 2.4474348990002563 1.0841478140480425 -0.4607473429293872
P 3.3049208042778515 7.929438539106606 8.845947952826663 0.48085645497443635 -0.4106008039819832 -0.12240147975807306
P 4.811752282398673 2.4391689574688646 6.1257340248398275 0.6245739226014663 0.22714359456317013 -0.20330895403741758
P 6.8843999093333315 8.539179949746693 9.081448535519653 -0.3872675285726815 0.01881404738270953 0.41128266054035617
P 5.012599687252427 1.412049764405269 11.639565956057245 0.946229469601293 -0.7137559781847772 -0.679504770311391
Ni 3.4002662547851994 5.387882042026332 4.6567976731904 -1.4160630911026644 3.6390332279234943 -0.018326823333645857
Ni 5.880199851411562 7.204842688328366 6.983147187923625 2.43636629989092 -0.5320995694201288 2.6980454663371147
Ni 7.655979987152315 6.228321182725052 4.731393913124995 0.831718191224574 -0.17831114644149937 0.18256143707742106
Ni 6.949238881976498 0.7321989041980701 0.300973528187258 -0.8458060367762079 0.166951498454306 0.4581199326088691
Ni 3.875598027722576 4.633787046339743 6.505679684288154 0.38488617282469845 -2.4138591199273396 4.403595233016545
Ni 5.873989505115067 2.877608316097301 13.456485939377577 -1.4157866975128262 -0.5383789746709373 0.13018703724076286
Ni 2.820652416952513 5.243010928121788 2.6004133906196882 -1.1113909660347117 0.07308437869049993 -1.78939498343086
Ni 7.695108865454933 2.8836800385925354 1.9259799485657711 -0.6028414160203811 -0.0038821086632255717 0.7648111449893795
Ni 4.875685579540267 0.9242326077676473 4.19810445303905 -0.17070248085630602 -0.15306625583178154 0.3447967610029804
Ni 2.6923976760257933 0.6128493562643598 10.728157898223596 1.136714789511481 0.5827078784952996 0.7481331701130663
Ni 2.879549049314956 1.7635165501225252 5.308872020259586 1.7444276746915504 1.376510525621023 -0.6964048885008394
Ni 8.11396530175856 1.7980246350497753 11.882519878464706 1.7933130875383436 0.8078735233964925 2.546744272825556
Ni 4.612845610762573 8.975826440545486 12.951777010476958 -0.5513944130939987 0.9180576351527672 0.4644849555949484
Ni 3.293091573236909 5.47444798512048 12.564203345324575 0.23265244019654124 -0.22089812787409052 2.3897879379107487
Ni 1.3171756348222086 8.005256516809647 0.7755511876457746 -0.04078489522684589 -0.9880967992590403 0.10628374826060405
Ni 1.6704537715426095 2.4247890484847185 9.472633812774223 -0.952943391286359 0.8846335511663669 0.5324433259127928
Ni 8.855491739464147 0.21926773556532228 9.915908369590648 -0.28438303580161345 0.3129914435669255 1.9834777908843197
Ni 2.142356915795463 7.363003203980469 3.38910056967296 -2.5747261027504624 -0.4346653011303546 0.2999492656709866
Ni 6.619101678479941 8.857450955855304 5.699219085595866 -0.5681760034277118 1.3936667256853352 -1.159878629222454
Ni 1.73257571768106 8.177538177016874 7.202295707019863 -1.1926205995401655 1.1171985738554242 -1.3394393318003384
Ni 0.856727437346893 4.350282889587401 12.349842892323894 -0.8271449700315949 -2.1001022589492995 1.2025800247457226
Ni 4.718874335553772 0.14499587532567895 9.480762712480171 0.699723411351111 0.3534966027698235 -0.4397589136031781
Ni 8.287827273300163 7.351987232573592 10.685996855308062 -0.6849840482584074 0.005513473619061472 2.4188599155760406
Ni 7.592619668389267 5.17477105155435 11.911100409650034 0.1462559177781675 0.6517656525249098 -0.2108785388545594
P 4.948601699003579 5.575828191776059 2.1424095928399423 0.40347833400458905 -0.01839341490552316 0.0039764681492447645
P 0.332962356566257 5.631693583684259 10.132432278049675 0.9943916311288165 1.025330486799518 -0.018542538888877743
P 1.624171905094922 5.61450423232789 0.7482801893030264 0.7300508586900588 1.221286085795658 -0.8980115151351696
P 8.037990217080754 6.171855087678052 6.8762784028967845 -1.1845378225320309 -0.08774635157804889 1.3851818281427757
P 2.6993843156093495 8.080695589455908 12.550365917482699 -1.712805419800579 0.9913217339542411 0.480679820187256
P 5.393426994076774 5.711531651623872 11.095483246805117 0.6755565842969204 -0.136283637056804 1.7411896273702272
P 1.3492624240207656 2.5358914044020717 11.468773115475562 -1.0028029951209634 -1.4061602301666558 0.01822989274446538
P 6.966160227317097 3.284561588665979 8.773407965944106 0.44442032363458944 0.07215286801516604 0.9566084988427719
Ni 5.939151933294509 8.123687451020334 11.235869418659528 1.915266681125721 -0.15313387584492336 -0.10333032205923494
Ni 6.100593212243124 4.589113215986682 5.416701930308504 -1.4955384609211726 0.2077209670621842 2.7351950788042187
Ni 0.4888475935603287 3.99788270360832 1.4101256660437653 0.1340766021031562 -1.040840409509659 -0.3126829111875712
Ni 0.26058224913448946 2.5548089324808294 4.371818559192643 0.5224152522528294 -1.8912782886309234 -1.677634785436717
Ni 4.263033069073699 7.621046789234531 3.201238518362665 0.29353667727642346 -0.03721903225245848 -0.29324897083267565
Ni 2.568560413565925 4.989190748012812 10.610968109113532 -1.5097031824573288 -0.5564808264779706 -1.8435624706121991
Ni 6.463621222985552 7.7731355823914 3.517908881646049 2.3387883069344304 1.1249445363494304 -1.8395644051963993
Ni 2.905120519854244 1.7451350340753107 7.884181564629574 3.1787013752649704 -0.3339467056623539 -0.6089436722633771
Ni 3.8885916986941114 3.079019457742851 12.21992651409939 -0.7333974065647886 1.1896463474031898 -0.5918072696934066
Ni 7.024262083218977 2.1181162337482817 5.7614519307753245 0.3390261770677903 -0.5907775428773115 -1.518572974143133
Ni 2.2284515379653236 1.9787531055471763 13.232644542529314 -0.01382944968392457 -0.7277888021287595 2.4929591086843
Ni 8.913066824921236 7.561410829932028 8.491472106463366 0.07370709987616338 -1.0187577186780068 -1.325362541992298
Ni 1.6851201697160283 0.3769273572155354 3.4975524385102017 -0.8296931903747453 1.2268808062746162 -0.5280768214139808
Ni 8.522674475809877 3.887094561640492 5.746519374903485 -1.496462772507655 0.9030863585549156 1.139581569536315
Ni 3.434256810854408 3.803790898669354 0.9251253450477683 -0.00697206044245896 0.16767577821484025 -0.8148232152414482
Ni 3.1370843472977277 0.15406372024550152 1.4576560708614779 -0.25067587335715535 0.5027218875889601 0.10571193491753407
Ni 4.359062397000601 9.236624018651268 6.859276655751454 -0.04888952661185129 0.8820868734851132 -0.27340133997912913
Ni 2.5531916547994506 2.853339909289868 3.125099857599373 -0.5737720094582506 -0.23823610493190583 -0.24300987217146536
Ni 8.578345794396313 6.422671752093039 0.22566661023153217 0.20951816817192304 0.8645007849722336 -0.03105866907801748
Ni 6.049912350502086 1.5432340883319722 7.7389260007162 -0.28851608413338053 -0.33330675808550986 0.7918002719837138
Ni 0.34875253168856524 5.033550364416347 3.523021327436556 0.19656957843105502 0.6350228858489321 0.6779027159315938
Ni 3.79596327469148 7.154845704006882 11.0234570921459 0.001470413897939403 0.48866335261336485 -1.574643591884456
Ni 8.62874940853483 1.8236977630433209 8.213417713417934 -1.9129951114827248 2.255628289175483 -0.7202174175394047
Ni 0.591531788106436 5.633745215942924 6.025168926135663 2.430961841045897 1.2274058255401505 -0.8582188086182637
P 3.2895890118583804 4.369921261432716 8.764831773439424 -0.20779244373006794 -1.1364800477928556 -1.95569804966789
P 8.743918062622507 7.278775382334257 2.7017908247992413 0.9398626468430007 0.428931483970371 0.3731542290997509
P 2.7537340872904306 8.945144372533042 5.2534973566078484 -0.24559125974539642 -2.4284868971428435 -0.01413772495296275
P 5.3084598454905025 7.0624945276067725 5.099936378681587 -1.7199055211804701 -1.1814404145536297 -1.3951494808784488
P 1.9924306539382663 3.7437021016160656 5.257460149006564 -1.3507503859377834 0.9587692539395166 -0.1985516418580903
P 7.941757574245337 8.512906118614348 12.67870106021415 0.5086030289600854 -0.8077161718830218 -0.38685846605972085
P 1.2277078334883296 1.6932527660566763 1.7165979383477117 0.1153466297938207 0.28223385066909457 -0.21764182572032198
P 0.9594430532879529 0.46651160254247387 8.397114581579672 1.6152500525519082 -0.02566937974164612 0.5076584056586289
