# total energy = -381172.8099505819 ev
CRYSTAL
PRIMVEC
9.17320684291053 0.00000000000000 0.00000000000000
0.00000000000000 9.17320684291053 0.00000000000000
0.00000000000000 0.00000000000000 13.42591545655395
PRIMCOORD
 96 1
Ni 3.3097848180489144 3.8199068593773147 9.088700666194402 -1.3134902160347444 -0.7712733556749555 1.3137727802721695
Ni 6.649428424886247 7.636942504963301 8.34297122428893 -0.27432873688940496 0.41202056714764523 1.8608266570092857
Ni 8.976735253501683 2.9203913540613353 4.000224589396958 0.34619055602671345 -0.5424562300641045 2.1419564759809244
Ni 1.0982163421657272 6.8929403779361245 10.155241924585502 0.2604378378399257 1.34751233861646 -0.174183497426371
Ni 3.5555992460560555 6.3799287764023935 9.635430224701894 -0.7358782640051134 0.3206397041408026 -0.49664174283315116
Ni 1.1317627601685676 6.821123340324903 3.386311380134475 0.26633980514665745 -0.2962767019154059 0.4057972119457527
Ni 8.278268926027721 6.245055113865953 1.6368074314218866 1.8761763999924785 0.6466545565505896 -0.3742711163130135
Ni 2.612125732791044 6.692689269103199 12.925370644045437 -2.5386396414405508 -0.16913616481045063 -1.983782980829564
Ni 2.229988275541296 8.761568510085052 3.6617974635072135 0.5716783601540155 0.23304530475958576 -2.568048947840603
Ni 1.4592737697270621 3.2553326612906806 1.685637329609177 0.6898246641801603 -0.19795000371834942 -1.0488131433024908
Ni 1.7075007511754798 7.894434425482778 1.3091083711198708 0.1341205679672142 -0.6253215994007683 2.252141359068147
Ni 6.240817092231468 7.463972513751498 1.898746522695474 2.625016623474899 2.0944376044643542 -0.6952455780854155
Ni 6.653198612963678 4.439566165505255 10.81052079349852 1.2613161051343502 -1.3814424157050016 3.7579007263863797
Ni 3.582302451636113 6.76388252863835 4.503669453349294 -0.7480041007343698 1.2059975350677035 0.24550769889265459
Ni 3.752492961126597 3.87009347488006 1.914468482174574 1.3336186113535033 1.3900841505403996 -0.34374543692033055
Ni 2.4437423450797673 3.5645156032610767 6.834462100625131 -1.080325612088475 -0.5454911602356863 0.583740176414556
Ni 7.818250941339057 0.769039478215842 5.0066042869923715 -0.6326358736739944 0.4315812628883922 -0.37990954554571343
Ni 2.383767917706901 8.59228614808767 11.374234544768456 0.07755706974987288 0.11542864798466572 -1.1627808904709136
Ni 8.069550947132827 5.7225033770511295 9.656200199993672 1.4861017409883053 2.586242330920178 -0.6749143227272313
Ni -0.25267690416462724 7.70734686869636 8.356075150489929 1.5187100139416296 -0.48534560109404146 -0.9233245399786614
Ni 8.797426576252155 5.501640072086845 6.944420415626018 -0.9801063248543959 0.43995123211964227 0.23553541817129114
Ni 1.8359164759831814 7.380872431528984 7.24683903475384 0.111096339157899 -0.9992605291853436 0.4782529559133182
Ni 1.8867635623900025 1.9677721534162766 11.644941387293647 0.36924255275017054 -0.1642796080490977 -0.24319936247445215
Ni 8.918210192834984 3.6409926300288316 10.463325916357174 0.7994043095832167 -0.9424494337335704 0.3656306670291961
P 2.6614592400426917 0.8741809422204788 1.8057724004570304 0.026047589016671268 -0.27466143763847534 0.5027951640290566
Ni -0.12978895389575865 2.8761214570742673 6.7087955859556425 1.0898872876349812 -0.461496819500902 -0.4132055885946819
P 6.306533947186991 0.5824647037007824 8.924796555461738 -0.06587037744056397 0.4331558064643637 0.15572966159655763
Ni 8.131360015905903 8.083613473465437 10.523555358884668 -0.081362302428576 0.26146782176633676 -0.1215051931960488
P 5.069591195544382 7.867501889727696 12.441460124401836 0.4284689425116556 -0.21915723392358383 -0.8401256985619789
P 4.744336794908146 6.3838365625848414 2.8067417405632242 -0.20149529786744655 -2.0076986111048973 1.7239290405175667
P 2.508716170268205 8.303541111315614 9.064990678058788 0.2086437359867697 1.182162637431635 0.328054508547635
Ni 8.37689007449601 3.6281501402273615 2.0450353240240218 -1.0761591394156111 0.7950702009842372 -2.0168746211772106
Ni 4.970997566697095 7.8552097923462885 6.509971828132081 -0.4113330541623174 -0.4093275936965144 -1.2116459916027325
Ni 7.6606735914750175 4.167571404717116 13.06785990303415 0.2959352594155871 0.3394702065837444 0.11436061173146757
Ni 5.981407971448769 6.715255358325783 10.592336064978543 0.1457625230815167 1.166666341568249 -0.552650654098603
Ni 3.75618976354802 2.173141911755788 0.3927040743942579 -0.2459087909858152 -0.017471417311886037 -0.5479074829866628
Ni 4.8808065954627695 0.8898937284925778 11.686507940177506 -0.11468045696473152 -0.5428143847344716 1.3444658384806523
Ni 6.331310779296828 5.157103590334401 1.6797297843005004 -1.1074939449731507 -1.5086922246943113 1.1303004013447049
Ni 7.307954609077637 3.9614310969895166 5.622289759847456 0.3003552428601537 1.1049804345226777 0.04381365475084067
Ni 4.606105738609321 0.625043978637557 7.57274014648365 -0.2694613814947746 0.9442826302875674 0.27310540600526517
Ni 8.481877428623031 5.482009409104597 3.9922631630407466 -1.0547781026366738 -0.4202334419757408 0.3318767105072026
Ni 4.448757718920307 8.503608756008518 2.9162166275551575 -0.4734848451007136 1.6696371119432212 -0.013814537285589111
Ni 7.555245923411948 1.4972508467114098 0.8281452028857086 1.5028100548819214 0.3565783270189407 0.3852373855165301
Ni 0.9204028976573705 0.7051150679083237 4.99497724711854 -1.1818319935650936 1.568563190018331 -0.18128231325468133
Ni 7.762835597845712 0.17880690282657036 7.320118281561029 0.6627391208172779 -0.01786711008840794 -1.011140568452381
Ni 5.17884409092689 6.000167179765918 7.919302989662626 -0.22937428366590173 -0.4521269482502278 -0.05372782854075908
Ni 5.513014848768147 0.46455046626788316 0.7143405621892799 0.6067430650676324 0.07383282682075026 0.23514795292488538
Ni 4.010957241588186 2.9635146001732724 11.532377881504463 -1.2331185596542118 1.809667360526651 -0.21992805065133736
Ni 6.55005507344387 0.8632354716268258 2.7817695191442655 0.41448651218963456 -0.6198294659379454 1.6689377718833516
Ni 4.346036146922548 1.9141088924601328 3.0992652212990133 1.484967627383862 -1.015130920558697 -0.5838972708177105
Ni 0.7371965247530964 0.667855335711458 9.868437021094168 0.048614932794225955 -0.11481621121164742 -0.7368930784228729
Ni 6.484897784115411 6.331650187955867 13.015002049652697 0.9427795633794795 0.3374038109730189 -0.5939263729189385
Ni 2.3023832251935836 2.3482309137848327 3.7659023551207316 -2.4728337986893347 1.2809251376145294 -1.5289890272701345
Ni 6.702440388145316 2.1017009756316094 12.214012291452198 1.0552450149707635 0.8199595080267491 -0.7524850193238588
Ni 1.1036560539173499 0.49322682867386614 7.230862977440811 0.05411529378716486 0.6867982186490107 1.5808828879259484
Ni 5.483477122224765 5.437390930251489 5.283312241537649 -0.3738473985120336 -0.1601802411687435 -0.3212994492119886
P 5.772011175235797 2.921253635519434 1.4510059582570156 0.8175969213318436 -1.2657659133755876 0.44801575429533164
Ni 3.080748185646693 1.7970129050917274 5.629580624771891 1.9502583667095577 -0.45953429645789245 1.5060789554411804
P 6.79611717804004 6.570410419779201 6.486879196827638 1.9943347882034814 -0.08364184249137208 -0.9446389851857215
Ni 7.096035180939376 4.255588325892193 8.368279185084127 0.469964747762597 -1.0562390034529163 -1.0428728665586555
P 9.037287592915616 5.791320775973007 11.535560067013124 -0.8095928200804444 -1.684068971097835 -0.4575792296140507
P 1.1623095394820646 2.690097992299971 8.52082411358739 0.14714757635450143 0.02052640208812594 0.40702439948463454
P 4.947449944325399 3.151602036522805 5.587543486368879 0.2429916173390202 -0.7651816409549208 -1.8640317942101445
Ni 0.23624126918084562 2.5718461808494326 13.095476760031511 -0.2222415292758624 1.0339673365389097 1.2816324480941992
Ni 9.227604118566404 7.405208949702771 12.835484223283546 0.14464692141983476 0.12063538899658578 0.003326493270071691
Ni 1.224861638022226 0.19652586946979886 13.285587805845473 -1.4717359591849364 2.980069257877932 -1.192060099051005
Ni 6.408209773586631 7.6782219364680255 4.397913384475586 -0.28832556538912923 -0.12652012991213696 0.7802673316434499
Ni 7.254236308879487 8.733966330218891 12.563327096731488 -0.5545447857975224 0.9489856921901914 0.8468041390234191
Ni 3.295456268713274 5.5773282030525095 6.578174622184889 1.2666971669406055 0.9105762391740576 0.6873818590666225
Ni 2.789810752401386 8.717206881027971 5.733591032353299 1.3517477168540464 -0.5437268692464119 1.3876745126576424
Ni 3.552737205471728 9.088730937777505 -0.10637250838417785 -1.723338201011103 -1.3801167549150424 0.907925688925088
Ni 1.9116779926048546 4.925370035073872 10.937717399095783 0.6396747827986468 -1.3136606801743378 1.440253315195623
Ni 3.167003851077568 1.3948595101656878 9.728565795383556 -0.357250670495617 0.11286808634634109 -0.7933938417230787
Ni 0.5818977995081175 5.072746778752744 13.372856193329266 1.5163903646695176 -0.7181525645905761 0.7000224306487687
Ni 6.7550487302963385 2.1228635641830316 6.758068550041084 -1.8947778171437495 -0.09230388904174426 -0.12807333333186977
Ni 6.46182716850777 3.4253305334341424 3.490455716538098 -0.7706776310724857 -0.3062106731996662 0.36040747095704384
Ni 0.5675582423240758 1.1296804421793292 2.5128881448122833 -1.0147627385860007 -0.9440383754872451 -0.8913736981036777
Ni 3.6177477234881708 4.4517206647816465 4.134954232583482 -0.5314686207043492 -0.6720958794418296 0.7551900769598479
Ni 2.2089357654738855 5.629496231267482 1.7360780429458513 0.17514071913331772 -0.26383709332946176 -0.5768257086829097
Ni 1.3796778525789497 5.610489346361305 5.422297335451961 -0.0678706957000444 -0.5275366326397947 -0.32802442664064796
Ni 4.296922796638924 6.552724476681176 0.7840275811348578 1.0765653737150944 -0.1326262428098748 0.1527466677088337
Ni 8.094749746764712 2.0862808146628438 8.720024890218696 0.02122059994167313 -0.38803783107980266 1.3427686532838874
Ni 4.562578871389338 8.679954487396706 10.048411673171973 0.46500740375732175 -1.582211634039701 -1.9115218693713079
Ni 5.3335685734136025 0.7133434345882657 5.017452521591813 -0.14624769024805134 0.46426744026750366 0.4315110717720891
Ni 1.6073018111030088 5.256137533117739 8.5113059940031 -1.2540170003697757 -0.3940351863138182 -0.7823676658159042
Ni 9.097711507431534 7.710539144732726 5.545413698575156 -0.04958886667172105 -0.4886931774100357 2.131078138505523
Ni 5.58825349259076 2.3774567512901785 10.043296692948186 0.7867236287917547 -0.4141031607082868 -2.07275549150523
Ni 8.50353537035251 8.196287975059336 3.523698501389204 -0.7021585031551649 1.032038494947313 -2.6946297557873464
P 8.586984034441064 8.481317862995967 1.2521831177541536 -0.34051510290849096 0.5226772476649644 0.33070377324502404
Ni 4.303399080781666 5.5658892139222 11.698738577072007 -0.3779084559552846 -0.31252504545346815 0.11621283444885792
P 5.193888150408612 4.61596693613545 9.558849540695025 -2.0223829525899495 0.9775565618493487 -0.141468266581537
Ni 5.354410099719989 4.135125771554401 13.143448046043503 -0.4775680140311517 -0.7868884365043933 0.5441351604284242
P 8.790280647998339 1.2321176447600566 11.660810118084765 -0.8026521270965532 -1.217516848561213 -0.6401393811398911
P 2.9472871969884142 4.30159195900246 13.169144950815545 -0.691777417031157 0.3911018147171071 -0.08359761951699796
P 1.2682967731721984 4.576467106788928 3.4333561722393613 0.013967775034001753 -0.6758422338581392 0.5829192231751574
Ni 4.996838490819053 3.6888584241603115 7.597295904304761 -0.6066638750902649 -1.6121886400177654 -1.2882653800296844
