# total energy = -340890.8216993144 ev
CRYSTAL
PRIMVEC
9.06505013799792 0.00000000000000 0.00000000000000
0.00000000000000 9.06505013799792 0.00000000000000
0.00000000000000 0.00000000000000 13.26761718626962
PRIMCOORD
 96 1
Ni 6.618121096549616 1.909507469670982 11.287385154132288 -1.3797753124152237 -0.8226972186728863 1.6109028313268066
Ni 4.6221874396164475 9.369273138945335 5.844013866279195 0.27560014740266087 -0.991425349411641 -0.20776853247066798
Ni 2.811688446689497 1.4279085551882729 4.71699607866816 -0.7252128138714671 0.5240432747745556 0.4437068425073326
Ni 3.577957128173929 4.1642936310379355 5.019975433778983 -0.08399254096257147 0.7122655096821797 -0.9240305649067504
Ni 5.225548106491194 4.505057927804543 2.704988274970433 -0.2670561144873917 1.1924930728233658 -0.47510309743042695
Ni 7.545675148683178 6.321621439220943 2.7072971432204516 -0.3717900017623726 0.30188710612364783 -1.3608435085077273
Ni 4.861967078726169 4.541617274692355 11.670289242603006 0.9467678586032662 0.09116566167224299 -0.1419734883527297
Ni 5.791270685521112 7.889240545918005 12.647621297620367 -0.8693437148868319 -0.06354481463118089 -0.7069926913190147
Ni 1.9553131676189393 6.641536120851926 0.532311524027585 -0.2633259580209982 0.628910345193291 -1.2968405232932052
Ni 2.625791465130273 1.3668463779910751 0.18346845464842731 0.6864850582839662 1.005567445239978 0.38718576749215255
Ni 0.2782698416600923 0.2139243033315368 5.06690338492424 0.17337925635752077 -0.0413875618078513 0.34177391501625654
Ni 8.511266150864163 2.4399307437712845 1.3096540706640498 1.9030408284834903 -0.2240150762365174 -0.2328432160511087
Ni 6.896853255762715 0.6607922915233279 4.426806602685533 -0.5300110623222163 -0.3116475279445214 1.7466056561794758
Ni 0.9580126203316894 7.590021373571642 2.99528381203875 -0.7082131939896771 0.12909766083132604 -1.0281324750246874
Ni 7.7253444408518925 3.8730517027434628 3.3198497708549897 2.694986624906133 1.1310059120521618 3.3146253149895113
Ni 7.436087758520333 3.9265898883917187 12.600906375151492 0.6281487844369182 -0.7959605740089905 0.44739200466840373
Ni 7.554413856940021 8.686239747102332 7.17032405992159 0.3464548654316936 0.6691077433477831 -0.9788773375433012
Ni 6.927819466764144 0.7730284893134028 0.4177202262321904 -0.09534730385375838 0.5371934390032683 -0.9538013684112798
Ni 1.8408215853741934 6.450064133506437 9.240138781340342 1.24957104878328 0.25815675511523284 -0.09913068215559057
Ni 0.3031008267816131 5.2784789337854985 1.3588165566488426 -1.0667730702150209 -1.9120173209504876 -0.0265083307031737
Ni 6.182318814964805 1.8605380692524456 7.005792494846345 -0.045646337084205256 0.4126826262116764 0.3150444694412123
Ni 3.4889745967951145 4.6348331844487065 0.6669048547780889 -0.055147334596105026 -1.3586943233752085 -0.016488484573326443
Ni 6.255229012589073 5.715468736928035 4.538201563830136 -0.7949295616413148 -0.3534930032253977 1.5814153633906507
Ni 5.155031082082495 2.721110466500305 9.288326774443794 0.42236077273138867 -0.6623400856066465 0.027962803761513135
P 0.05448820289443537 5.44835797189053 12.456182850960094 0.4261881168972789 1.28146635482998 -0.798544789796399
P 4.0793813071355975 6.291507342925056 12.73493585978833 -0.1210778758506431 -0.30819016552354017 0.3318702827492994
P 2.3378945403075586 8.603348929363145 1.3410109853230208 0.8954314131128192 -0.861487966287839 1.2018025231497496
P 6.2133031560663525 7.702427994302825 5.662366580187615 1.0925031279912731 0.3864164934262958 0.3689221932962743
P 4.854424957077109 0.8707778306042437 12.589840668544513 -0.05279477520352843 1.1304816641175757 0.13770674265657576
P 3.9649622452913236 6.152966182873873 8.317296742227429 0.19999068829746203 0.9060603535815751 0.02247324140185162
P 4.781115897250247 1.3326983344189487 3.765137720821503 -0.0952269762258102 -0.7272301014118121 0.1986251754085031
P 0.36039375616429264 5.551953363964398 3.621767608603908 -0.5848547496349734 -0.38888552379207864 0.20359563203990097
Ni 1.479951007576799 1.0964087395819297 2.614038627728823 -0.16842216946256156 0.8257054093715908 0.22467250731485824
Ni 1.9178019904749364 6.286557825592861 5.0998729719887015 0.4815370259812288 -0.09281836678431755 -0.9609150966379257
Ni 6.0121134350576515 5.5485086449419905 9.232496944140633 -0.19076377038255532 -0.24407867975561193 0.022758633852754354
Ni 8.49857508078161 2.4599916995517765 10.037867719054415 1.7510621492889324 0.1145488164828737 0.18653533412350454
Ni 2.577157471563918 5.0731646149999685 7.049562182551058 -1.574665703371643 0.6900473217139277 -0.05931355015865269
Ni 0.39911602399617363 9.070670390002983 9.196687276892698 0.46809992663971645 -0.025490688071936742 -0.12355127709180011
Ni 1.281807143387911 0.9611219325019149 11.233904078299403 0.30260521523659495 0.3806592792275444 0.8561778669288351
Ni 4.182142714604041 6.9787559830454775 1.6315186445627177 0.2848250084350385 0.6348917595877066 0.09814594964481807
Ni 5.576528714674256 7.701086366894098 8.100424484616717 -0.8557104403741134 0.8397431184115796 0.0928348218445498
Ni 5.685445291132738 3.218029315582667 4.6916420401582375 0.18472604882890764 -1.0739883570165376 0.46708768332511813
Ni 0.6970960039994766 7.735161890065753 7.089896216283424 -1.9456895163919523 -1.624604754293931 0.01378548381986658
Ni 4.946181393773967 4.603604086995567 7.093438837846468 1.164341292979498 -0.7596532549375239 -0.21647120245098847
Ni 8.215219746038438 7.0235373303367705 9.089180315718385 -0.9129719930997438 0.6873769739706161 0.9150059928106371
Ni 4.761689494973882 0.3941293399587362 10.500138133801396 -0.44936146968994867 -0.9777097995977614 -0.9680568498890296
Ni 8.32624847916066 7.170508986942794 4.730343458374982 -0.2814028701273669 0.21588833336432497 1.175318360816292
Ni 7.338520624735678 6.167071400765623 6.869719747926217 -0.0281414954312225 -0.5860127744988166 0.34447948687287766
Ni 2.2971924655427993 5.48958581955871 2.604155003649532 0.9202011638583314 -0.7934295800570207 0.9840689090465696
Ni 2.3477573147717137 5.271770796741864 11.463778337209693 -0.5351656099399622 -0.8773542438961341 0.2990084990242722
Ni 1.3216571034471276 3.3863491650775552 3.895412461723915 -1.05475110605348 0.26029308473194523 -0.8977094105137186
Ni 3.6014356078266516 2.904904356445849 2.7138774630582554 -1.0393131742318553 -0.6656812341647375 -0.6695229765083307
Ni 1.2466528792592393 3.3911808367589846 8.251117344271945 -1.4717153903596458 0.2472107976266904 0.14800683903100317
Ni 3.407298495763827 2.636180012497848 7.332521374606653 1.9602437600570435 -0.05928963889925273 -0.9303251396662108
Ni 4.252115836009203 6.716014572136395 6.012088052917487 -0.11633239074585772 0.4297028149187567 -0.16554510502508263
Ni 0.8602641855458545 7.324469797144279 11.250222981415556 -0.14212029834323908 -0.505087302497343 0.9135661750403169
P 0.31703290221723857 5.631970560834894 7.980007079148424 -0.1895790060458348 -0.7760653777469603 -1.1995890604381985
P 8.516070627395417 1.5496884376804279 7.8638892269231 -0.175151260656279 0.30010327475034765 0.6837956843772611
P 1.8874340727773988 3.0785997806257046 10.44310083883038 -0.9282407463333562 1.5037875883038425 0.4210978468585651
P 4.031490647674078 6.1330502678943235 3.7911816096409137 0.5173882313518832 -0.6690637774837251 0.1628719290682937
P 6.686806980846405 3.856716482537206 10.479772592338923 0.3679068646578825 1.0048272246398438 -1.0548652630338413
P 6.3201982263616845 7.684633301037074 10.300632699093653 0.3644340756179337 0.42099937360748785 -0.48832268144449453
P 2.073575810688215 8.32528758385441 5.654896978939027 1.3893899526868523 1.751013041218552 0.750270013950411
P 6.879611530550561 3.8227316098661404 1.5308177229726774 -0.7251613918082415 2.8707870891106366 -4.138413966954363
Ni 5.301603876485923 2.792561191065078 0.264985010798677 -0.46908800158459857 0.4692898331827595 0.3859015014630902
Ni 1.528032033089557 1.2117071112819238 7.158091681372022 -1.0578006915130813 -0.5057102807933226 -1.3277431264093327
Ni 7.025885178302043 0.7474505440670233 9.30572079249694 -1.0409810488525812 -1.4432792465061401 -0.6001067906980375
Ni 2.658144628790724 1.5084333948620716 9.286243625940244 0.9353153937919504 -1.8312520286759622 0.06042323828306368
Ni 6.459065728214991 2.156566343978053 2.5444371733760787 -1.5863433968198875 -3.2117459644247655 0.5218501237779787
Ni 4.18732792323777 6.670381110139558 10.59299778709043 0.019471221350734206 1.4299462768426598 -0.8242725335798062
Ni 8.113609599927484 7.202019100947761 0.37613340258167605 0.8561493276837449 0.3826860798495861 -0.30082858295214643
Ni 7.631639018392357 3.82597689778725 8.201071922411408 0.2558587031096755 -0.33866647973552644 0.24114993614459113
Ni 3.2015490545754663 8.346998378745633 12.460587558783747 0.2810639987307095 -0.4506891873624367 -0.811497493302325
Ni 0.09864406173166082 4.852430646064136 10.004964306855387 -0.004588390701630807 -0.2251581887020251 1.5555901747974306
Ni 8.319975464519853 2.3940343953227377 5.792376621628305 0.24237583813189223 0.7624549860523772 0.9746237044732701
Ni 3.6642382746351716 2.601687497023481 11.648782411338107 -0.43173861440186295 -0.4934522893615759 -0.7604981194363225
Ni 0.9600522565949569 3.360640683110327 12.575299421744925 0.018734086074393544 -0.040064986341685836 -0.6621238558307823
Ni 2.7827346768011587 8.198621639380471 7.785251730671579 2.4764117458485804 0.3793163920464048 0.6350249427314613
Ni 5.536579039064391 7.971895672355662 3.559502499263885 -0.5701868632101535 0.11806094340119021 -0.049239196641786165
Ni 3.0330569691294573 8.10970256335207 3.846693256687006 1.5654315863678845 0.8011632012558525 -1.3524732821661611
Ni 3.412519964597792 4.2596126324079675 9.144108173540682 -0.17265034861129622 0.04167295425875404 1.7691825130387273
Ni 7.002542674400205 5.976034535822966 11.494837918226729 0.8482416428008941 0.3339019684673475 -0.3671913266480966
Ni 0.5378067573733304 0.21673990787985178 0.3737701440313035 -1.016860501655294 -0.8636890877042158 -0.382399916067735
Ni 4.680602622196427 0.5574198996809102 1.5383272104415253 -0.6863840139297276 -0.4615402711443277 0.7680165393005547
Ni 6.20981311179365 5.764175250894861 0.5714734467873258 -0.8629645508333654 -0.7608174504489543 0.3210173991951955
Ni 7.997286877570826 8.565747101718552 11.52763526934007 -0.5598610558041133 0.9438542845008971 -0.37421840869820716
Ni 0.24143763676550578 4.90975802263704 5.821577867383254 -1.0304158717422256 -1.4636125587468534 0.6777240242618845
Ni 8.119538142666046 8.97359276892151 2.3507161471109606 0.47509589834157534 0.1424591697398966 0.8632543141596424
P 8.659860451430742 1.73858595080917 3.799062764162179 0.09571445738519 0.6115713396942113 -2.654559370129022
P 1.7668779720432044 3.0222061042088746 1.3098018309800112 0.6311610889006807 0.7448046199604657 1.2939724577167908
P 4.453994500822385 0.712545568814973 8.020712779933207 0.6580959656183117 1.1161829881067165 0.529752666454507
P 8.54708216364714 1.609862239971847 12.30337964765114 -0.5754414267408734 0.16936165055769542 0.21652391006579486
P 6.335817307613284 8.066498534771036 1.5233345241490006 0.2985115047831956 -1.5224342568707523 0.3782622397502776
P 1.835826742791703 3.2209573267517135 5.958168228661749 -0.32708160311140444 -0.7339730765626005 0.4930023463083509
P 6.905174971716846 4.053953841720197 6.229650160837687 -0.14030407107010676 0.7284220648373841 -1.150876939944476
P 2.5140103328531582 8.414487676434637 10.238460959769236 -0.32743230158260384 0.24869380993012008 -0.3878622247338868
