# total energy = -340891.9245788793 ev
CRYSTAL
PRIMVEC
9.06032381471395 0.00000000000000 0.00000000000000

0.00000000000000 9.06032381471395 0.00000000000000

0.00000000000000 0.00000000000000 13.26069973440381

PRIMCOORD
 96 1
Ni 6.51233436679719 1.7058868587735267 11.32274123639894 -0.4269244808426712 2.326685095912993 0.5409405647505264
Ni 4.6930937947434295 0.4328379513360446 5.931312098714906 -0.03759672730685138 -1.9149432363480308 -0.5279122708116585
Ni 2.7680195783106107 1.801418914790374 4.566441337929288 -0.7978197387049163 -1.2399096144341164 0.3256183883023166
Ni 3.3007032059091044 4.396567511613745 4.838153205749891 0.9583550492202334 0.24977084504438277 -0.11728472735679801
Ni 5.381515331188052 4.601222109613419 2.867347910073955 0.029693156189058545 -0.7138629360762867 -0.16311798364082875
Ni 7.357907222628404 6.090621587272894 2.5393315649287027 -0.05052963331843556 -0.6623868796841818 -0.40101290318323196
Ni 5.232337096901501 4.367067096743597 11.687251660492434 -0.15392988938365748 -0.22129279220934792 0.013471037903241315
Ni 5.55087996729607 7.636249435535609 12.465641307999432 0.20984726937656764 0.8603106581502861 -0.39888222999347434
Ni 1.9785301278989986 6.320309860421898 0.5731234776388574 -0.41559979985847134 0.03372130351184515 -1.9521905507352637
Ni 2.535241734685341 1.5960394908725157 0.2649483359715351 1.8227727875603577 -1.1355331104985542 0.7972705510696656
Ni 0.5153883751581899 -0.2256627712058816 4.610877696876047 0.819843037053543 0.8841452986760386 0.14689329425185024
Ni 8.5263719043633 2.3375182845283167 1.4408941272145026 -0.21516431071410685 1.104171051247505 -0.5572099913345113
Ni 6.9365387354152475 0.8437055230594893 4.802933008352861 0.032541424271131054 -0.4683673213684902 0.018936946113819
Ni 0.6472559544536761 7.146248994194264 2.4662908571531506 0.2523231791525912 0.8175593832256888 0.035495107582816286
Ni 7.664417982781093 3.868658674751299 4.2336375175944205 0.34168032686118577 -0.7990726372754109 -1.3129060613965
Ni 7.55302129947996 3.875843511665313 12.538389367310517 0.5548186082841993 -0.7561673532714526 0.3671954404131547
Ni 8.040294583304133 8.802983595390836 6.845982609326743 0.04643283754124261 0.3096011869384539 0.2670183192709208
Ni 6.617597210765677 0.9363754227319018 0.4480719800715081 0.8324483845223791 -0.6972888337676895 -0.3527808076497215
Ni 1.896932850159267 6.591512538034976 9.207315049397044 -0.6552785507741747 0.40713752802373104 -0.23620699031701903
Ni 0.08246344471196312 4.785228229268782 1.2877809942246021 -0.08422908245340978 0.1911800319843675 -0.12211865841033163
Ni 6.371799681585 1.8463400010699198 7.085523078768683 0.2841315819124397 0.5821314371665394 -0.036874761539162304
Ni 3.396534252617203 4.218341878655911 0.4293352300864132 0.16803213311299448 0.8387509297016393 -0.9999480421706715
Ni 6.072600602882007 5.567442239526608 4.907825285070676 -0.13273422914264882 0.759051359687467 0.7023569923192161
Ni 5.199140069848606 2.8342686672327644 9.186760798422098 0.20778524464121634 0.008786230833062288 0.18767818947869616
P 0.39601045246543765 5.579311263936895 12.388649392937372 -0.2590299017488055 -0.17464192512002827 1.025292948693363
P 4.051731581036999 5.955051959600276 12.463546561095876 -0.8175110464862565 1.1939118075477633 0.8483848532469775
P 2.3044390416871265 8.408959165941228 1.2336591489460893 -0.5407305056222493 0.7681967736321609 1.5596052094940946
P 6.272607254681317 7.738676398099196 5.887365903295319 -0.38992347813828976 0.510659911489114 -0.1438064277964104
P 4.616198825147926 1.076230583645792 12.668185756544789 0.8858352847839518 -0.6194265740725718 0.9554949540636191
P 3.857079580708286 6.248407129337897 8.352516971692124 0.19322328766664143 -1.6594622282927485 -1.6393554302405444
P 4.67295269454185 1.177144472105167 3.864141197216208 0.8722621740852075 -0.3128567177612741 -0.8616771994805096
P 0.14916645586538052 5.645696257718709 3.893527452004243 0.22497666881883832 -0.0872609273011981 -1.6782407944518323
Ni 1.3552160795553867 1.225064525621205 2.495465100360117 0.8289136318962435 -0.21576929128795744 0.24382645453548976
Ni 2.076653436573359 6.649190560474587 4.688665108383316 -0.36410574574423743 -0.7517399136277183 -0.40579515506322367
Ni 5.945973514975003 5.668174921506437 9.286707044280696 0.04609602302711416 -0.03803484328553449 0.13270903233166823
Ni 8.843628208753088 2.448117659319445 10.296349682887582 -1.5093337149330521 0.1751728579228338 -0.7276875006642048
Ni 2.1167091288770847 5.334256681322358 6.926382112236673 1.7810936626540166 -0.6052857637958157 0.5435083254777027
Ni 0.6935433375890014 -0.04207070835628127 9.083009216493027 0.2598516263191525 0.3399543453090145 0.8855424361338814
Ni 1.4226883122144787 1.0009030500983649 11.514291887830218 0.2592571872682632 0.12747683739845142 -1.5206221433626779
Ni 4.03770619952011 6.888383113475798 1.6291296061024787 0.5250712018184377 0.8023407665037213 0.10285363953313252
Ni 5.420094190683475 7.853135470904662 8.094304986597725 0.7480629789967633 -0.10931199356396656 -0.24347884138808393
Ni 5.261837511771652 2.9918730028182217 5.02031554947587 0.36767880780747647 -0.17945348757605867 -0.17412924714966782
Ni 1.0933274149909922 7.47361662014274 7.061283087999765 -1.2390215554022082 0.8086358554838139 -0.7940931817829485
Ni 4.968699789809484 4.53509080490297 7.124576699240517 -0.07650497433627469 -0.3309104899391914 0.34651451502503544
Ni 8.257443368068529 7.265428495791913 9.363261345694651 -0.3791893795502373 -0.4947208716613545 0.07166204442167659
Ni 4.677845269489602 0.3624528245182449 10.58085835229375 -0.16024914673346594 -1.207637898884604 -0.5945156697635051
Ni 7.795620534296644 7.2781401303320905 4.426129536686941 1.0142225498118147 0.8157927782435692 0.9852181921596646
Ni 7.426439513192842 6.408040977494275 7.191290582782708 -1.2783607193214628 -0.7869149188669544 -0.46229617547374574
Ni 2.4660117991746495 5.103526470915963 2.546319792812408 0.5261358956375262 1.2155247578318484 -0.08880538897018254
Ni 2.4941984670680872 5.097292968019567 10.967050131664967 0.32313907352388865 -0.3451163491259282 2.006361123240396
Ni 1.2403855334668508 3.5940040137028624 3.6200252641657213 -1.896503284475289 -1.0329954595439437 1.016632444804888
Ni 3.844703178155269 2.9502951760863065 2.59999858824843 -1.628233352185454 -1.0866991197149865 0.2843586103215813
Ni 0.9805263814733755 3.2727883477349855 7.937589468794442 -0.0682275648188309 0.300549875369463 0.9307128620229325
Ni 3.6535122215858915 2.28503182772771 6.866045790742117 -0.15603587998306676 1.483574089470445 0.6356569198885053
Ni 4.186857252834729 6.595789010952271 6.120874009033161 -0.03246763361040215 1.309065090383855 -0.2374262074361008
Ni 0.7320506205250034 7.523348738454242 11.45309392952542 0.21839027385057225 -0.0929140118219174 -0.11501778569949224
P 0.15992740265324185 5.640731200179138 7.907023559824561 1.0577523547736492 -0.09861131931701081 2.421448245128507
P 8.311823432580393 1.6237731425670878 8.210004417755686 2.27129453495783 -0.06558704187219026 -0.8096761238228701
P 1.7219055115654258 3.169926489620487 10.221798619105012 1.7149774877512338 -0.03163022531077133 0.00680982383298182
P 4.157755492219581 6.089108513168681 3.712730499101646 -0.9401061303123746 1.5390538677053043 0.5495769002692857
P 6.76268017861448 3.858964128095568 10.302158256589442 0.8401745495220434 0.1979741720880655 1.3867643421385472
P 6.258038253725788 7.758518507609524 10.171593551881893 0.5922189033095284 -0.9260105714512568 1.6661679224476984
P 2.562739817956503 8.50873145357946 5.664799044792487 -0.7640801803606261 0.8133522871228767 -0.12975663457156364
P 6.904456128211562 3.9871495917266717 1.5592591056865908 1.5512347260422124 -0.2411100840455912 -0.695020606558803
Ni 5.194818295311425 2.888231956841674 0.6755812453039672 0.851992625202894 -0.27530704164227426 -0.8695010664003026
Ni 1.3435826235685098 0.9626141209702166 7.096251408390227 0.617261448100453 -0.06931694122826772 -1.205640923059233
Ni 6.949078223799855 0.6097163141184518 9.313970465160844 -1.1607132093086074 -1.180487049501425 -0.012046646751888929
Ni 2.955024665202467 1.5052731652677378 9.181177826787277 -1.6772570903823243 -0.07387036492690503 0.8319621889145801
Ni 6.3226564843320245 1.9700677853041828 2.717104181687671 0.8770883918292572 1.118507522474835 0.013232953750506243
Ni 4.003367571646073 6.90976547806227 10.378486955936362 1.33942261962979 0.7940736413989228 0.8951730172451099
Ni 8.165571682938516 7.335292653981017 0.3888210853894353 1.0330293981056726 -0.9454851352361006 -0.023264884065211544
Ni 7.606132918635002 3.769067593592613 8.372699749383997 0.24195597698565427 0.6957757395572728 -0.8606757547991887
Ni 3.156381305274396 8.252804482192142 12.525155858109246 0.2819515435419854 0.08824540270165447 -0.19223624116302376
Ni 0.18113309092215607 5.084798781254846 10.289441185854876 -0.6105832647493291 -0.9861512454968953 -1.1601272548981503
Ni 8.69062651774811 2.2130747346998456 6.187403061966214 -0.5771262706424641 1.1355166554383218 -2.0304441323315285
Ni 3.7959314541853626 2.479547923196763 11.377574317109671 -1.2323459431542454 1.3064410224974468 -0.4754743647269166
Ni 1.3344769979713045 3.305523298265038 12.47697939742465 -1.5949141692080337 1.2838921906626533 -0.9154780473510492
Ni 3.1075914606565354 8.538476497196998 7.7935121969071215 0.10826324058447807 -0.5002790824754223 0.4010193309411352
Ni 5.639317789638676 7.892049562387246 3.5678840057086507 -0.5034361400471652 0.33775065278947636 -0.16629252471406847
Ni 3.115292736037256 8.525619897473183 3.375338530704664 -0.3337621004553736 0.03218326960076393 0.5474935353776959
Ni 3.1547413866345013 4.042354145720474 8.88241454966759 0.5302316629734546 0.6923610574487689 -0.6208905602126081
Ni 7.456021470978787 6.084931703815139 11.603549669492772 -0.9054769702742792 0.6185421145850896 -0.5961997423341474
Ni 0.43314872044846664 9.35895225561104 0.32016648045130347 -0.11315399301787607 -1.0105235036936726 0.738239050927806
Ni 4.654496814600052 0.4766872012890735 1.7305481546073902 -0.7755323880616257 -0.6654351795922023 -0.6258707870360188
Ni 5.861449752590596 5.74053972911328 0.6046398145939602 0.5049448633822078 -1.194349409305814 -0.8623852812911277
Ni 7.72903621338733 8.774198946114895 11.77974488384729 0.2498112113640149 -0.46353416164590494 -0.9783361203278504
Ni 0.08756621917598897 4.98980128435266 5.852026109621788 -0.7320439778606876 -1.3851291205279694 0.165437890023257
Ni 8.061957817933902 9.14766550045997 2.435420521297631 -0.280515068205775 -0.8887624857330758 0.08069201583442877
P 8.651676184969617 1.8325320673284862 3.703991816625522 -0.4047106637497933 -0.5316156878051748 0.5456569963895893
P 1.7055697474343205 3.2469030021317864 1.365825718932827 -0.04498684912333543 -0.15177839025829343 1.9160472680454872
P 4.751668789256795 0.9224950063986497 8.21404894637916 0.8349719222751814 -0.18716474017738732 0.20292560255606987
P 8.521868923346572 1.7571501718371954 12.333591616192003 -0.9642953259640684 -0.2374835430365975 0.9214057256893937
P 6.418505651688078 7.87189940186169 1.3505753816142043 -1.3255152655200784 0.3614287131327066 1.0021797597146676
P 1.9187954119165367 3.239980914613115 5.9355287734939495 -1.6246379215247118 0.05981311550289054 0.8292172791795913
P 6.903287346418487 3.974338293622744 6.26333401309053 -0.20795159501575153 0.0018650782331967877 -0.15905101266030675
P 2.474311055937873 8.47960251199238 10.40003512445162 -0.5951137083588203 0.5489657490478481 -0.8448984373602738
