# total energy = -340859.41513286077 ev
CRYSTAL
PRIMVEC
9.38437464389368 0.00000000000000 0.00000000000000

0.00000000000000 9.38437464389368 0.00000000000000

0.00000000000000 0.00000000000000 13.73498087846762

PRIMCOORD
 96 1
Ni 7.518507580942205 0.8609272213734466 11.57214732689688 -1.4458272097389746 0.9897500185917469 0.418118452515267
Ni 2.332842922229357 3.985590830150366 8.006354296439707 -0.09960479357853169 2.1327953783069464 -1.6230083563410886
Ni 1.097324310663431 4.976684019924469 5.043058763293561 -0.06552559250663555 1.2732712206136976 0.3921791069416859
Ni 7.693657549164681 2.144733132633369 2.074970630020368 -0.20445000962039628 1.4974318212891438 -0.6028576139702972
Ni 0.5803072050446928 6.444494056876749 2.362389625773531 0.9635448209512889 -1.181324714911372 -1.111591512081292
Ni 7.230688810829511 6.190487188580685 2.4866218540912968 1.0193963807032702 -1.7619492285150815 3.6108788769764657
Ni 3.827107511282965 3.4732133593520946 0.796300786999202 0.392133341305415 -1.0422627437784826 -1.2110492385589984
Ni 7.748293378300517 7.677375659169717 11.960421135309911 0.7571173758895478 0.373940215336156 0.2524519914209717
Ni 5.545583579160586 6.651860583227588 12.41649141984952 -0.554148064579736 -0.22581844799384335 0.02655923854576716
Ni 0.33827667566019753 -0.08834637970638813 5.264700800342 -1.5333357342746043 1.1530382092618527 0.6731742001076729
Ni 7.688608755610046 4.949122111615992 8.379340958569282 -0.2699149240924255 -0.8006294402395695 -2.0000953448363425
Ni 5.3238683439899805 2.0941701220899325 3.9028638139765337 1.3650809436278426 1.425821456041009 -0.09982667978135065
Ni 2.8026247165508917 5.829554755672166 6.353912319131861 0.2532346352232671 0.550247186863433 -0.06986947129762805
Ni 0.8558042912591812 2.364702874121519 11.113137856221005 -0.7990736657166754 -0.023443061514288658 0.37518411504558613
Ni 5.758317967803713 1.8441140755159893 12.816495696558635 -0.11724513236811421 0.7884904908841904 1.0819911727163558
Ni 6.839172700979442 7.157162235549662 7.857576297821755 -0.3240343316446484 -0.4423858097030639 -0.20707227773459175
Ni 4.257484316504298 8.136271578912487 9.81957688752606 0.8350063750575425 0.47354166648057805 0.5459573012388275
Ni 2.92999883349708 3.8877493401863963 3.9948194241682606 0.9206896734589757 0.4018618814470885 0.13395858846805317
Ni 1.7318769548590665 7.826164919037234 11.360779303200882 -0.08112601804805383 -0.5420685077073826 -0.2804523332886396
Ni 4.880700636138599 5.697873210767655 1.9721920205599428 -1.0473735826424864 -0.879811190077059 0.16145833655021868
Ni 6.312756205724418 6.932565997365537 5.580344241253003 -0.39235419906696944 -0.6896562569230962 -1.911024360909599
Ni 3.4744145593056133 7.750001334484427 7.557288509129055 0.11628945332306423 1.5356859796743358 -0.5827832118179255
Ni 4.128345937126379 3.9736726743615454 9.548874278313546 -0.6461269661818937 -0.0012791238227397327 -0.6785465201631797
Ni 2.3726232863150343 2.123533830328688 9.352848768711361 0.7095051733282232 -0.22710605645701532 -1.1212961409635658
P 4.881188623619716 5.688047770522855 10.423765449146648 1.0047686034877663 1.4229001686291558 -0.11759891616310715
P 3.254519892814559 2.291204451965581 7.312847133900349 1.3756931719260501 -1.62419440622939 -0.24091545153628185
P 5.593002824200673 2.4444419054109727 1.4497272854645036 0.746621104343914 0.10447986228264589 0.23909639604967206
P 2.574912865987327 4.697855480713893 2.000266315723592 -0.7177954383614734 1.322633058876277 0.055147848816737274
P 5.268566224254926 8.837528358026969 7.403264645089093 0.5099693131799926 0.3503387738671321 0.29822148434660256
P 5.740750418483499 -0.3290171132060014 11.266516075285951 -1.0934670345664395 -0.3637815296355993 -0.4921893634887523
P 1.5534049180151406 0.32865769165740943 12.83095795631151 -0.27758992413918 -2.4482903050220157 -1.5218853263458179
P 0.4917965987821595 5.035805580136727 7.343009452420701 0.16557055894637937 1.8208244055847351 -0.7660571015813387
Ni 1.404606273772986 2.202869333508757 13.577962623343252 -0.9812214122954456 2.9039862015704245 0.34638184610191314
Ni 7.266602812564798 4.143257708424359 0.6950987524777706 -0.41307754765724986 -0.5702989633079855 0.9842583993495564
Ni 2.8749407075025846 7.2217455018005765 2.85313986678368 -2.6480526793587558 -5.139133597183736 -2.6626094941270075
Ni -0.07209264283533545 9.283745987635331 10.8797390746275 2.406003371328347 -0.8119281530818404 -0.6402581661059425
Ni -0.19255986004879008 6.3577730508574675 13.76670867353962 -0.8493662433236405 1.021841242699337 0.41069490635768624
Ni 5.1713722561409 1.3013218465196337 8.597301505447678 -0.8240856143799808 0.44070610800779586 -0.6537474588416289
Ni 8.795289287786433 -0.03188247439129008 13.579556090156592 1.1059402273327856 0.037285109603703535 0.28821783616667135
Ni 5.0875979437575936 3.9358161070764264 11.98938882293899 -0.43507564919489583 1.3956765570265126 0.7188591037392974
Ni 0.11614195894332287 3.285694785358229 8.582371903837888 0.10335474753926717 -2.204135777723146 2.7602581924204332
Ni 0.831786861251049 4.802754020404786 12.391878082051948 0.4134285032387654 -0.8973378861069126 0.16228186089277857
Ni 3.0467404539796985 5.725341275329764 11.611470671937742 0.03069948596638584 0.769128541417811 -2.5661044225197225
Ni 8.613485797946419 4.209952458968568 10.383494282267463 0.030628523519134344 0.433838177243369 2.44485248298506
Ni 0.011903140789401407 3.1463931282485835 6.495794679266645 -0.9965547002184063 -0.8054286614004257 -2.1619702000986893
Ni 0.5158412434767388 3.0128253240420637 4.329678310585711 -1.280668284408717 -1.5361050694896257 -1.7411721438687302
Ni 4.596100706526349 2.076593188395082 10.664938246689337 -0.12359858538996779 -1.5919149773703938 0.8393569387167545
Ni 2.8652466485027017 0.6160898255350646 10.958290044087928 -0.6353838687327766 -1.1088977672992129 1.1386076356588195
Ni 3.894233943060471 8.333230833791038 12.612970194746666 -0.4555501149991638 0.08451627467652541 -0.5682616211629826
Ni 3.241250387078029 0.9905958179183487 0.2996271287182631 1.9730833350238728 -1.52182207720805 0.6123159311697197
Ni 8.059985997489399 5.109294617918028 4.968176145878686 1.6604839846890436 2.8609950427208792 -0.502827817039205
Ni 1.9509739495059875 7.89281274770826 0.41804855226088083 -0.2829979825286288 0.3974989764927025 0.29482762817370517
Ni 6.163150505263494 9.0122091075176 13.334276690272814 0.7986224371118698 -0.08007675084793307 0.538722216942969
Ni 3.4676765783163432 1.917068203942989 2.5634695595551324 -0.9230561168086233 -0.7029162072567959 -0.3112212390403801
Ni 0.9511345225703254 0.9434111822441842 7.430363903727973 0.5158666525010341 -0.455380422190519 0.7719994352077026
Ni 8.34434193336109 0.6997946935460586 3.6370091727014255 -1.0626127681897442 -0.13430568739482676 0.9113393425923272
P 6.700405953224098 6.622243496873638 0.6924129444566994 -0.5972708639111391 -0.9631252169153671 -5.038481593287613
P 9.40333107363292 6.320789230413577 10.97944148608196 -0.43252820018269383 0.29764787123131964 0.4351643522539603
P 8.421012274144289 1.511259691520973 9.727910316073148 0.2741996675107084 0.9787135582719274 -1.0012058258371725
P 4.491830919936127 5.769813826733874 4.428350317705044 0.06806378554745696 -2.638372218846198 0.46175778647177246
P 8.55074186912433 4.46834183022005 3.0606068059431326 0.18166180808128712 -1.1335908991705186 -1.8379206989453898
P 2.3154630604018807 1.835837057086273 4.526047288299606 -0.5712039916207582 -0.1685594663713742 -0.11987100002673548
P 5.868668829158625 5.349609683618905 6.901621960437934 0.5500327568597817 -1.053724464561179 0.5829289933671703
P 2.9184278995698234 3.6743298921947796 12.430706870549445 -0.7636677754135558 -0.3524568486513995 0.2780540082597921
Ni 7.426775318866835 5.2066011985276965 12.452284363151993 0.44501116314105293 -0.2878380842297494 -0.9950657743777056
Ni 8.666000758414324 7.562801829228214 3.750597643306057 -0.7601042264320135 1.2284293817086587 1.4853952018395837
Ni 6.483861508478405 3.476619887345277 10.082808596090164 0.03189787714986119 -0.42049312339503064 -0.1417307762143043
Ni 6.7339081706777115 3.719177818584364 5.5875279800375255 -2.330446619837954 -3.1164940484982906 2.184818822562089
Ni 0.04862982936824194 6.894193289475391 5.996679206705193 -0.47664987309225654 0.7728887797911915 1.8053134544333296
Ni 2.2472198880425878 8.48404711858012 5.7259071531203665 1.9822655157437734 -0.4765521711721277 0.7048805300720183
Ni 3.4343338952315565 5.565825675252308 -0.04939840965100131 -0.11666766259808939 1.4109404251641182 2.4610969698683807
Ni 4.601149500080983 7.693319711677753 3.8566589070144577 4.133851544394661 2.1167203271219543 0.6575079543253257
Ni 5.853250301630253 0.399114637993539 2.287781032098052 -1.604739639938888 0.3706818562998584 0.23708630759817878
Ni 1.4827781144980836 4.60909806539841 10.02841769913235 0.37046614074462647 0.28361401884607285 0.714579245417021
Ni 4.267807128604851 3.9430889974199976 6.108069856769871 0.35627750794907026 -0.358420265323686 0.08854313644773137
Ni 5.449553273501532 1.5138497789207481 6.069433447952427 -0.31886410029761864 -0.001880761962480632 1.6723411411379456
Ni 7.371144746019491 2.1166738524691384 7.863592620401449 0.24949753677833802 -0.08914014660178196 -0.029689042424000483
Ni 2.87989565731085 6.2830546599987365 9.034897710077153 -0.30608777446855673 -1.3148683273291935 1.1434438807051985
Ni 6.022694570073513 4.2428916139439705 3.4165899196681697 0.46809067066833576 0.29233802898263206 -0.382191913821987
Ni 0.7549288329751126 1.7090260026182968 2.4184284189175793 1.2149768557481784 -0.4176800794262678 -1.308422828814166
Ni 0.4999488050292054 4.218173171150465 1.1622510450260553 0.001070350246043318 -0.3685552968751588 0.6251403366278976
Ni 7.471970467117984 8.378557363287104 1.633226531801399 1.2974635015891849 0.3788782760677217 0.2036380552420622
Ni 0.26152938300497636 6.816931733090069 8.609566883098063 -0.33740355386270277 0.2680629584853512 0.7115440581351229
Ni 4.941098471301471 7.820355991137014 1.094811175135678 -1.8853842917439916 0.45985105636736284 0.3081012053541597
Ni 7.145835295362965 6.204554366161349 10.23698354856178 -0.7816868376987957 0.47638402102537947 -0.42985219601242736
Ni 3.881931027911539 0.4105147763024044 4.4540484892106385 -0.6760507503245196 -0.4451615726759882 0.3611368929239006
Ni 7.075161569972723 9.076520226904046 6.00861425436836 0.7819100094531953 1.352297418709929 1.9134190863940206
Ni 6.970610252143394 8.983539843001974 9.191490077455224 0.057590911040591136 1.1739119673870686 1.4631142789541962
P 0.1840332172537332 8.97761830260611 2.1425334352184877 -0.1283245301107274 -0.3663881140205109 -1.2247048816692199
P 7.869192276747267 2.910610715497314 12.250860961258683 -0.517480019734741 1.6084080899294104 0.6353370746552413
P 1.504240179292597 7.083307207157523 4.369606009353187 -1.4120678539003424 -0.47063837679085396 1.0070201185261045
P 6.673510335514839 8.679673792260239 4.066034627975049 -0.8464439274705229 -0.9788673102409723 -2.6281747094879058
P 8.533981376022886 8.627693741146635 7.578412736436642 2.1551462351983206 -0.37516894553693453 0.19758439284881454
P 2.1550934822324694 8.918965961125695 9.132072909441906 -0.1807611506438887 -0.29274940548843775 0.04581885810632754
P 7.804252404260151 1.8060885894874064 5.600534723284222 0.1851731636686553 0.12962293720717677 -0.25944230669587576
P 3.2369148059957973 9.022700838361617 2.3355643908740484 1.6467481231601895 4.342492195057638 -2.0290727059052993
