# total energy = -340892.5866187873 ev
CRYSTAL
PRIMVEC
9.06536920924806 0.00000000000000 0.00000000000000
0.00000000000000 9.06536920924806 0.00000000000000
0.00000000000000 0.00000000000000 13.26808417929997
PRIMCOORD
 96 1
Ni 6.549964912512634 1.9796046619019716 11.476308611700928 -0.6654948291855443 0.6588086754146203 0.20854372007379568
Ni 4.703086320377144 0.5118280227576442 6.065292203052271 -0.3444879715133099 -0.4542738193899015 -0.6334537415895993
Ni 2.7616015357627943 1.6702852010384959 4.733760809979553 -0.5115901366128672 -0.8462145850685361 0.7286251819871258
Ni 3.4500800614430944 4.444179377372518 4.982191812391177 -0.6010413866971649 -1.0424972283867917 0.15161923897260984
Ni 5.338568697990041 4.386079426472075 2.5199940367125 -1.8929669891872563 0.6020340896277373 0.9633730712601152
Ni 7.382437761816375 5.872772771427599 2.6257542593969947 -1.2241001582056854 0.437615127787298 -1.3150570463012319
Ni 4.691110967726266 4.468873442944808 11.442368776129674 1.3974027956889998 0.6037510723188441 -0.3976905236782183
Ni 5.674703520807567 8.088584691975528 12.46333512661732 -0.6101834582077491 0.07758123811958897 0.16052116944793
Ni 1.6720529480232964 6.653953762064667 0.3145447396431629 0.4066060810002933 -0.9106040070881996 0.3811177069212017
Ni 2.8709389531149934 1.4331895362155618 0.38666247086461614 -0.3437369522798983 -0.12212071529286064 0.46831409953305153
Ni 0.6025769006619792 9.006317338161569 4.9828553974131635 0.032201267322892926 0.34395575315892374 -0.9180239537013545
Ni 8.569085518551761 2.2167637843089754 1.3945683440137895 0.9221099508452699 1.404306979008001 -0.23905757239193667
Ni 6.999725072291644 0.5467949646539132 4.825695438169077 -0.31719802544910536 1.3785748643492193 -0.03706245206993617
Ni 0.9313488306535826 7.50001559972849 2.8108700040345567 -0.5019215031748517 -0.20434947948679003 -0.3039594152716443
Ni 7.501248489933275 3.8851089963487673 3.9503071312958706 1.3561242486551872 -1.2995589506656329 -0.180979694412598
Ni 7.81021440139979 3.9324392886956563 12.636244351690607 -0.4611047262688059 -0.5704298324588951 -0.3731794259107315
Ni 7.895782420833286 8.941663125363636 7.253462941805331 0.2605910755883383 0.17888013157109195 -0.6553104324533746
Ni 7.252512891118115 0.48049901350240287 0.4675908343656981 -1.0786811345065164 0.1442201182950613 -0.5831326247375441
Ni 2.088144326768722 6.647462957751245 9.225325778450792 -0.2824277118474555 -0.43246495104492616 -0.9764769556319247
Ni 9.288014619216392 4.904618542013554 1.4562518353403435 -0.1743292789756159 -0.730087111244633 -0.8676539858892347
Ni 6.483506691253289 2.0874553587131075 6.766271872794315 0.07764243037482757 0.05661414894961863 1.647602757851001
Ni 3.2784454272726955 4.452247555918531 0.4341387156548658 0.7857401818325629 -0.034830734525940016 -0.3682753037408948
Ni 6.2525664120851205 5.576026977579089 4.7293949281955525 -1.6632227237764454 0.30999739393560805 1.4676594751227177
Ni 5.245304180145798 3.295007856714903 9.245294067083716 -0.04648811625921026 -0.852446424910861 -0.20240212595243207
P 0.01013508271285618 5.641034739773983 12.470765103174974 1.1642657025465561 0.15218616721967337 -0.5417486624741186
P 3.92734455123177 6.2201577173637785 12.541232030673697 -1.1427088023113867 0.33205385951501526 0.12624039388818903
P 2.3547840296607063 8.43928756302164 1.5425342058630827 1.4246384914765013 0.6883452514211564 -0.18010809044092208
P 6.4457222326243215 7.880307835689418 5.801032159562903 0.027815993771003706 -1.3103591266049304 1.3353037123654101
P 4.9105472934395005 1.0862306626295646 12.740836954828218 -0.43416830688927804 -0.627412420491526 -0.40465589925245793
P 4.163696855784173 6.2735346109356005 8.106507833327575 -1.0099599178807186 -0.9633486457800831 -0.37982212803822973
P 4.615460462145957 1.0729589621898317 3.738521070610703 1.0211686421123445 -0.5788370826859838 0.6477670728884779
P 9.231174754628192 5.582744416121331 3.5377485269093003 1.8359427492834124 -0.9271102322733389 1.1588054507629333
Ni 1.1470411589067018 0.8994396377725608 2.6982908106733086 0.7870064501394962 0.6070667669556384 -0.14941091846738142
Ni 1.8435606670255558 6.478158123453123 4.835022796490416 0.8824846231441641 0.19930548930497932 0.012400944767514127
Ni 6.035967546916718 5.807638094064565 9.004571348062736 0.24096121717255276 -1.3078101349308315 1.0543878091767906
Ni 8.728654146379752 2.1005185556623256 10.360515780264008 -0.3741178785646008 2.1095024692172766 -0.598254310870331
Ni 2.378499035364492 5.343908200421054 7.14498310837499 0.31297061763131906 -0.2271209688553508 -1.1109898739415511
Ni 0.46525287566118506 0.1567239149878356 9.409221324400384 0.4797457384087609 -1.2926105443722578 -0.775577125256632
Ni 1.5428805029647208 0.9752161519840935 11.476136369687024 0.08538967842041423 0.022906729394844418 -0.2405364709303083
Ni 4.113637887322284 6.902363007590325 1.7599054404833048 0.038766579245236465 -0.24508295265041014 -0.9200738942518477
Ni 5.777377891832442 7.819687712164491 7.854108918837759 0.14621246613474173 0.9822223427561342 0.27818821984481124
Ni 5.27173879659543 2.858863881403433 4.902782804760108 -0.15711162954574878 0.0517791894548205 -0.652915706968953
Ni 0.57507529026306 7.434618026660025 6.838808424070629 0.9173906909927299 0.7495583325953672 -0.6592853579407226
Ni 5.024335807045736 4.50526183472424 6.857025283383226 0.37207050911726886 0.36569545882886045 0.7423361038153151
Ni 8.16248558130934 7.105318492183727 9.358218651009686 0.25403604807863994 0.6602091553065726 -0.3152234182212378
Ni 4.673632935999623 0.35531533087106926 10.545114798859858 -0.6789406702778049 0.3070169711510455 -0.6336517165330184
Ni 8.15041050959778 7.130076015340087 4.639915201972612 0.5103729763763145 0.6654894298689055 0.5026529820242376
Ni 7.4995895273783075 6.238941162248428 7.123992246101627 -0.1785893398035505 -0.6675787082977664 -0.9263443006415917
Ni 2.5275427696060553 5.161975306893048 2.598753057375311 -1.0348556526811337 -0.046560107147726265 0.5522575324252423
Ni 2.1353205078400133 5.133800139566073 11.400694367597232 0.8405103355949074 0.8282847400629929 0.6684402849671134
Ni 1.0243867142690057 3.1862324922501792 3.7635587136738855 -0.22460797262550997 0.9083604624696615 -0.4804044550386824
Ni 3.50475330280377 2.485243757138983 2.5513203263569952 0.23851378407332474 1.228450207644265 -0.43302519442377035
Ni 0.9339052647546787 3.5470069884250788 8.1581468956328 0.6392495223357699 -0.251377013189238 -0.2820356186153594
Ni 3.331296529433654 2.7551469929259844 7.111361467260999 1.144380276476539 0.138183168072362 0.05002852531230094
Ni 4.275255288578813 6.840056725402972 5.872467268487148 -0.0923707377239377 0.8212005795227019 0.524724102891664
Ni 0.7928018873540725 7.218662802701474 11.134363793793359 -0.38876519616413047 0.8915719301574129 0.9329872598794062
P 0.4607845552057586 5.819368681748318 8.078339011759008 -1.3119167009000372 -2.1505807273148254 0.8686857695878587
P 8.617095713585112 1.824750026033448 8.145462631114171 -0.9813432825852907 -0.6497635344932164 -0.7878664841469464
P 1.6512932526633317 3.125367603758125 10.502139509853986 0.681428212586349 0.259556720786553 -1.5118353983089834
P 4.1516127187034595 6.042159194048097 3.8097848440579605 0.15578956830021556 0.3451616005415668 -0.49272749538040944
P 6.884594884050792 4.0777027640004935 10.488605820245736 -0.6125658423969966 0.14286591826001202 0.3756739101978111
P 6.285908839829204 7.967670798215174 10.146767067157253 0.19670636111923542 -0.00398443856904475 0.0357110802483643
P 2.478335945844532 8.396680328003372 6.014210660949944 -0.022359598642122783 0.0035234397722261903 -1.045786954881657
P 7.016242174888088 3.8664887281088687 1.4404363923163284 0.526205829643513 0.5759091104059114 -0.13684259488406758
Ni 5.241551117316529 2.8495265511760253 0.5841098371607634 -0.17674354484406335 0.3455027859310695 -0.6329456916049293
Ni 1.2930207983746116 0.8484831977645424 7.126460746121942 0.3580636533152156 0.941241015247766 -0.21636115923568544
Ni 6.731072857447733 0.9796219213923655 9.043088288519252 -0.3898052073928706 0.03598695961757028 1.1575553804059162
Ni 2.5729149422159354 1.6550825769692117 9.067143245566266 0.5964391120384631 -0.5884110995276641 1.3265653040511476
Ni 6.346592420938202 1.9916434721369205 2.6689942571821303 -0.4817491419920349 -0.16358566730586666 -0.39256580085714327
Ni 4.215849924520364 6.754180483418279 10.349132396218808 0.2960226769230708 0.8577557529389163 0.7470273386433973
Ni 7.957988983959958 7.201610843325014 0.1031956297511613 0.7929726950252601 0.6764060767814092 0.4312182231220187
Ni 7.605618084989727 3.9760437143207357 8.409126173313282 0.2607638537207767 -0.5301882113300288 -0.6193211588429591
Ni 2.974719299176512 8.29866555672305 12.492696950766398 1.1976239662920278 -0.1303490167399239 -0.6083942275178102
Ni 9.142968712771225 4.891274318620599 10.22003338065037 -0.6804455369581055 -0.32623853838481875 0.08040790893510669
Ni 8.697714041461166 2.257467291805151 5.708274395854302 0.5625193193625667 0.47048925280749937 0.2910301088044858
Ni 3.5403620728360594 2.5337706782140454 11.509306555417206 0.2615297853525238 -0.4890387336749126 -0.20655677155075397
Ni 1.392223133013954 3.2327922282190786 12.650693643583292 -1.3998440581406408 -0.1918857998021405 0.8047069527430528
Ni 3.5196839657984698 8.506389425490838 7.958276356162103 -1.207747942099907 0.07727579106402821 1.0033017891342528
Ni 5.7432286462337565 7.702073612775764 3.797352596801779 -0.728461659826068 0.7709170007768014 -1.6960526258222723
Ni 3.2943642155050523 8.310523059574942 3.808749578900708 -0.43959153478737845 0.14169889453510434 0.026870342028282757
Ni 3.1033840835625295 4.379334791822375 9.267583996756676 0.39372691104477997 -0.5484967798312296 0.19980222643573978
Ni 6.899235455232601 6.218743519775938 11.365745556439268 1.0119530370513474 -0.8632383733200424 -1.2606021097864613
Ni 0.6906097939681288 8.953221471033485 0.25960769604013983 -0.8988697493704069 0.48095544244614596 -0.15588675599971216
Ni 4.7518852025267915 0.2311841375983784 1.6346809636907833 0.08984257198544528 -0.18238840183466654 -0.2022730565737355
Ni 5.858141265614942 5.769581674361013 0.020109708391707393 -0.1496574872605487 -1.0873102709364242 2.5029167341176444
Ni 7.923105443459896 8.94591478349631 11.31978504137137 0.2910187959505762 -0.5317720108773809 0.1369518667684222
Ni 0.20679738804036907 4.996641104283861 5.76194410084976 -0.6042406103607528 -1.0994780166472096 0.2814334662549863
Ni 7.908492068385544 -0.16233809810417893 2.679821027561347 -0.09756616588194811 -1.060170734407155 -0.2641191433462548
P 8.262322491789382 1.8041716380565396 3.5423664259557484 1.4948622607897546 -0.6307898216041911 1.0829157414131545
P 1.7318843844319285 3.262091501321003 1.5296903908473631 0.512093301501531 -0.7938993206045876 0.9930068349661479
P 4.7288410341403155 1.3354195299023648 8.196863274210676 0.16438142373428463 0.1593016952185321 0.022323088977232522
P 8.642569400904545 1.795650191052886 12.478474293102535 -0.24384085271319295 -1.8122975990606465 0.6890520476801939
P 6.340301054746142 7.428027503285923 1.5012840566069918 -0.5265845531391705 1.5450923605899003 -0.09148216447139729
P 1.6940727296955038 3.1872024867495314 5.937228452641086 -0.7646525079243283 0.7804910176184817 -0.37444749398987776
P 7.07064345517418 4.093784728877601 6.1772087179284485 -0.043021754977164615 0.30762323727647667 -0.511857274231325
P 2.53741495661348 8.4513626347332 10.11993901368639 -0.25007423521741445 1.9554705070381164 1.122650083888299
