# total energy = -340898.1847335232 ev
CRYSTAL
PRIMVEC
9.02205525008937 0.00000000000000 0.00000000000000
0.00000000000000 9.02205525008937 0.00000000000000
0.00000000000000 0.00000000000000 13.20468982183046
PRIMCOORD
 96 1
Ni 6.487209742476476 1.826190335730932 11.455557348928425 -0.3797473089362363 1.1435873482615981 -0.4968104072005315
Ni 4.4092950371010105 0.7006807961055309 6.078119072516977 0.3808551972884344 -1.716899901584927 -0.6936450663675151
Ni 2.663554369988419 1.657026795684517 4.770656327012106 0.058771818722569744 -0.5985877829503498 -0.9446312718762376
Ni 3.3526138564441474 4.233527352451183 4.806533432790697 0.1244421643371857 -0.27442206793415963 0.18008083674741243
Ni 5.034487392890682 4.607969720586989 2.7428122250792852 0.605534389471512 -0.3644021939387337 -0.5750776156435515
Ni 7.449177384818285 6.182661238060115 2.501575994917629 -0.6466345019459315 -0.5295675470268945 -0.37698105904500884
Ni 4.971387136939502 4.595853100091931 11.4879744964346 0.7457867813680769 -0.6967095642254517 -0.7311276366940054
Ni 5.5607258442948035 7.966339648420449 12.257544099280313 -0.2538956658460337 -0.4369345567805056 0.481049801932165
Ni 1.8656618284084285 6.419517260291502 0.4899824192958267 0.48649514131745253 0.28321524074575744 -0.21537282718048711
Ni 2.6916129624974507 1.5190344572839884 0.42590958576507326 0.726220172090059 -0.7607215483010382 -0.09598210922427985
Ni 0.4229512537767416 -0.04891487813704779 4.611408025926279 0.7518070194202278 0.3784422169715676 0.5137578336881474
Ni 8.452863011649407 2.3581126820806126 1.341318910858374 0.022938868184360497 -0.2398278748990579 0.15838946781690785
Ni 6.923489278797781 0.7189450451972621 4.702744608879232 -1.133417092596816 -0.5116464437720996 0.544572762186475
Ni 0.6546349316076703 7.485112231751878 2.5193232802309784 0.3343416271079274 -0.08934969150942677 0.1420447079102973
Ni 7.492023126241241 3.97706640368535 3.8510815189087024 0.9428335565458665 -0.5831737623881247 -0.654127467888867
Ni 7.666635987791017 3.867502562068088 12.678668386824553 -0.2016516209396527 0.03701103000671045 -0.8232410069914984
Ni 7.9614406723007045 8.895097104580346 6.8094874880952485 0.03929262695203555 0.08335233627541129 0.23002631542760385
Ni 6.74651263871509 0.7388296554512515 0.3684201461101527 0.1389439574977865 -0.8814117017949594 0.5223157505604875
Ni 1.8167442436547399 6.440186789371308 9.286475675242825 0.17152369120602073 0.32980800090363205 -1.0671170838180009
Ni 0.24231977902350038 4.728711888930518 1.4323388196643612 -0.3292413297668845 0.04255792796686864 0.030308164065238126
Ni 6.416720423096069 1.8897687606219764 6.870849193957525 -0.2609348320810022 0.20914690087543333 0.757595858187863
Ni 3.330861680708046 4.196374528029256 0.35907239443857464 0.33010856286318635 0.5365488634407339 -0.12219090640916375
Ni 5.979800320836454 5.59357514825795 4.776347439602041 -0.48477533041286835 0.5476035785929988 0.7611686631407858
Ni 5.335860133781905 2.9811487666131593 9.213466495769886 -0.029639420132987666 -0.4667159018079962 0.05490128002356996
P 0.33253492048164 5.526514209955816 12.403205184829611 -0.6468327339996667 -0.2353742100030785 0.3007635340421658
P 4.035357904071477 6.111459176297645 12.603559775043943 -0.8602988310757442 0.9648262587668739 0.18193331657511894
P 2.4247044734983505 8.434692591934555 1.495365094760694 0.3347031242124042 -0.0873714847371334 -0.13663819218274534
P 6.34762050025791 7.750306530211842 5.790587066920966 -0.5389623579782331 -0.2781985042574564 -0.32224947183008373
P 4.708033337795244 0.9869948242132089 12.625466227928568 -0.31886564295951536 -0.06916318925922282 -0.4921034886431654
P 3.971508817516358 6.268812845734953 8.221966057055388 -0.5524195119244034 -1.1393943932261732 -0.5302478609233707
P 4.763194184933579 1.0760244675827033 3.871324304764817 -0.539997998331599 -0.6431514284933375 -0.06641570842107271
P 0.25713489630937864 5.551974450489736 3.526497735912017 0.588053201967613 0.024532180813409365 0.020647758157338634
Ni 1.210335807351822 1.1429590971082686 2.5321706872190366 1.6470255451912923 -0.0470766417728286 -0.08484948964622807
Ni 1.8587960441964113 6.528160852250913 4.781721878045009 0.3511610126581114 0.49555699440940454 -0.08005412514011374
Ni 5.815120742358204 5.55433822902265 9.11390360264017 0.8524415398148545 0.08630447692519976 1.1064899291886687
Ni 8.652674474124497 2.394706139063453 10.30698653331835 0.1647570619061485 -0.17323167503606293 -0.011282514892354762
Ni 2.4724401689855813 5.1819077792564645 6.910991927561926 -0.7523731763363429 0.18521044466449393 0.7873628050376504
Ni 0.5320594815928117 8.918653691410276 9.238476535735893 0.03846807416821117 0.3598644539693802 -0.14580597472494244
Ni 1.54426012437571 1.1029643252135617 11.378454862889138 -0.33148590282668716 -0.2716920705975062 0.08683926638274722
Ni 4.104349562244007 6.675689503282324 1.6101139116560719 0.008043953350399048 0.7847863025597259 0.006338026402885859
Ni 5.780791821298117 7.804114069029804 7.90521251600037 -0.5628682180615532 0.4186133898738145 0.10216458388590792
Ni 5.3743933326906115 3.0006995608147906 4.820477921723803 -0.7635430769102334 -0.44058758015206057 -0.013124710307416104
Ni 0.6975086414025805 7.370414840572675 6.981900772521648 0.7610452501890441 -0.04044576671987228 -0.292050065428568
Ni 5.034343040003176 4.567749397305554 7.062330592617957 -0.05598088624099391 0.2331880009850371 -0.4298431971513629
Ni 8.186468779812047 6.999545206402649 9.027677111904937 -0.5692072729057036 0.30954925065459593 0.6693576545750601
Ni 4.851935122528061 0.37328213180247344 10.256650681444912 -1.7999606747618486 -0.16983936152506235 0.6231924688729074
Ni 8.084393244234175 7.062934168128842 4.733141718165866 0.0915407856234746 0.3470071383907379 -0.08976980976598087
Ni 7.156772567063389 5.918621762700202 7.0173944409428 0.5737007899006829 0.08022613194160377 -0.38057083327879615
Ni 2.525255281701939 5.053984054759499 2.6616038015959904 -1.0867551697639026 0.042337327315630315 -0.5149654808430034
Ni 2.299749005250732 5.176963692859374 11.332990920969035 0.4314545075025408 -0.22836075479972284 0.8319825006295543
Ni 1.0326554469425373 3.4102377247255586 3.8773329937072654 -0.2521799687065076 0.008159652992656913 -0.5629880314688691
Ni 3.8060713863786995 2.5584474237729133 2.478639223298429 -0.5177088479160955 -0.034269462705831304 0.6435121542668659
Ni 1.111436035299086 3.3193405158739515 8.24318593151881 -0.26178355323454267 0.7601145108446586 0.14391878500455857
Ni 3.619314838167458 2.7463136848068594 7.066252480130393 -0.24389510298989608 0.09237228038583445 0.05680569613513442
Ni 4.1167729326250155 6.972894054546804 6.059381165513116 0.4057319059254561 0.3243616330770801 -0.655045351717446
Ni 0.9105509482231678 7.481377100787653 11.445112515311799 -0.19472404058188397 -0.34524336162209573 -0.1875249517302835
P 0.24252638409374372 5.470216583828369 7.921810391446951 0.2622432664797806 -0.6138601357283879 0.5423677841153562
P 8.638004611931672 1.533162996148665 8.079303000538484 -0.5772383707402962 0.9954133875251115 0.04455618934382004
P 1.8104378268818098 3.1513949533158714 10.46125736640185 -0.2229886918545321 0.1670916235765961 -0.30721726008730965
P 3.952183574701456 6.136531468446392 3.9455875499479665 0.27424646158824384 0.5743139980046497 -0.4362660699585712
P 6.884568131503903 3.893395861264526 10.40323562547425 0.38899993788275583 0.6383902596592683 0.9073700735319342
P 6.359628856087338 7.8264617004268695 10.026572027281944 -0.15636600962897584 -1.3245261621339317 0.6232827145938685
P 2.29083521444722 8.552646945138118 5.822687540280173 0.2337628996519006 -0.14489451865426659 -0.41772815905538385
P 6.868355497825854 3.9398323807642 1.5816709795840547 0.12277711792993692 0.5766948395320004 0.2480276371010309
Ni 5.286238828701624 2.8014925760561327 0.5003848492517475 0.07096244725149069 0.36878875304220354 -0.5402965034086242
Ni 1.4276410353815787 1.2670845362527259 6.919944513203956 0.12908377687425512 -1.4261371875092148 0.2366631040178311
Ni 6.828252461265516 0.8824797248364791 9.102613402426083 0.7948436867957279 -0.28903107609658607 -0.14336522649393374
Ni 2.689781485237215 1.5288504536344152 9.079320259615852 0.19640374227715207 -0.18051586740230202 0.8307020912552338
Ni 6.262335009908109 1.998430396692324 2.6385876358886615 0.9365610932735935 0.479258000139065 -0.2770322518634971
Ni 4.067034340823636 6.852061665648583 10.365298784432056 0.21263331676213704 0.5544905355208193 0.5153609165092092
Ni 8.16689091944401 7.111860774937999 0.1677660236542445 -0.21989308364834387 0.47717077859273305 0.9555834000123673
Ni 7.636772984188156 3.7512714214591303 8.274521334574233 0.25042596212987844 -0.12904006812051325 -0.21040365610066988
Ni 3.0351818568178515 8.32579638242201 12.407483443533078 0.7173645214716419 -0.29458851557970556 -0.002644122491066414
Ni 0.05366679475264495 4.921134287976381 10.303210803104514 -0.527445358477569 -0.5234375228697566 -0.41897591541955587
Ni 8.552565746638896 2.4319491840400715 5.76771615630669 0.5855510043710497 0.1572602393084711 0.06302930844734307
Ni 3.670866863118136 2.5976302106753972 11.484224930181623 0.09994623607835044 -0.21759606008405105 -0.140054674063462
Ni 1.055300806170084 3.2228135444096 12.733480982621776 -0.05390394910730717 0.2548906827694513 -0.8663015856263983
Ni 3.26919593157646 8.369950321887991 7.939333027579119 -0.6618708592797117 0.11665532130291523 0.29318880701870154
Ni 5.716798381855493 7.711683110748444 3.475936332651851 -0.47338508629805576 0.47324084741070754 0.9421378160304226
Ni 3.187546329580724 8.290646454314231 3.5500543227419477 -0.11788970793064858 0.4379087477683168 0.9326177923551294
Ni 3.3696655412808263 4.201877981865433 9.252658304727838 -0.3359699067399698 0.8836709301427813 -0.2806240829798135
Ni 7.072641899813639 6.141854481173185 11.522703094551968 0.4099359167044746 -0.6073804415413152 -1.9424041607724614
Ni 0.6578179127771836 8.958928147024526 0.38103297965601346 -0.35564218835791656 -0.17893849561285313 -0.24683181702071685
Ni 4.628070860172238 0.205189509740246 1.6868067963770612 -0.648752833840515 0.3854862683025425 -0.37623646756950047
Ni 6.0387323871608904 5.619504535676265 0.4061630129597619 -0.3786147379936899 0.1947978312426129 0.26104333263440854
Ni 7.837026527381235 8.73551498744216 11.242539401657604 0.8085031865606914 -0.20506193217278235 0.23833714928614436
Ni 0.1183928250993643 5.066533733917074 5.6875633133132855 -0.06194224603075138 -1.2352173511647695 0.6827631293476887
Ni 7.760302967671651 9.043347520049288 2.471151819464588 0.4109738710506857 -1.343299586086693 -0.4453094111077621
P 8.49069249023152 1.7275251371203937 3.5700201314951587 -0.6248125209748336 0.786072111250685 0.8355290803302319
P 1.8797993893285743 3.134884591807341 1.6143263093546145 -0.8155870899906663 0.05722889971548208 0.70368033911633
P 4.690268910576503 1.1425079943348115 8.199980210082634 0.8202580131037744 0.05521624016082749 -0.3356947987017122
P 8.535956142520206 1.3913543282846892 12.452115551938924 0.040687964637665414 1.4794569819782777 -0.3004665716270374
P 6.183148429055448 7.688712957524008 1.3428373227938308 1.2443756206252699 -0.18344641078553567 -0.5641316581550091
P 1.7727887894090797 3.2220105814728464 6.03157248394058 -0.5869291156654989 0.7528228622792519 -0.5989575075849426
P 6.881184860702974 3.8671507019047913 6.07031499453617 0.46396867808016223 1.0690392405413782 -0.09963384704425421
P 2.494769756271708 8.488734704194716 10.084818417390725 -0.19351947875082154 0.20709876009715303 0.948648877676063
