# total energy = -381170.3006611182 ev
CRYSTAL
PRIMVEC
9.16131242802838 0.00000000000000 0.00000000000000
0.00000000000000 9.16131242802838 0.00000000000000
0.00000000000000 0.00000000000000 13.40850677806711
PRIMCOORD
 96 1
Ni 6.8749692876083595 5.852612657586233 13.377894940177628 -1.9412399652610306 1.8371547673136426 -1.7546506379711395
Ni 1.6748619270040348 4.373775326779012 4.529501143065065 -0.33948126232733794 -1.1454498553916337 -1.6843577059828474
Ni 9.121048188836237 5.417386201002505 9.71550832813046 -0.6806867064346341 -0.9102695065669162 0.8201040040244133
Ni 2.30439981441145 -0.03435400445288744 4.989372445479006 -0.17930204959985893 0.41295156360234686 -1.4860423485052794
Ni 5.716832850125702 3.7010235299328733 12.971938875931555 0.8646046575399498 0.32164423414591703 0.504339111477409
Ni 9.033502689875787 0.1663895836353589 10.432260074998286 1.2923984283614516 0.14734477996697204 1.1192629125836207
Ni 6.57230701791849 0.11777782907446091 5.16497006396212 -1.4175509885021007 0.06149487408068764 -0.2950459148320983
Ni -0.20173026140742178 2.4043039234700214 1.5750567601167453 0.8737575276838113 1.07270177699463 0.4732359623147011
Ni 5.911932153794784 0.7283673745501161 3.1757642781384052 0.6490749930666241 0.26143568297682074 -1.911804433608733
Ni 3.8143489612996344 6.714939486871531 8.387704389523112 0.7640079323617939 -1.1071257630004545 -4.006008324795727
Ni 0.7855147236465365 6.095451558898985 7.615817117708269 0.8096815231395088 -1.2835690029952795 1.0769572098368745
Ni 8.742905868295054 1.741831118862646 8.517954428966425 1.4376415886043885 1.3079284056762506 0.2637617600068361
Ni 1.2179964511083992 4.151247054515582 -0.02680508323654054 -0.2584123227694646 -1.0365479527818924 0.5672470638555391
Ni 7.55441800364036 7.2855609758052475 4.293792491003143 1.339260897240945 1.127323063883936 0.12060916374434068
Ni 5.501230529852028 9.150052903121376 1.1005136162853537 -0.7355519910139461 -0.21339847706293572 0.8766024533317741
Ni 4.023446749942719 4.787152053871251 10.435787180178256 2.9939077064229216 -1.8128750688306714 0.38907321432285247
Ni 3.751905457645969 3.5327577095680147 7.4581197870462965 0.8647375835733881 0.7905982812558126 -0.7184592971977175
Ni 1.1764132552334008 1.9866855088496653 11.659568083781801 0.9501881971387249 1.515181946183713 -0.7490374270948906
Ni 8.910933494543864 7.364769680703956 6.3699116452485605 -2.1428527625429483 2.174637511153713 -0.7234441520068186
Ni 6.196152702115108 7.197603217797789 9.338689817195785 -1.5191717840693966 -1.6255720033032068 0.9505214121084276
Ni 7.94594500124111 3.49471078018514 6.759616457861529 0.20604177958754838 0.5198554619454531 2.4990837335247993
Ni 5.061615804745689 8.998414864319223 10.656021459877882 -0.6708360388927994 1.9487856388187728 -0.6655285106369571
Ni 3.9703935912487087 5.1581302283066295 3.6948744572139267 0.564423221253499 0.8166430420590065 -0.11565979015886532
Ni 6.860201252413274 0.6849354258820852 9.298169333530854 -0.9525507838336303 -0.6519746832119223 -0.44811911264241533
P 5.623570692380057 5.4451632994587715 1.7178440552452177 -0.8876160308334584 -2.4679201634378014 1.360467099004915
Ni 4.477380605948511 1.4028167625387178 4.623092191917102 0.018304968956774928 -0.8909211839472914 0.06315606383319447
P 2.937932033918777 8.860289760946817 0.6900996575442876 -0.24087379966506903 -0.5305206549687831 -0.3487441756865026
Ni 3.797867760731421 0.8725939118182585 6.679823261247284 0.6349454956437774 -0.48494039523582294 1.809982834884541
P 5.040544786787439 8.567576676258104 8.230758286457911 0.5959721997043737 1.7248451245739327 -0.8784770446466678
P 2.6161134605112117 2.3969565511211015 5.321179597529998 -0.8421105902024917 0.32014348123067443 0.7494657728815609
P 3.1718569785039734 7.314226721540624 3.8351414753683493 -2.170737661878675 -0.20984804070751603 0.12255703149933088
Ni 1.0488877900252103 3.8387363742582696 6.80709679037119 0.9676953527845528 -0.6879248760542861 0.5974780948259388
Ni 1.150166095907146 1.0333685272333515 2.9935833407401615 -1.21926237049741 0.5264068899107257 0.9041541376977978
Ni 8.13266170428767 0.36983392654712355 2.2855064403526244 -1.0190773068009544 -0.10956653277693387 -0.7010655272013023
Ni 0.8683824566202553 8.196167920151405 1.7675093607040282 0.6244327690379117 -0.729915361553459 0.19645696411259067
Ni 1.4660847842864018 1.3436713312611257 6.969500287087578 -0.5054696255374262 -0.38109559543401467 -0.9399708902860909
Ni 6.653943470538475 2.681470261430409 5.353788372017213 -0.8977227802501572 -1.5203506348688463 -2.498848734695858
Ni 6.740078127426938 5.247196505084936 4.131039948293621 -2.9792318495783014 -1.1364458521208105 -1.0164612093343461
Ni 2.3697932605792706 1.79546144022247 0.7010181093715234 -3.3011727890290308 0.09434560206212138 -0.01517079420316742
Ni 3.792050327512513 7.098248787468563 10.422069947487435 0.2735995720328643 -0.5361922514322637 3.9052442208017712
Ni 5.54280456441487 3.1114930927096656 2.9516281955916397 0.011222608188696801 1.2333982956781597 -0.09423710150871512
Ni 8.838082740281253 5.593402491451137 2.938634706561124 1.1336721460304153 0.7502995816367659 0.534637248240318
Ni 2.3263594796488087 8.759313778366021 11.38976194400735 0.6127193372557254 0.7546092647557133 0.2983767789775442
Ni 4.145090652746911 7.503078010319476 5.965498345969518 -0.18356416731032257 0.3457529542686626 0.08787439251548092
Ni 5.5093749363584985 7.923939529442973 12.597184408625573 0.07288383264391964 -1.9226007528932891 0.11018385464595863
Ni 7.794682576237343 8.38101571551819 0.3074353133230211 0.2777331345852636 -0.043115343132235424 -1.556802707048293
Ni 3.4710196269503424 3.49814627224355 12.631322206111584 -0.6303231663804177 -0.6607868821869136 -1.3698305424976862
Ni 2.6165990100554666 5.574337800854999 6.1993554968447615 1.265964145429323 0.5936947165241064 0.7770210567920103
Ni 2.2010327293580008 2.4986104708014234 8.698071322735975 -0.9740053541629806 0.1434428738094046 2.8694079493749225
Ni 8.282256770479089 7.5280334246317695 9.144775987319658 1.3912709717596492 0.16266212705033278 -1.5314611429597107
Ni 4.365392726156491 2.1476131181777594 1.0285487609082058 3.5720037971778225 -0.3993064620150865 0.5134904389593737
Ni 4.644931843965221 3.497312592837376 5.266901571400762 -1.4164667542989864 1.9471946401825688 0.26870059206935015
Ni 6.415987548604744 7.702391517580209 6.863546047481342 0.37429142802798765 -0.6782410731076189 0.1354364585651603
Ni 2.84398277776145 5.860702096219771 13.224233167520268 0.044048396469466074 0.5559473225720037 -1.3952171008915908
Ni 0.8962566649853732 0.20041836150671682 13.12774531176458 -0.16406466382481422 -1.0951102265968173 0.597632618125932
Ni 8.310940838838777 1.7188545479759982 13.01921765957379 -1.340366471600298 -1.6381634668149723 -0.1588098431837781
P 4.905507045611525 5.7890331512252535 12.078100797355303 0.11120535393193752 0.2569683912340865 0.7923846837322741
Ni 3.2747659979496344 0.31420002621883486 2.8107308791609005 1.6281302509486864 -1.653289009602501 -0.9844139510908142
P 6.772280139654438 2.0930758269145158 1.4464429310244507 -0.631237707774887 -0.4451253201214141 -0.5347562903166856
Ni 5.771590012880685 1.1895505768647616 12.643188853746942 0.554562012188703 0.9361492025471554 -0.7591315781060991
P 8.600850562007826 0.09141432108382805 4.274712226176339 1.079888010330424 0.1472293374350303 1.667581000745141
P 0.7402065382490057 8.91348950063532 8.444207698374981 -0.6836187924797646 0.5733004691384707 -0.27251585205038226
P 1.0909290515079968 3.9739390190529877 2.1269241269364048 0.6330799031899484 0.17370218691457828 1.33383201291589
Ni 8.661232770426446 5.170287289537324 5.2741417563974595 0.37017869141119475 -0.06654940578545958 1.3681215302263794
Ni 9.194018040156873 6.351867524826574 0.49463023686411284 0.4033027276586731 -0.20469812107546037 -0.7002628287943489
Ni 6.952767150435081 3.358894327475986 9.057673895867547 0.5262744780979194 1.24482787767134 -2.308647778795308
Ni 2.0077931720565383 8.182664146033813 6.949977530883651 0.19980042666352688 -1.9354765804146925 1.0730069669398745
Ni 4.200754785405314 7.006718117720357 1.300528880057217 -0.8177172489597917 0.9772606278754845 0.7238740404553855
Ni 3.166131158406623 8.904896189833217 9.038137397695387 -2.1017583064954835 1.571423028064629 0.10837174113788434
Ni 5.185577519525289 7.592849708133777 3.8102822548336923 1.1411216603299252 0.1390527151615089 0.06147507658634574
Ni 7.967254213315409 6.895893724572118 11.63328702760057 -0.4977082364244525 0.9402907355193547 -0.8454270561702343
Ni 8.12122838671728 4.004977544636705 12.731578109556937 1.0109983864475622 -0.22563178590433397 -1.5805314181238006
Ni 2.4785746811167746 4.991540928066274 8.95753892174265 -2.425788524375074 -0.6227890627869016 -1.898434697170047
Ni 7.8016909800365 2.2916747518270983 10.898742180263824 2.255930136686618 -0.1540461032465476 0.45674593507947786
Ni 2.990178997143081 2.598642838230176 3.1980629119255273 -0.38512657097027864 0.8104101737754172 0.15424690640344402
Ni 4.480385516335601 1.804879269118592 8.932170332252133 0.029752805782400367 -0.37196509388765614 0.10323030614626094
Ni 1.9634890664712787 5.993211315240694 2.153741119878748 0.03640476388127924 0.9898551767110435 0.7218017313073891
Ni 1.9140454647666378 4.750167836698446 11.226178470285303 -1.822859690847209 -0.053130818386708495 -0.14874140320418255
Ni 6.817619473513298 4.930764783224958 10.872381420666837 -0.9326062223909035 0.06998825626367945 0.22476043904297419
Ni 5.573192636835529 5.479179251493111 6.2843660607317124 -1.1524918498400796 -0.1958447844498885 -0.08174873923371727
Ni 6.558949824795391 7.255127096823811 1.9621203664352083 1.7720809176324448 0.6572935243216745 0.6571706255905649
Ni 7.396449498138577 5.525480523128326 7.676302848954249 0.40795128217427806 0.8207701768535026 1.1871271805257622
Ni 7.928685089139657 3.297650955714725 3.695237245175295 1.3542074912484485 0.2629122675223472 -1.62343130281112
Ni 7.660762515144431 4.5146854690467695 1.443103632743676 -0.8097090339433345 -2.2819239896472183 1.7117201571562002
Ni 6.028033462744741 1.969269854441564 7.2935432270865626 0.02000472525670103 -0.5772486551529413 0.3932276028108583
Ni 3.2978708272064634 4.113905546168701 1.5282479517881011 0.5265405872751125 1.1738795714872363 -0.5320424909299482
Ni 5.694607506835826 2.6710172042606857 10.723130819812477 -3.3737897411648086 -0.06841139869486283 1.4421435902398
Ni 1.4822453389291637 7.217235909747584 9.766032048538266 0.414135556608119 0.22408501024250438 -1.0160421195190565
P 7.196128246540711 8.991021685409523 11.441920958634961 -0.9408460938021926 0.494560177713774 0.6280204863891701
Ni 1.0875760112589883 6.795623163027316 4.602563523638474 0.9852968679163999 0.8721832412181559 -0.8755215615627695
P 5.262156927835294 4.758944373743663 8.566788803412708 0.6023703899212336 0.3866275809958373 -0.7073518744306463
Ni 7.866278230734614 0.46032570349686647 6.8272498448514325 1.8442705524228173 0.07289463127719704 0.9804382542725179
P 0.855874517133995 6.677634623773272 11.739576571231707 1.663062286939181 -0.3435266360413051 1.203436973429379
P 3.3964923525632282 1.6855440169776519 10.783563415447952 -0.32645193994720556 -0.24214238196484753 0.7447434277052271
P 0.34967995593566537 3.356558192876267 9.959919310609141 0.5829642174804799 -0.7332554816702855 -0.0039684977294447785
Ni -0.08962420068859239 2.1265879067802884 5.381906271285674 0.8774115794966308 -1.1792853158838401 -1.3637570826100964
