# total energy = -340861.55391756404 ev
CRYSTAL
PRIMVEC
9.26696968239385 0.00000000000000 0.00000000000000

0.00000000000000 9.26696968239385 0.00000000000000

0.00000000000000 0.00000000000000 13.56314684983663

PRIMCOORD
 96 1
Ni 2.092296440064373 6.715300394172238 12.153908893779908 -0.7144380918534664 -0.6406050079224 -1.784445866955701
Ni 1.8276503166904767 6.339413565392492 5.998451165674977 1.1013590357200065 -2.0758724398676573 -0.2389030490919434
Ni 4.449016596227589 7.557640147527413 8.798997086267882 0.281736856428018 -0.6862881117818116 0.6079951923071787
Ni 1.5684902394345626 0.29024612742951633 11.751354506024283 -0.34341787837758275 1.9682164938498747 0.42534428083974485
Ni 6.004838887953905 1.305929184264291 1.2316609082451224 0.3339274223886442 -0.6121477810229716 0.5136251647650251
Ni 0.9908058764230785 8.281983574496993 1.8530381071378161 -0.17073590519740273 1.698489003177907 0.12082925017494672
Ni 5.155641576951252 2.8240441758992705 4.349999950676859 1.8151121856913062 1.1132516733925344 -0.6136930140229043
Ni 5.335559795499617 0.3006019661741879 5.298429827626441 0.09158346593595194 -0.1772690783302302 0.8637757338807511
Ni 3.9935079629787444 7.88816515916607 3.882695391577373 0.4427524490138633 -0.047679308353834014 0.719898086526773
Ni 6.50254003467433 4.424533262032133 8.772453704687244 -1.04993157317765 1.1547747323369855 -0.09502308774512022
Ni 0.020454055729072922 5.0744907224661615 12.762148309595805 2.6651618282352163 0.33968489369771177 0.8951624757221486
Ni 4.084546674233915 2.7938338543711905 2.052904404864508 0.9910296566351191 1.223585680463112 -1.3143610486754718
Ni 6.026986945761301 4.372925507249962 5.655710434454015 1.0763000358688497 1.514965973518165 1.413436709223411
Ni 8.421043723224098 0.49545297984842623 9.234129506333923 -0.5466412146797296 2.5017741358727688 -0.6627640605179425
Ni 3.93016822443751 8.070224047736824 6.540583725769184 -0.5883128833869029 -0.6216863166410261 0.1393933863303793
Ni 0.45129308868960455 7.855675163068693 9.38286344482887 0.9102903325025226 -1.5904844155714541 -0.4498805754182123
Ni 0.7403604575613382 8.286283448481358 5.427971871678242 0.4154900137534844 -0.0258562989414716 -0.6037562145251667
Ni 2.1129617827047467 4.152241888578278 9.890043774951463 0.8776373223541917 1.0407630193045043 -0.0507422635498739
Ni 1.044359694861966 1.7941409539157722 13.537051397063866 -0.8915269358520903 0.06361629129906464 -0.022439559950438774
Ni 2.0725485274335944 3.6386108207821586 6.178514875649106 0.2665012704251862 2.0183589190322206 -1.3781647733949944
Ni 1.6552476106449563 0.42553647284446805 8.534081294072983 -1.9047585825055453 1.5889155284224379 -0.22938456807854687
Ni 5.805969716177037 2.1715197648323348 11.529190025579537 -0.21569832884070594 0.9722456911593966 -0.6319043948246085
Ni 3.7529652280387547 6.457122615714477 13.436059960250057 1.6740200715022655 1.4288054783699975 2.2587328962427358
Ni 6.019406564469899 2.1873755501496794 6.982430065450897 -0.34849349312827727 0.3717069551302631 1.0469696623358486
P 2.033126837930389 9.143950769875625 3.883155959976129 0.31083428801460655 0.43742820858747244 -1.0358771519671126
P 4.203905245179212 5.48116242490121 9.618332513806706 0.7642311041161935 1.8105093968119723 0.2966780511188826
P 6.069513070145461 1.741995714885556 9.241887813445366 -0.675681797020875 -0.6394279568951633 0.08432832703543541
P 1.0894064350300627 6.079095116912342 10.404629340636355 0.674983999622902 -1.068295163286502 0.14075092879953824
P 0.8794901085618984 4.678559438022233 4.262706948612379 2.3361842936526798 1.187730875548032 2.5149099019237786
P 3.705129129962697 5.9095837054425155 2.5262584418454455 1.0421982090891342 -0.2805706040340587 -1.2283085398600782
P 8.414390038912085 0.8148863553407769 0.8449104107759996 0.27308920805534903 -0.9892447968205544 -0.02188394455728489
P 2.615472486748199 8.292668390669347 0.15348696730223313 -1.0366749652780596 0.7962822190144674 0.08686112075961815
Ni 7.73098808449191 2.9206708699401562 9.924710582253425 1.5286475847703158 -0.8515858766827785 0.645953673828823
Ni 2.8669965808939484 8.769796864447336 10.33833251203389 -0.38191192068772295 -5.299252388986925 1.3922240797015377
Ni 3.15555148633608 2.190526319879602 4.05311589278398 -3.1501356478121356 -2.1827377716633443 0.08983383023469689
Ni 2.450705763812844 6.26628790674891 8.474810681968245 0.6998861621812205 1.5024914952002384 0.626878916585559
Ni 6.517469123012285 1.308301528531527 3.5959021370930597 2.743140044682908 -1.4880745484439597 -0.31817761575355524
Ni 9.041977034263665 1.5468611319356245 6.622830862780892 0.5111293949263649 -1.4049140164643803 1.36322820668982
Ni 1.9867827219911474 6.701288735843877 3.49579291580363 -0.25737154020977615 -0.15844886029993357 0.8234559512157819
Ni 8.475996854101863 2.469888391286195 2.2038624161099882 0.33599073267557616 0.7928942763788409 -0.5692746358085292
Ni 6.826151886846745 3.3430315522362584 0.13170032131679893 0.7695887688836811 -2.556155795947443 -0.20298628059067622
Ni 0.39847506765235197 8.056786941535684 12.818258885000825 0.12124371200454603 -1.396731480653588 2.338553822326121
Ni 1.5044369442191983 1.733933451164872 2.192224955442822 0.36146316591506783 0.3139689769888464 0.8493415607332921
Ni 5.9310645414247505 7.114604855621144 0.6913307737758276 0.025434123802388454 0.5037323311313454 1.5502458797663818
Ni 6.183960147099996 6.431425308476021 7.4267859005527965 -0.09708588381141989 0.25945310532915317 -0.6942184223724818
Ni 2.697753911548144 4.312625334801124 -0.03341947316770373 -1.8310224291636596 -0.8706832596338618 1.4377179503682787
Ni 8.944201235968336 6.437365436113904 3.3198650544485138 0.3338693154571992 0.7436237122784871 -0.22526643214511527
Ni 5.4987696675096 8.893093897555037 10.40803309864165 -0.2552791764571216 1.162961896133468 0.5529990385769573
Ni 8.003177521278033 8.274755338057759 7.0564444264977135 1.034567946237386 -0.8519759130323457 2.015422719222032
Ni 2.1918792974695096 4.208742603411623 2.7196684417167343 -1.4018088951764953 -0.7165109152220951 -3.2780986808183865
Ni 2.648351695576919 2.640224563067678 7.972173947135596 -0.7504147670583915 -1.5444395574972498 1.0464644405646557
Ni 1.0214054106825017 2.843949627016545 11.368874228236185 -1.265248350309221 -0.6427333671193124 0.6425698449582545
Ni 7.520081118952779 5.266465268716376 1.6455348996039807 -0.37625215129878425 -2.8329769602413983 2.1818674532432487
Ni 3.6615187701126533 0.8932348781601953 9.229179091070026 4.86153878794855 3.5885470462484843 -2.1483022156932936
Ni 4.372286086334185 3.4482857951552557 9.525317157894499 1.262738953623806 -3.887472241530331 2.9561600553605025
Ni 4.106055311125533 4.373611263014711 7.645993290936315 0.5004559743729188 2.3744793325781366 -3.405952699050599
P 8.261234829128474 3.379302472009542 12.027730759763287 -1.3304078177256893 -0.02128256352786012 -0.8195129074076339
P 8.359816853795872 6.119536173092875 8.182700966913178 -1.438681856943445 -0.2966978486132245 -0.7493521301218321
P 6.922528372703195 7.052710764367756 4.059043046664152 -0.2921403111495291 -2.2949108888251892 0.673838316054233
P 2.981517793606835 2.166042985684146 10.854803906071837 0.3698567892954017 -0.3593610319704005 -0.181445578305423
P 4.0854919051528915 2.027538855144673 5.996986057750564 -1.578436483267985 -0.34030350111831714 1.7048532548330382
P 5.374175258630755 7.696802232922252 12.218727640700246 -0.0999907161630407 -2.5285601457173614 -0.38607633647805767
P 0.7424427456740251 3.7477015891958256 0.9024619999839709 0.27067571351784997 0.2573720544304084 1.0218882938871883
P 6.438774015522576 3.1570249345333083 2.410117362812587 -0.8032211122261458 1.485333752474029 -0.08738588291483661
Ni 5.352638820829756 0.37382863478852335 12.840461617930005 0.2105754057918438 0.14613816125338056 -0.5299275014694744
Ni 5.99319957389278 9.082065945592031 7.9175414534127 -0.4357878447705721 1.0218397000374402 -0.1424789672342385
Ni 3.567486827614056 4.484268149323546 4.336029993712571 1.1222474491332415 2.153851170535981 2.3757599990627734
Ni 8.229337919097906 3.834838906167769 7.3740392351829565 -0.8529693872938665 -1.185453906588397 -0.8501864252320905
Ni 0.8922080979070323 2.4248879859670676 4.742815679876084 -1.0499547131061016 1.0697840891272028 -1.5186621914228295
Ni 7.2942821329548675 7.778499838625182 9.52249536559226 0.5617258769269939 -1.6013295858160743 -0.5348935872254982
Ni 8.137057433890355 1.0661834087265758 12.155007956397462 0.18991582055996326 3.797744597856195 0.0785392311574841
Ni 2.058916814866783 0.8237492852516528 6.179450839598289 1.621111653539008 0.20923920347892352 -0.636698216668826
Ni 3.3903208990944766 1.0909262180762607 0.10576207286370219 -0.8377140037966928 1.1826508899219632 -1.4640396189819431
Ni 8.32652989829622 5.357494713001754 10.676366549296533 0.05069855479613205 -0.5940790964467189 -1.4823787836107631
Ni 5.200243502569243 4.78498131913526 0.6304569758967468 -1.7426955224917922 0.6726617792476286 1.9559302202833542
Ni 4.012116038324875 4.844938613701725 11.845455950796335 1.2330645664878248 -0.2603769026950032 -2.56171606364404
Ni 7.675580872094245 8.176543992182118 2.436348447511171 0.5497581630421564 1.7308350236087804 -1.990306897991011
Ni 1.2628007068435294 6.099575120156837 1.1962694239052791 0.01852119873263907 -1.0415988849422384 -0.5814714349850373
Ni 3.581998902311287 0.5442306020555431 2.186745396203695 0.3540640452375193 -2.1846367884582696 2.2235283233171446
Ni 8.256768149687819 4.357227260419115 3.869186003011841 -3.886210601209088 -3.0645873323266706 -0.4479175381545705
Ni 6.166288035703048 6.06538926858718 10.649904717050083 -2.400677074019427 0.37846381423812236 0.6853712563944969
Ni 9.111479307717836 0.7390037731835127 3.7461957066043188 0.6071588124488124 -0.5157039016709247 -0.9355228818170663
Ni 7.05729791441573 5.440174617502835 12.963859661008458 -0.6871813130200424 1.4101680657744682 -2.725204800360726
Ni 0.8957480803682981 4.839804712435909 8.009241826311154 -1.061455000436217 -0.7550196128202545 -0.5382771589857505
Ni 7.9367611487652265 8.611544821277086 4.954861556002884 -3.1056756177265483 0.3317257867516351 -0.8038605455823575
Ni 7.449930157613036 8.433637535173993 13.040260266777201 -1.364899937965288 -1.1189263551798083 0.8072963107367839
Ni 5.848366102984081 5.1956007507025035 3.2169748155239386 -1.2617884167850786 0.06310901264534292 0.6207100687706859
Ni 8.57462521361823 5.61551495297302 5.732707833077485 0.09176704270166776 1.5265611345549324 1.4062453336812943
P 8.59585584141603 8.642654038875172 11.10847515711883 -0.01895751493910929 -0.8636163254847514 -1.1884806092298628
P 0.36222453521261494 2.5514655263818042 8.643291606396993 0.28758123102393696 0.17957972874127784 0.038304809117469515
P 5.619620220591712 8.716724928437731 2.6872664818323995 -1.2898892887863527 0.8210501699877667 -0.5118631877685959
P 4.52904614736762 6.13343662778371 5.62600701617366 -0.03040535176473473 -0.1567593884126526 0.6371365897578253
P 8.370733344213072 6.715550602356673 0.6782578594875877 1.8769500449337093 3.08974840497333 -1.4235791969740517
P 4.437859164595746 3.0411229433211324 13.236614382952009 0.7119430933457545 -1.2906259098420612 -0.6175126448793107
P 7.5247516717288985 2.3227289109592295 5.491799979527615 -0.4386811071579671 1.0426121566981013 -1.7570443350142966
P 1.583975345960152 8.022100673597155 7.346396790984763 0.6989297118052221 -0.4297750629175888 -0.20140608058774992
