# total energy = -340866.5860738835 ev
CRYSTAL
PRIMVEC
9.34253108807654 0.00000000000000 0.00000000000000

0.00000000000000 9.34253108807654 0.00000000000000

0.00000000000000 0.00000000000000 13.67373860491398

PRIMCOORD
 96 1
Ni 8.74305816284497 5.870753059784268 11.32284021178387 0.043875104116395405 1.4317105678319342 0.9539376368788282
Ni 4.5377700781694115 8.488801181476665 9.688732507748634 1.8154885951941184 -0.326644772684302 -1.056852211556883
Ni 2.642675033428089 7.4570400846046665 6.4868490698312 0.7323432542686613 -1.0507227016203775 0.37644138449145487
Ni 6.847281113340102 3.2136905286046744 5.830509173216489 -0.9116411901034622 -0.08933786443488485 2.8586928769502635
Ni 4.583006613307583 3.393282002161276 8.721356397567718 0.005165346251023362 -0.10399238112326607 -1.0399469511611121
Ni 2.823144704899393 3.1781889107762873 2.1687228299005157 0.35584170596323234 1.3288307030465567 0.6784398193819864
Ni 4.846045573822909 6.356714152668843 7.847973623346759 -0.9648439993786867 -0.12796097612372156 0.2859406100967205
Ni 2.7081942033834787 0.4315016111358297 5.642468314616731 -0.403298356783299 1.1406899721091452 2.5068479508512502
Ni 0.18517457008666602 3.8011115082303775 11.10887289538528 0.8505515218809934 -1.008962844074772 0.09945104160948678
Ni 3.6936537165824546 8.045385974800109 1.608947333779018 -1.9108055600305738 0.1360481240072302 0.7885118310404291
Ni 3.041638477571101 6.673136335360856 3.82197431422316 -1.3466373922106745 0.09788601111521206 0.2661695981173803
Ni 9.137070065554022 4.648348275173831 6.9237656119389595 -0.23756067613143605 -0.9747193495108698 0.36399621674956667
Ni 5.363668504291802 9.333169791400826 0.6915603042597732 0.8552265587591593 0.3989819887961322 1.5411616580769263
Ni 0.5276857706170388 7.8189697358340675 5.646912556616985 1.2715053869625264 -1.321551395776324 0.4133125464861914
Ni 6.598386744770085 9.233634466047237 3.110925490281803 0.7595627521062467 1.4101981476814551 0.29881463784591117
Ni 6.026848067857081 4.732150778310839 2.175751215977436 -0.17775604526897773 0.3677186599064764 -1.1079441451366918
Ni 3.6676160826646345 5.186683596886285 10.116159841112106 0.8759465649153302 0.8853403474254044 -0.10052036341426558
Ni 1.6711172063682294 5.407466289654823 1.240094867073083 -0.1268965394149492 -0.8478315518466689 1.7063439804459517
Ni 2.9893389889912827 0.7612966927119346 9.30785059811748 -0.4869983062061162 1.0588885252606215 -0.41656576331616646
Ni 1.3430635725719167 8.959543291350073 1.8825050499556555 -0.3763763355814744 0.2657528222949359 0.9025173734253231
Ni 7.940488036648233 0.0054429585649522026 -0.016093443913468355 -0.5809320175417995 0.42900861706520954 0.29902726807734953
Ni 7.006692719920569 6.3617497768818705 12.640592065097248 -1.331892629801332 2.2341873456928876 0.7703367027932991
Ni 7.183285241023772 5.432466902630813 5.2684774558566865 -1.124294304359941 -2.0105144832871376 -1.4242494835681987
Ni 7.5697483786787885 5.146800332015393 9.527532740733337 -0.19754865451487266 -1.544669928340501 -1.9029035315746778
P 2.853722808886843 7.146316845827212 9.276305542170755 -0.38309925612760476 -0.24171506461944178 -1.1297828382783381
P 5.348225300536453 1.6984441095650797 2.4899330597338563 -2.0074415007887687 -2.2080731651043393 -2.4732531456149403
P 9.168844013510428 1.2214331613856608 1.9605404087017528 -0.7961420938921773 0.17350266930926247 -0.9591554336343415
P 7.880508987580273 8.063949583911953 11.441008280978759 -0.648280779300103 -0.35679018591943074 0.36768266446221837
P 3.6580026182579473 5.714508571215335 2.0602906122685134 0.5106750809977656 -0.6683520961286812 0.3773191591107179
P 7.725749961441528 2.5079837638933897 11.110446177606939 -1.521808193250979 0.40001634359791755 -0.29578536410128414
P 5.472593073307898 4.311998473842884 13.697120211670049 -1.617818070389401 -0.9718589972439392 -0.17278918818200564
P 5.278240400759494 6.6769013753568665 5.583916804286713 0.14966571479066482 0.2870819227900153 0.717870514573783
Ni 1.813002224778681 1.7816019780625731 0.3706527724310748 0.037885462191863783 -0.8925173247898177 -0.6814294981379296
Ni 2.425115513857128 6.705041078751367 13.295290479013945 0.46970480923299107 1.526990508782867 -1.7669654507827504
Ni 8.326923146710227 7.371817516754523 9.389906982209192 -0.4427395934980568 0.789947535045691 0.5869347720924537
Ni 5.595914482606506 8.386612577316955 12.254800655421668 0.058728881299776284 -0.3075324773348833 -1.0284469209413127
Ni 4.790476199390476 4.95347533787781 4.26006708098476 -0.08746533000252033 0.27683247714786513 -0.010815859668581373
Ni 8.561495415245792 2.411307253028087 4.596482280032759 2.3275407590450694 1.8772092121323671 -1.5588266794568573
Ni 3.3829024502119767 4.596590653392445 12.655961462857638 0.5827770411703382 -0.3685424413593524 0.4467204325226758
Ni 5.7211043981066085 7.209061284073382 2.6301027894513362 0.6686506012057065 -1.5116019421419387 0.05350877055141752
Ni 0.5139522500360575 6.929401960895766 3.1851192002776285 1.2805595267449945 0.7247104203137519 1.1050498543080323
Ni 8.146500187893961 8.628462677507338 7.341334706583348 0.7736161448755192 1.5928922536819987 -1.6414909885263085
Ni 1.3684285442571986 1.7528923802766168 3.3864376639452036 0.2382774996928025 0.5864380349616932 0.7213708144175576
Ni 2.395135331854156 4.812543257630121 7.775817519363661 0.3943244354194628 0.3747208022559224 -0.015993032994146648
Ni 4.607185083554916 8.651594784281835 6.95116818963697 0.46925306640755315 -0.2880779681546974 0.03825004462013413
Ni 0.13137840803945047 3.3321444792483903 1.1612439053700334 -0.4301321891466915 0.6322430091109499 0.9022988296566139
Ni 5.849863160451564 6.545620129639893 10.282842739575685 0.045936357520798304 0.5094725760492322 0.34748742046126607
Ni -0.41485415513361834 1.61497793754434 6.805816157969646 -1.0241994585188683 0.7313505513380889 -0.24091802263944315
Ni 4.561696300079543 8.274707740909475 4.345814699077524 0.0342172693116572 1.60351219528969 0.9048331660426934
Ni 7.452051173046678 4.3186129857961735 13.32873674002069 3.0260079293915756 -1.797032702481776 0.6777466499697038
Ni 2.2594163839086345 3.2750055596067025 9.639944876574521 -0.867674554714525 -0.6220547557240383 -0.29533824926153657
Ni 4.606493736260363 1.545703070123948 5.021789793110635 1.2356127868309752 0.5309191759587825 0.32967944574556773
Ni 1.5051658280825342 2.7845600518385405 6.003455304467477 0.47994654156565736 -0.13402440870898208 -0.2914188596024723
Ni 6.064685318437336 1.3333847104481775 12.553285178579337 0.9475954967108843 1.9099154441161363 -0.6855098388548904
Ni 0.9087208977567154 9.187501047932347 7.448495405745234 2.825407889644889 -1.0670420076056915 0.5123090170567628
Ni 7.253503704075919 6.718905394766453 7.082449435353943 -1.1559355854143059 -1.8136430573449474 1.5339098616105196
P 0.6639045439714597 4.932342532738913 13.12972868427126 -0.7286483219155774 0.3320032087827379 -1.0940331914825545
P 9.250124033275421 5.793340847856369 5.092647285283693 0.9120944755907968 0.3894095146163487 -0.9116666440247589
P 8.095667476682314 3.9926894490695637 2.9688835173504264 0.1823819740767633 -0.16709650867260256 -0.2801304311728466
P 3.223649666658638 3.434015437353847 4.44535936696212 -0.9938280453158627 -1.1284638623565986 -0.25383627336300796
P 4.49826051453882 0.8671924131754091 11.168695924185414 -0.36587569316046664 -1.4496455550438 -0.3574697284849585
P 0.8938858927699533 1.5431338740968934 8.606291917173511 0.22721429990010544 1.2586853523797226 1.1815316887158553
P 0.5593401341765497 4.6274116631860895 9.08156422033244 -0.38693482782361105 0.8993266344021673 -0.5366730477234242
P 2.290648465066608 8.873479895709256 13.633892764570794 -0.14192823693709106 0.2504467880654848 -0.9849220010754843
Ni 2.781159370551822 8.48867038604256 11.33120831680726 0.25996115531382324 0.15768575688166395 1.0177228496555892
Ni 6.263970847357687 2.918466548768613 3.646731788850535 1.7442746940534541 1.6086384607726616 2.1139142251317273
Ni 4.954661839315759 6.484781567719247 0.5161860491999436 0.8821138700683067 -0.9627686049068968 -1.3577504714047004
Ni 1.1284002376132716 4.443746846110231 3.3295416501097095 -1.711435021815614 -0.474213495736622 -0.2887405414393608
Ni 8.262674560971854 2.8446044986235526 8.807418858955433 0.24939752086536404 0.925921097061244 -0.15953463716494462
Ni 9.204934210792288 9.408115575142752 4.274847899291679 0.033359549297052225 0.8388080081918199 -1.7986231868973477
Ni 8.974341860465906 2.1032186079947386 12.820250804877103 -0.44536880359078773 -0.37763951856461414 0.20650663503910888
Ni 0.7842568969158936 6.70314454495685 7.911406606128179 0.24134611131579725 0.2501842784327175 0.540767529507772
Ni 8.214784747027561 6.005154710857736 2.019925272797637 -0.791570929581727 -2.2050436342493964 0.056806724576398945
Ni 8.547500303796602 0.8312105892532379 9.986409836227256 -0.9119728624112681 -2.120762615512128 -0.2880157474581943
Ni 0.15568580521468675 7.269208498699476 0.5403122012736349 0.09678892139629137 0.6480092708062711 -1.007011376775356
Ni 6.986765101281634 2.1931217838796253 1.3204742668489544 1.5537847461575756 0.08204081655283936 -1.046166963928895
Ni 1.9680882395026882 5.018349873193685 5.316172010902923 0.7362029943343837 1.145432371890137 1.9961391884020723
Ni 1.2543095280009489 1.3469967781260619 10.889382274655077 0.31048307532277497 0.34009678442414976 0.04700413666368034
Ni 3.5536745744975264 0.8550218980319775 2.9156647237194724 -0.8833778243823948 -0.625177103403104 -0.6346531612143392
Ni 1.5948354406922343 6.270267713256721 10.866273524208099 0.1474774488900944 -0.2005550454413643 -0.32049675080503515
Ni 7.762129777184617 7.600793609216613 4.887459145272824 -1.4956461901436306 1.2073720468177271 -1.065709661947513
Ni 6.161221691337527 1.6118108195328078 9.493498834526223 -0.3479813293785491 -0.13670298398240974 2.170624533339578
Ni 0.3448188056892179 8.949761661385251 12.075183022778246 0.9974155055568048 -0.6825939507596761 0.5974870936870033
Ni 6.269632421148213 0.9822643675944208 7.337943367827637 1.2667992397361085 0.8746916094623066 -2.3396385707498673
Ni 4.332692180024431 3.6869644643811057 6.41229940940399 -0.1703427835240421 -0.08612218571106459 -0.5123267576685757
Ni 6.042169818709334 4.391494070185449 11.410543221616496 0.0049095214864754155 -0.6119822019793847 -0.3919623629451895
Ni 4.229886968818228 2.945139474794941 10.876734356177161 0.339655326011357 -0.8072001514785518 1.8463148365463555
Ni 4.127707707189525 2.3163684529301736 0.5214589737005598 1.790050100516356 0.05773746392078444 -0.6686979095038742
P 4.378470581961036 6.548796590182433 12.075333437527465 -0.24627877273072427 0.17107760480753764 -1.4347156732068451
P 7.3522075441698425 0.8669317565603007 5.117984229375952 -1.8096699316298122 -1.2702144360652445 1.1692163616836122
P 4.147766121262564 1.3616084966217454 7.497228850239502 -0.362891156610846 1.3825526180500447 -0.543343003544432
P 6.646827768043819 8.692290849350377 8.706561565464288 -1.6577647859856677 -0.36753045515507027 1.6024588143245113
P 6.1177882646837975 4.560939555067938 7.676778282406571 1.0920922657060999 -0.3082169049964176 -0.17618021614142562
P 7.461113428123924 7.803059405528345 1.325523904858492 -1.2676063090184362 0.25683417964906735 0.36219181655097626
P 2.279484140512681 2.85628266238289 11.929899191587277 -0.22205203897287568 0.10040080711726579 1.1138754230194623
P 2.160535035725569 8.825403231144813 4.010301988524847 -1.0882998885432031 -2.2526560939210367 -2.0062770481670222
