# total energy = -340866.7703569942 ev
CRYSTAL
PRIMVEC
9.32041135927782 0.00000000000000 0.00000000000000

0.00000000000000 9.32041135927782 0.00000000000000

0.00000000000000 0.00000000000000 13.64136414592338

PRIMCOORD
 96 1
Ni 8.083369117486146 8.514605912148802 2.6722887060212392 -1.5319259984112714 0.7959402622940163 1.4235804825256322
Ni 2.3680555652617397 2.39990341101609 7.763913880827904 0.6810106654329562 -0.0998395352971571 0.6048468764861841
Ni 9.193486037713738 7.331910948348155 0.9535517174865451 -0.03381900543197401 -0.479414066100955 0.8642567872822277
Ni 7.7138986891723595 6.625190753930937 5.544914062842102 0.5171874281949866 -0.3978967261517535 -1.7883261758467137
Ni 8.02509790541234 2.760109350398117 13.627081779298768 1.497692531149698 0.1034208248905122 -2.3236033716638755
Ni 3.760096289521405 3.9549954123101747 6.674705439494294 1.6155758113224434 1.0510260917934091 -0.007617150225625592
Ni 7.629642170114902 4.936136479582337 7.108678706944036 -0.12031837197679922 0.52910294868565 0.6133592848325695
Ni 6.391947458641905 2.8723830261244583 6.43564061524472 -0.46794746022225214 0.7146070133311627 -0.38827257279842803
Ni 0.8987840480580583 7.2080799624856144 4.259870729415145 -0.713191621040875 1.4873222436589675 0.8899318234508287
Ni 8.834202819060327 4.0145342003344044 9.047948745741362 0.855318090031701 0.02751157515670746 0.022260354060097146
Ni 5.301198353303848 5.72243434653413 7.432237720741769 0.745529156831316 -0.6985337619183841 0.9614840817675183
Ni 4.954432447160853 6.402321076530285 5.3776303869908695 -0.08673719358724416 -0.2793156485810351 -1.038258764825412
Ni 2.436113209305716 5.319391796356963 4.456646983059907 0.7669708716448598 -0.7340646078351423 -0.9486419356975275
Ni 6.20139164756561 6.8908317992469295 1.398757944755762 0.6762029596316678 0.8657606255212638 0.000790357111779284
Ni 7.370273761671219 0.8333836533042677 5.732305594248041 1.063308251594872 -0.4304638614544974 -0.9515542242483161
Ni 8.21776944987647 0.6184689470336522 11.174855442764452 -0.22190394343078557 -1.0839326127134428 -0.15979868945960865
Ni 5.189045842925709 1.6119092291894668 4.444629244600539 -0.35178219118187803 1.4887371217286232 0.8931935249212358
Ni 6.842188572149489 0.770010448030012 0.9780066129182879 -0.6420983046384748 0.7597571275052399 0.8403748384583075
Ni 2.388159692651887 3.1543813934477334 5.118212580366764 -0.9374095573168179 -2.1601015223210673 -0.2152195894320745
Ni 9.10853980821267 0.23707212029221855 0.6074484925941016 0.1089137296842834 1.095449612214107 -1.8452344589979837
Ni 6.004311548509203 7.036388664083246 11.951663266828602 0.5307520542532987 -0.2985171612101504 1.009672468547287
Ni 2.1106724044462895 7.954430546176318 0.5128025109488854 1.0053342461832493 1.3071233932764519 0.5817997648587335
Ni 0.5153357987674493 4.744061441447816 11.458377697351654 0.5868165013470347 0.41067279487049924 -0.6206313930139505
Ni 9.199013041674034 2.3498528017972244 4.2035726484347515 -1.4696569651687206 -2.731125022499903 2.3295091956253495
P 7.431089446057269 5.153078375332487 11.594859277607634 0.09318397765385243 0.4758978254175804 0.3521061501802001
P 6.351962893735213 7.3139877972256455 3.766121935491609 0.9268034996661975 -0.4312683596336637 -0.13199349432188234
P 4.601375263322749 5.17292153120343 9.356939024479505 -1.6320946349130732 -0.972218694576203 0.7256414167684534
P 4.100598879203492 6.3670619602034755 0.8654179072866215 0.23285812844944412 0.01928841591596678 -1.0409437678567426
P 5.967290874427763 2.581604831262231 0.07383723115321651 -1.4033659552509703 0.6831397959608171 -0.30008861946232834
P 8.722068949504989 6.544513272851142 8.317372026304291 0.005186429296945907 -0.5067644330894499 0.1759462457537486
P 4.849820149605445 0.2016293918608258 11.852354283359885 -0.7025701367712868 -0.7400262247352158 0.030388125373554113
P 2.9665191812660856 7.147926027308975 5.13649177120476 -0.3181408489783488 3.042328778038786 0.9316500291252213
Ni 7.994825209184616 3.119653540570733 11.214702065582422 0.46685808381281535 -0.9208789066516463 -0.34597021248579124
Ni 5.706300714400451 8.493840035549242 10.040739395222586 0.6587233147896655 -0.3367533218732136 -0.0708014961935942
Ni 1.0323567279160475 9.003340324739051 2.4124477527195665 -0.8204408185385418 -0.5025833051285666 1.880468085389297
Ni 3.7083493654277104 7.124569076340171 2.8462569809286666 -0.25049692457712985 0.4906508153570389 0.8152060525021638
Ni 2.521544100199593 1.357620444958871 0.16826791129508903 -0.029807827390051892 -1.9170458845133305 2.021246267882345
Ni 7.382716510890433 3.784599651092429 4.098997632524944 -0.6823846629623475 0.4187190622137434 0.6388486873529255
Ni 1.4005782211022133 3.360455689505296 1.0982772016259672 1.290675532133074 -0.05029514871012629 -0.4440775955831901
Ni 3.061820387832733 6.781382208174838 7.354823315693172 1.2910347152447057 0.7657809651018167 0.19730105728044084
Ni 4.784623871861318 2.9023947508329773 8.68332865952022 0.12163246280253247 1.3915062276989068 0.2092703138271751
Ni 5.476366165158476 5.400852191994371 3.1337077889210363 0.12453780937478552 -1.3681001900701406 -0.29709508405164314
Ni 2.14483171222788 3.1856979757522748 12.5438346730967 -1.3578625715025323 0.9425849308701701 -2.23111693429768
Ni 1.8310134603844548 1.956773771406829 3.1743587632428385 1.3993095257934094 -1.6235739990365718 -1.4927439288951712
Ni 2.5002656009730253 0.9118848183221249 11.505236065665963 -0.9462361544695124 -0.9345870002663581 0.2701802619386702
Ni 4.806582761120096 8.66435696211519 0.3436640732290213 -0.4512206343858745 -0.05721990085441759 -0.7242314237948044
Ni 0.6878845750186322 8.309808512453062 9.769358840566374 0.06364328788225813 -0.04007655630591162 -0.46373393636153687
Ni 0.8270970358148589 4.057724986762751 3.2015603839142095 -0.2802445881532077 1.0573864867937983 -1.1524193447309314
Ni 2.2662580319491794 5.7246339636245684 13.569051033839083 -0.7246394578665004 -1.5516844119851212 -0.7599689864057299
Ni 5.264382728273211 8.697882481921571 5.105771695229829 0.09180946590382899 0.09556816161531284 0.6319751001615439
Ni 3.7805359517219586 4.993848466972134 11.680526906951075 -1.0509605286627963 0.12055054259226335 -0.42833833047106235
Ni 5.143804565989327 2.231949597585186 2.09970600839286 -0.5041812457433059 0.3317363282745965 0.34558171879812094
Ni 5.70507974050703 3.885045724751965 11.252979131120604 1.1736044634489788 0.4362992371893518 -0.6147407385611284
Ni 8.777227144171142 6.492803630403048 12.648245649765865 -0.39629441466164006 -0.4500816356854248 -0.2625942220612961
Ni 2.1141209566643493 0.42435460288477633 8.39525058784062 0.1987622152069996 -3.0617999993895206 0.6834830382328487
Ni 0.7606042888449696 8.593307466011762 12.19383831236241 0.27499233861533284 -0.34420489305525237 -0.2462687454283952
P 5.350037309040692 4.249529732966667 5.046431431968424 0.42542347081711246 -0.005274875245694141 0.36908700100891273
P 3.2441835572882862 3.588479554410238 2.8732666011251937 0.014625720332974811 -0.04569415960300518 -0.4192047436009103
P 2.875318955715509 2.942342034094068 10.276625959184704 -0.11074769756922863 -0.7905023791078967 0.1400402758857588
P 4.347198324028955 8.613700526155315 8.300933616717828 -1.4698724236136365 -0.9869883966862097 -0.0673058243355099
P 3.7126274342603844 1.505768384164432 6.252709832734897 -0.10160794005148953 0.7494174361421286 0.447710564350087
P 1.8181046905952316 6.739589483456514 11.2528160239211 -2.597783241680242 -0.8491338155978602 -0.5668416008870044
P 9.292375602669448 0.01465914305017343 4.667665757365255 0.03951836980959646 -0.41436849855453156 -0.09337578194968435
P 9.29948707656777 4.884408196311443 1.0553856004035655 -0.6270000155444556 1.259891713982998 -0.008982148893952272
Ni 0.6472391929436695 1.8909716669216914 10.201735521543268 1.0352909404463397 0.7466576140088044 0.04263480395139109
Ni 6.425622105030687 7.927252226533447 6.956509010219305 -0.2408110647479337 0.1441118748519712 1.733426952705673
Ni 4.326003708504988 2.331827126149313 12.10542861798504 0.5175244998194314 -1.2068316009332247 -0.5312873579314785
Ni 3.480129771883365 6.9894697130948344 9.759837108279969 0.2954809454869879 0.34711229651003445 -0.2251571602607606
Ni 8.046497569987109 7.048505198903456 10.446679661304065 0.20519897197127887 1.22594081095885 -0.6418892739514623
Ni 8.302631795674937 6.103834901440124 2.80481470367899 -0.17004762088112652 -0.8378803541712279 1.1301535913541956
Ni 8.870058441716747 8.34621403938209 6.921573312168082 0.3355158499216867 0.26983342012221273 0.18500784173538462
Ni 4.030397540537479 0.9401964999912543 9.862979576957573 0.2754487094264611 -0.22642240012642942 -1.0371699026366072
Ni 1.5270841650366003 6.195631633320311 2.276252309093572 0.07381020111293095 -0.35597771732046435 -0.9153284091470623
Ni 5.509379062337847 0.8282201453885785 7.344415212282612 -0.4260809018954533 0.17970674123744534 0.3185853927149352
Ni 3.490941449107552 7.451035126453615 12.15165879057098 1.7067604991580798 1.3598582617763226 1.172681180303761
Ni 9.006434701323904 1.3388864180445468 8.053329431543427 -1.0350502851904433 -0.6338216664519793 0.8945058159747562
Ni 1.0949992129365305 1.139970197942308 6.1834936615538805 0.4275382031672701 -0.7641197753493099 -1.2070267476631664
Ni 8.845256826980918 2.1521482351770067 1.9424482990847813 0.027614676393475025 -0.5120891877364728 1.6205969186861187
Ni 3.1287409416858902 0.3476476170614502 4.620221135173875 -1.4481008362644996 -1.4861763029799826 -1.2517068641793605
Ni 3.9665713632691744 3.464918860478302 0.37135221937548 -0.7221501157857434 1.402741948513726 1.6170801637821117
Ni 1.0122153188802994 6.108877244007611 6.603470467204001 -1.4143278535791126 -0.38140798446811086 -0.23891101951174337
Ni 6.327151958587985 1.6354339475634738 10.088115978410745 0.3577597489215516 -0.13392027903095 -0.15902890117311966
Ni 7.308153219689144 4.0911200208095275 1.6631006567637119 0.16505248165938027 0.2342490952596998 1.3811979037943631
Ni 6.584320749941231 5.4784073352551115 9.565610919194294 1.688183250376525 -0.05305677061566347 -0.6019898666533632
Ni 1.39750248534016 5.675366268963316 9.136194400878088 -0.49829393372459346 1.2975887143131395 0.5840430523669554
Ni 5.919206872014332 4.929509667076822 0.11325697912905801 -0.96575828366284 0.14237560888715478 -1.850584924676619
Ni 8.956812831029447 3.0186668830499874 6.434331097442997 0.3963664055501561 1.1906269661489044 0.18103240202740437
Ni 5.2977125194401875 8.897078314365814 2.6969113688581845 0.004405328156547252 1.8273262112589947 -0.12044435603170225
P 7.216878430847367 8.349988805999155 13.531333192984912 0.5139398677919664 -1.702843423491861 -0.44595964309725133
P 0.3835740748445113 1.695149823404306 12.496253972898877 0.4903044877612136 -0.2952675439246012 -0.16317531924132542
P 6.921747603861264 1.4534342741525272 3.2560298001778905 1.264656225251177 0.08800166212196457 -0.5198858009627563
P 7.151579628577837 2.877742262679551 8.428698748232376 0.006187873978266763 -0.21169100745352573 0.17017926136298434
P 1.7353021557162 4.25439498771755 7.604815390268294 -1.461040170033987 2.2305890868186684 -0.6770627365288017
P 7.626445269004647 8.973244716327931 8.945733657998076 0.8238786405754973 0.3124142309072168 0.09795003158392808
P 2.9693805475659354 0.1555464817750091 2.230881478438728 2.9714082397688246 0.4621591356752492 -1.056054398245936
P 0.12404628736588454 5.1066906877938845 4.805743924094083 -1.7097164964626104 0.7173634930303774 1.062390367766293
