# total energy = -340870.2471711573 ev
CRYSTAL
PRIMVEC
9.24197449812682 0.00000000000000 0.00000000000000

0.00000000000000 9.24197449812682 0.00000000000000

0.00000000000000 0.00000000000000 13.52656387110500

PRIMCOORD
 96 1
Ni 1.1089815046677909 6.8103833845457356 2.7438230484395625 0.016271226356197786 -0.7920969772885261 -0.4297907466468727
Ni 7.2704581239816015 7.175265785214012 4.998646749419868 0.5716907014491897 -0.06086881046091453 1.2174410010179548
Ni 2.826907476234394 0.40504062886370595 10.052644609141966 -2.8513099542226312 1.2215797057766768 0.20747054161427494
Ni 4.415020672040844 4.307157586045062 10.756972723683367 0.024416738281467627 0.9835613732825319 0.05359593094858512
Ni 2.243258293918775 6.198453759838968 11.345649540201858 1.909406622800518 -0.47934258943307123 -0.0017043842856164196
Ni 0.5424881998720051 6.1304882783538375 8.983018205073597 1.575803416520512 0.6200726922970031 1.7371375687880406
Ni 8.569205093883852 4.710449633307329 5.366068844718564 -0.985649109049496 -0.007987903301483017 0.2691667330724912
Ni 2.9128393564150787 5.285697860677341 9.062946498529676 -3.2582173685134275 -1.1422758285390262 0.6555179204784903
Ni 5.699618178772882 5.203277930858955 5.853837161156089 -0.7319172224748363 -1.3908081731906177 -1.1283998418878824
Ni 5.591930690295216 1.2636274662792557 7.404360473518906 -0.7931177052435566 0.5158725660383051 0.7419964610877092
Ni 3.207639863406205 5.280328273412878 6.564306567844196 0.09422296044132805 0.10983521305728827 -1.0420251738463797
Ni 8.3879145193921 7.872813062963783 7.082508706763436 0.7545449871766811 0.3644266194187659 -0.9884246149121041
Ni 0.5385899349698527 0.38903814977864937 6.0629978343650786 1.3415851744987477 -1.4733544686249658 -0.937657668771882
Ni 2.0573374901335697 2.1877140263466184 13.009064496960791 0.7359991058536938 0.6685503281824163 -1.4769673827872047
Ni 2.859420743009576 2.13673529424545 3.636075626867608 -1.0146964041244395 -0.5531504765531571 -0.5495038809395053
Ni 5.503059862179765 1.3566479410070034 5.112432092763443 -0.5962097696364764 0.2103784592896893 -1.0147755941018073
Ni 6.557356602916698 3.6377706050161494 7.800782961033022 0.2947075576560731 0.3256207022951618 0.41524113096747195
Ni 4.587429708905834 1.8139131201530296 12.367513419342954 0.024332920318409706 -0.5741620458078176 0.9432179364684787
Ni 6.0905259800207245 1.1939244935622493 2.7441067770609378 -0.1836911798064901 0.03717095262334243 0.02616200310734849
Ni 8.329791740896043 6.4746778978084585 1.108309613111635 0.14941888888718138 -0.03979167807564115 -0.024166055723242253
Ni 4.152456172585771 1.603528809502017 1.495212866748992 -1.0143426203294466 1.2357526548429494 0.054692249336557426
Ni 5.179054715333727 7.662678285627987 3.9118145611686215 -0.5788599655041192 -0.1840166814667089 -0.9299078496231339
Ni 7.402147020593193 1.8986527856054605 9.302001262901545 1.044551025592027 1.5501936863722077 0.9064653023294775
Ni 6.05630294793758 6.792370775976995 7.385787801287124 1.4500057665966963 1.6793245144343143 0.16070937419933612
P 1.4534483833615413 2.6690730333729458 5.358561588720417 -0.20996605434261906 -0.7570523269795671 2.419275148736588
P 3.473134068821406 3.7719548347799012 0.15245284102995546 0.28362378903808577 -0.0844478833324352 0.07947871225261796
P 8.41743338638469 4.8065199596654935 2.852414402036789 0.06330544492686517 1.6193224228490692 0.49609641185264236
P 8.645673192035604 1.440213875680455 2.402885679859923 1.4843652179131726 0.7269675917790448 1.6937131790558184
P 7.953403081803918 5.062864610189441 12.922481057568152 -0.17699165629912744 0.12710299899880045 -1.3571128378207014
P 1.32109406457604 3.946970108492703 10.26881254752121 0.6489186699944179 1.3101290128719951 -0.021772615790401212
P 0.47766129297381227 7.724008029323301 4.626531579400183 -2.1968551849013322 0.024581031773473795 1.4742111601983061
P 4.645487793579426 6.124139041777785 12.016323004100329 -0.40928671315625 0.657738582278893 -0.18633813051103393
Ni 6.745689562082325 7.97433615435815 12.369812822632797 -0.8040739471447443 -0.7806203441074944 0.6101783160014266
Ni 6.792204420433517 5.003494165117305 10.663112153461059 -0.3188545872159218 -0.05489562359661513 0.8915009677101614
Ni 8.642188967597217 2.0261088578330178 6.958605249586584 -1.4316334347370956 2.527425517892286 0.35628573547918635
Ni 5.718961631689442 3.8199484090731146 12.759499759031009 0.31490974363556085 1.7735711290247262 0.05033731480197137
Ni 1.4407499102094374 9.403801613535041 11.926506721979448 -0.7170099663457006 -0.7466619848841786 0.7831683073403286
Ni 2.994482960363903 2.589139194732083 10.868837584697244 -1.5577619856377687 -0.004969942410765634 -1.1937639691159894
Ni 1.133112300446643 6.381869988497376 6.715167940841551 -0.5297560088886167 1.0749057266244844 -2.05499611063928
Ni 3.78291581670013 6.28124336864286 2.0740414350936223 1.0761452554585402 -1.157085382748033 -0.3249807547183177
Ni 3.459261864890323 3.2201165291670053 5.619678794947236 -0.02214696841068444 -0.4082978668804194 2.330999921238263
Ni 8.554538080133934 4.123380920375787 9.418451991730613 0.2379309149866612 -0.3761210250375587 -0.7297099304108723
Ni 7.55830866604523 6.857674568766488 9.25755383427679 -0.6529241916093852 -0.5792052646586799 1.2331643252904827
Ni 1.4933552298468282 4.523456760464159 12.651124667640303 0.11776809475111975 -0.07186696134363106 0.3685874356646749
Ni 0.8104721932545836 8.691855339299842 1.1425723856857213 0.5669120491136237 -0.28311419639151886 0.055978829358464884
Ni 7.22304679409056 1.3362046931085652 12.043741170257785 -0.20402654892973252 0.029724266537310102 0.4200714624765798
Ni 8.923967532323923 6.423283276848597 11.423197100991285 0.0574214753422624 -0.8114668971747057 0.3382895560120819
Ni 7.845077897076255 0.9337259396144104 4.522930892107277 0.28038008528980746 0.1956439812929921 0.14750161725981048
Ni 8.295272965624495 8.685921991582482 10.927840199178803 1.90205661019335 1.023872928417385 -2.118466877499416
Ni 5.25907173174633 9.082513607232467 0.4477496420591224 0.4463203688707797 -0.9003450483643528 0.20990434786674816
Ni 4.438264238254484 7.93724811013734 6.12463903260568 -0.4602837730294072 1.0483909681634072 0.21981363656066016
Ni 6.0097880895863875 6.157955426976874 0.17996157853886155 -0.3291785948497492 -0.5221278029193975 0.6607997377027202
Ni 5.28242620165562 4.254894219469264 1.6160184140273104 0.2432178744172134 -0.6384059433885522 -0.2409509327599076
Ni 1.5628086692486187 1.8168613100624336 1.5299894931129303 -1.2584665515006972 0.08069921492328037 2.1415214453260347
Ni 6.3837091414502645 5.485832821455222 3.5396855281869803 -0.19310373136964162 1.0478914028191695 -1.0869554587001669
Ni 0.4168315401063945 3.1255711286240495 3.682485126707931 -0.5526020602488547 -0.6363470039769945 -2.06170977521403
P 6.046081323988361 2.816574948589523 10.832181140692011 0.9743696794809349 1.2385340742428284 -0.7099350617767902
P 3.8689031487286414 5.509898923411611 4.112440270799761 0.037202834302542384 -0.11887495466205335 0.7616291477169721
P 6.415926665037045 8.877988708501713 6.143589701600142 0.9329324953820707 -0.749154155178413 0.3703882363188395
P 6.740144377299746 3.183555277500541 5.7591780843250895 -0.06379395452750948 -0.5978619605279187 -0.6287352530680075
P 3.804468101555084 6.810956386973269 7.820815865257549 -0.3640934044490633 0.4680181655591875 0.08953095428229742
P 3.2693300441123863 0.969945238219283 7.9609371395285145 0.1275647691265674 0.6091930692700218 -0.5885625375038637
P 8.78268546603847 -0.5363626190821839 13.065605973596348 -1.4410583275954214 0.028481395269144498 -1.9882980950910982
P 5.936489988735343 8.260255123722514 10.265607430716878 2.4374698173677443 -0.893051600026733 0.6269709620787332
Ni 4.361084508055634 8.720976801383014 11.637200568910393 -0.2911172692016535 -0.8854691596937847 0.29697398509274664
Ni 2.966137824150292 8.281391519718774 2.11113132770936 0.18292859060885272 2.83657907577036 0.49433417774589705
Ni 3.0047785201102233 4.054149288365299 2.297216638643115 -0.7572623861078442 -0.3732611869912604 0.12485739749773334
Ni 8.122503491748637 8.111986124611013 3.044505148090076 0.6067078409543228 -0.8098044218706182 1.2322238157540841
Ni 1.2503744746488943 2.34233226203417 8.61788257430025 0.7450619873869103 -1.3149382613351805 0.07398529323821451
Ni 4.809079986640118 3.423153469981102 3.9082841268570467 1.2012276244828861 1.0685725853176047 -0.9462508097575316
Ni 4.161365436136447 3.020249585653616 8.29535521919877 -0.7888316762736931 -0.10924180244766347 0.06112026435008828
Ni 1.579841628505771 5.125987296964455 4.4462899690298014 0.9266196657901654 -0.5066356208210694 0.13033513278285297
Ni 2.505083435402837 7.400095302223639 4.9053138959493685 1.2517215194673796 -0.04788088284167883 -0.6254506687794648
Ni 7.128695475014993 3.3107156065396937 3.572433541117959 0.5081474294799054 -1.8562724619797 0.2784586998973785
Ni 7.055406616138586 9.08909389317446 8.53695245079345 -1.213102007322969 -0.9436172287894264 0.0649128986233011
Ni 7.599472421081234 0.04997043266820239 1.3269303715597034 -1.210519077087141 0.2423316151575181 -3.718353560221377
Ni 5.246465678340601 1.0856547606824123 10.003164925327022 -0.5842459124063809 0.6504204513509251 -0.3484425852856838
Ni 9.017597977377752 2.9629770688242223 12.866886883332953 0.02515053112369862 -0.269382191517407 -0.17892255477325317
Ni 4.240356593364272 8.468975878938753 9.037909065038873 1.2520606479743532 -1.7920738158146041 -2.4084744585766584
Ni 0.7928505202130143 4.487791980337543 1.49827011195912 0.06995277504005373 -0.04306134996584842 -0.24272705082372392
Ni 4.99743142975502 5.238083207344271 8.669946314223875 2.8791909969036156 -0.7079098038166453 0.19878766912829635
Ni 0.35536039419912513 2.1363009214374817 10.81336540452726 -0.5794461770248924 -1.0358866650488094 0.11620434980842567
Ni 3.203139021757679 7.483328525810136 13.338057537518758 0.6181137687984193 -0.8175154173616307 -0.4883789886037266
Ni 7.64827928914256 3.6126509179510706 0.9625756876432366 0.026474135031128603 1.2261950930615013 2.3387129736118046
Ni 0.925814809324599 4.229303191697666 7.335929196512038 0.0004244891319283012 -1.0497009452240826 -0.7495863576198252
Ni 1.7572228477258063 8.250763615769667 7.99152068199936 0.3256289298252779 0.8458358615728788 0.8370272621423134
Ni 2.9270442714331164 0.7416915696064127 5.637899347945324 0.5557136092946429 -0.2410424640324494 0.5644949550316988
Ni 1.1028633174576796 0.28093477244228965 3.6064929902500173 -0.12861300788542365 0.6363567741690073 -0.3147976435377288
P 3.0628273628091782 0.3375113685814701 13.542390203177048 -0.06190342237301597 0.4963293537990549 0.19939573502594046
P -0.13987266515321334 0.3778951009580587 8.278094907365531 1.1514628943549332 0.5744291834262752 0.4968199202822282
P 6.324255518606391 2.1302197021259213 0.4136504524361222 -1.2897746175853595 -2.7175940778930037 1.08385110874323
P 6.133334806542227 7.508670020266519 1.8959910969098228 0.4873446338019413 0.03884165545754601 0.12907503512350674
P 1.391111264430726 7.783036521333845 10.392824135801321 -0.9619178268708272 1.5034119501319785 -1.3786375992663549
P 8.317795657816399 5.7532863254936 7.455760639663549 -0.7757905268190188 -1.398197009455521 -0.5018849935099615
P 1.6064215475635952 6.412581070218222 0.5984418869206092 -0.6438700518269169 -0.8823678950606416 0.38664892115207605
P 4.032134904778465 0.33121850805070774 3.539861125705096 0.15456906562955317 0.4178448871389063 0.3910881878703522
