# total energy = -340871.7133085469 ev
CRYSTAL
PRIMVEC
9.23171532921175 0.00000000000000 0.00000000000000
0.00000000000000 9.23171532921175 0.00000000000000
0.00000000000000 0.00000000000000 13.51154854038758
PRIMCOORD
 96 1
Ni 8.845866698927665 7.59474769033923 8.83925494430154 -1.7818775920078924 0.6734238542246337 -0.9083532633808098
Ni 8.314258363064164 6.10745370464919 10.796524486973569 0.03567379925252565 0.35003152703935847 -0.31115027659312866
Ni 7.41148890636378 1.9485381861719033 5.435263882298532 1.0295920902893492 1.3106450332764654 0.9999228453596908
Ni 0.20221795805486184 5.148056905200055 4.901328230962752 -0.46328579308052464 2.054837987794861 -0.08417946016239697
Ni 7.761730959925043 4.776148015409364 12.633108736358977 0.6750912146247278 -0.37263872291591305 2.334714908196005
Ni 1.2528545710985044 8.925471781503875 7.499760723431759 0.4139154701775129 0.4252671477449063 -0.641806741539985
Ni 6.271962874486606 5.969208765349791 1.7245601515612743 0.4788479091848398 0.6523125261673153 -0.14466029115627344
Ni 8.63500508566973 1.0185167053772386 8.713071241275575 0.10829666492557477 -0.14255867143223835 -0.18961988658609924
Ni 7.046734596069385 8.37804951702469 10.606471160405505 0.24060717626724365 0.6143206203045742 -0.5953600200416714
Ni 4.960043787752872 0.278360224154863 0.4278124660458799 -0.6391621048282864 -1.0683720392710248 -0.06227288989729275
Ni 2.8748485173439735 4.8882302730410165 8.986071531423276 0.27000337004117375 -1.0767975443305586 0.622739954716521
Ni 8.01311980413619 0.2703055523993554 3.8989199459249813 -0.78167526773457 -1.8523070495740486 0.5523974004372165
Ni 8.851174935328144 5.1619875638580055 8.75183521457228 0.8337066824095126 0.03680662730538822 -1.0102152284246344
Ni 3.367388233299957 7.037770600339186 2.6812049766260913 0.7356244961230944 0.1423961777124451 0.8982097471889048
Ni 1.7978765895531255 4.791721919422591 6.739087677728651 0.08305897340470857 0.1379754229369301 0.4576172819408376
Ni 7.013574274068486 6.3896210882676305 6.183776912372581 1.7154649689106136 0.016081221832578756 1.1579505589618058
Ni 3.953546775929411 8.248980902911507 4.650269882165756 1.1584884337431467 -0.6155424085268173 -0.5917036542360067
Ni 1.098832630045337 4.368733947886085 2.9901194095021046 0.9603566530312945 0.7780392136438794 -1.913035220692041
Ni 5.5611669411739335 3.502152815863739 4.596034476897639 -1.058725774430512 -1.2649398179298665 -0.647419202630756
Ni 2.701633839809774 7.325347769228374 12.00903738459999 -1.1486040847498993 0.2979587176035191 0.8235377122963107
Ni 1.818066351305899 6.4708232576217215 1.170924019393113 -0.9293350078387994 0.11574849321792967 -1.7508585179185587
Ni -0.27833437535152156 8.50143139440275 2.035852674344701 -0.04353906093321534 -1.2161919591022021 -1.2218733257576957
Ni 2.1718626153266127 9.106736514935841 9.951174454210038 -1.3322353578527315 -3.6041616128572893 0.5756579136270538
Ni 6.003301490614076 8.345073829333375 2.517539585583465 -0.7438731092851317 0.3633336434649033 1.4951301697391604
P 7.292215142373913 4.69486276061596 4.925932599057628 -0.37627323434470683 -0.9955175172031434 1.5702909713427151
P 6.18764961701606 7.81237615104334 4.889627031593005 -0.3507254677825895 2.028394706001668 -0.690917640134023
P 0.7788059812471413 6.828210658963803 3.0694189222959554 0.2584827709960839 -0.1992746360670439 -0.1481122542606159
P 3.1572928524267865 8.170732882510725 6.598892076948519 -0.76695955879095 0.12324120205054905 1.303946281100051
P 3.228755561950436 6.900725784052068 9.923786723898218 -0.0503815377763455 -0.3337435885126123 0.7063550577350157
P 0.9214433707714925 3.3548238685329133 8.447555102866772 -0.7009500846693606 0.6051746921392481 1.6056814350268669
P 0.3036588172537661 1.152238104091883 5.413699518110921 -0.1996075939264304 -0.12379784588496745 -0.16209339903105632
P 3.251160935418192 3.4504275140343874 12.428611467752328 2.1024615032100953 0.1172577307736045 -1.5615139964810334
Ni 3.5899187349234647 1.2852948192920328 11.623580029172183 -0.2947124427520796 0.03854083638767556 -0.16785729809802702
Ni 1.6522647413014107 6.784821596212071 8.413938734121206 0.940695170046625 0.16507510736719955 -0.2954943152234266
Ni 7.415587788036497 3.3276641615934253 8.87383141145693 -0.056325156954290086 -0.4208901017231332 1.5544054104607101
Ni 2.7535437759487067 4.275336682384114 0.814821672845722 0.274162900735502 0.21001901906774156 0.7728381290589141
Ni 3.8425723241552485 5.4015505805404365 11.443957617923946 0.41566613432003247 -1.1599305655063121 0.3588534962063626
Ni 5.397580942884428 4.882765097477395 8.857171857703362 0.1500477807204319 0.5356728885936839 0.4762611222942701
Ni 5.622650166264685 4.572062481313082 13.619370751023817 -1.5087297628004663 -0.08200122156415555 -1.450638772195005
Ni 2.778118602554049 1.8192203157407854 0.64576311362021 1.3197269409730754 -1.6530848640114948 0.26638762766545737
Ni 1.408298196335452 3.162554930249869 4.913907366474564 0.17888373111551775 -2.042511605019024 -0.014827551931135755
Ni 4.190607997717009 6.613536347213001 0.3560063367064082 0.21558082942623516 -0.1412767193960212 -0.12203458333695756
Ni 5.53539199155631 6.700859143929732 10.322485128837684 -1.3698976482901957 0.5147644205757909 0.09660997261626587
Ni 4.468685731378212 2.7564333028936625 8.310872169826434 -0.28533845773634736 0.5540447062326522 -1.371702305599102
Ni 8.421512433500254 8.602398666597578 6.241862866167027 -0.09785901453201858 -0.2926164794549993 -0.07917146542484431
Ni 1.5812174589743202 0.22912286964712694 12.524584381872966 0.32896365062546573 -1.2569300602515128 -0.7524780773453233
Ni 0.5193089213307065 1.2661205462419594 0.6962365948305964 -1.846591230136194 -0.7726951757231466 1.6879443948928412
Ni 3.1908316747623267 4.943574407338172 4.532840614928612 0.02905372283284674 1.2904045378598743 1.242300483263796
Ni 3.3555808692021984 3.029258190447262 3.35024216814064 0.11334836841686931 -1.8544960868055675 0.3806122280396929
Ni 7.535286210938401 1.5216913575651365 10.873026789977255 -0.5778950304876886 -1.4017225061102763 0.9051936347059055
Ni 7.191146321308817 3.2237704355917263 1.3162949198708231 -1.727144976351703 -0.5271034017571181 -0.33431591607631456
Ni 5.028515421461296 3.280582412650057 10.799510946931054 -0.41884093250358834 0.708910734277334 -1.8198401872945948
Ni 7.35883120127104 0.7483468591954258 1.092459053678572 -0.261774040152846 0.9082146809204167 0.007731564316302813
Ni 6.342714741918366 6.959744141109902 12.535082688715791 -0.8244447974916124 -0.8735256141786635 -0.7268266953258062
Ni 4.837548155060803 6.846507919043362 6.840802718877283 -0.13469443819281318 -0.5492606545804476 -0.07529064231319937
Ni 8.631764753536569 2.2201721824287 3.066027190028937 1.1217653672905004 1.0957460604086033 -0.48093744472401695
P 6.520683752924297 4.852789717316784 10.986713519759173 -1.1496546375016008 -0.6669161350131031 -0.5940017062415641
P 6.919290763880522 1.8027140084641695 7.531364578202883 -0.9455093036058169 -0.5493478149776152 -0.8452987581224861
P 3.675035151640691 2.468256072498334 5.729423264324313 1.3756268374644889 1.7982467773945352 -1.0204790722444876
P 2.8853449778437006 8.373756769326912 0.686462054481334 0.4614356272456634 0.9421588990763452 -0.045855881991850055
P 6.969492832655823 7.882232542073629 0.6846775638792256 1.1418868206307238 0.3854281613710975 1.3992257078303516
P 9.183036643370535 8.854064462273099 10.498486861275023 0.9438653402444906 1.6783356681584838 0.5987610753034204
P 1.6229725080862523 2.3019744132889324 2.366993385408176 -1.337873529975115 -0.5403625807598694 0.24366807458075457
P 3.927051752504418 4.8503525444303035 7.074917177083956 1.0508540849919192 -0.2191232953618549 -0.3280596507539576
Ni 1.247684810430213 2.002294465406655 10.198287167811271 -0.40471143508074175 0.013995800058459766 -0.5465789939832264
Ni 7.911940202485345 6.900227271416197 3.6822885104926133 -0.657750409353435 0.20798373380526763 0.090745800526005
Ni 1.9185443425803341 2.1474816547463313 7.000752344439576 -0.5845986677601094 0.8155207555291051 2.229783045977605
Ni 5.571977279999951 2.226329736653254 12.60607273440691 1.8541021938012585 -1.169240015832696 1.1433834597809085
Ni 8.814192683118902 5.763627693345896 1.1445767034157848 -0.7775039099656997 2.3244587776856354 -0.034330912071386034
Ni 4.567760501899825 0.7632763894682131 6.716955563039075 -0.7708910326348724 -0.1989938716018315 1.9236780451178679
Ni 0.10937090279544412 3.6377482528206393 0.9024629637464799 1.5463450020500789 -0.7921584266540809 -0.4183989598701633
Ni 1.7045716412059446 9.105582550500955 3.2667680736071443 -0.290344652701687 -0.0905362556183602 -0.388410383927873
Ni 3.878492929084395 0.7131749463916339 2.8007279969338934 0.3581320446593058 -0.21271199251887235 -0.7235778493712054
Ni 5.8140328598617375 0.9789588045493303 9.257505199454176 -0.5705568449550625 0.836055128037031 1.0628097146918987
Ni 5.494569345707766 5.840795603035624 3.9519386110929533 0.10317708431082231 0.7189892015592585 0.32925829904774906
Ni 5.492704539180989 0.9307230911710758 4.70455883138365 -0.2406727393978565 -0.9847551364803169 -1.3333226773796394
Ni 8.872481734653888 3.7432482973157 6.649627738878511 -1.2735884947438003 -1.2027196356473804 0.49517132893521176
Ni 1.3859389814450918 2.6339007433396775 12.563942877646525 -1.9874192920305707 -0.015088004681374017 -0.8271334000673689
Ni 4.829839672635761 2.6567123122885135 1.2407111725573072 0.43533533061418567 0.27922257464659656 1.8907784661763691
Ni 8.869573744277973 7.786259627952989 12.351852523058325 -0.5978437056954736 1.7900680982384847 1.4442161564981126
Ni 6.258327630723987 4.012666681857515 6.935126848613356 -0.012154633084662938 -0.3560977878380964 -1.7016853986280178
Ni 4.319676611830191 8.329241437286731 8.75494353317409 -1.4828747494105752 0.5048957553118273 -0.022494067337458033
Ni 2.515836334077573 0.7474661535387205 5.426305425597621 -0.7145859302852403 -1.7850950705039255 -2.0883219784849194
Ni 8.597672028272283 3.372391823089625 11.028706747130466 0.8982650259068723 1.4811346267910168 -0.2846992814904516
Ni 1.5537161785621059 4.264701746152199 10.961028117781696 0.007589896532115962 2.0403500785913313 -0.16946063802940492
Ni 7.94798081971572 4.593535451517449 3.003401078561874 -0.048073458468459146 -0.4513255353948549 -0.694600745412565
Ni 6.238497905874898 8.661084681898165 7.670181883861986 3.103469611214165 -1.0200584397673014 -0.9642408185770491
Ni 1.6435776970355853 7.15096066382833 5.0265121392023335 0.4576396505383408 0.5005019971195057 0.6733454355782145
P 0.17863092500578234 6.3834727657585555 6.7534236086961315 -0.10302436078304193 0.9326866979198518 0.25647473942711957
P 6.251099197503859 1.7221765226245727 2.910603874566043 0.41478167483255024 0.24248176758213721 -1.1104787386330874
P 0.5814005164715299 5.980739177983176 12.578684080923539 0.929210309335477 -1.6367033373296782 0.07270925473926834
P 5.309039559724458 -0.12760723355284204 11.709202343897664 0.7356136974898169 0.3335525555477287 0.07106117761288408
P 4.217961570681558 4.714175509398221 2.4501840662764636 1.064288356119954 1.8532912678641889 -0.3838752150616808
P 6.8472741514281275 6.621835659428706 8.622300398827404 0.06798562401135388 0.37692732298893794 -0.7392096423711914
P 8.065094362283478 2.3102552620736776 13.018160819477254 0.1393969858748051 -0.23239147322567075 -0.7205007531077785
P 3.3316614943958722 1.3858374325748217 9.402497599597243 1.4445221177743057 1.0965878395836082 -0.4667860929242993
