# total energy = -340885.43291576806 ev
CRYSTAL
PRIMVEC
9.13728678269032 0.00000000000000 0.00000000000000
0.00000000000000 9.13728678269032 0.00000000000000
0.00000000000000 0.00000000000000 13.37334281757494
PRIMCOORD
 96 1
Ni 6.394739431166826 2.1908655740861014 11.3623269224493 1.604161913058547 0.0550041241500214 0.8575490362447489
Ni 4.824341329547554 0.16813704520074557 5.753265335929931 -0.11727161473067546 0.251966824254437 -0.9387876686112672
Ni 2.8583169762109013 2.1062086102041313 4.7388976452564915 -0.16028411373645943 -0.742340217580373 1.1180146419988164
Ni 3.5666303257161833 4.546110940966228 5.024084250416701 -0.09360306746914202 0.0918230927505838 -1.2763573157381891
Ni 3.6740482714686324 3.357815906331978 2.8447645521602007 -0.061843001448725746 -0.01067239211218162 -0.8181473945186749
Ni 5.3506307850978745 4.7709795735766205 1.9810734649948945 0.3550762885521175 0.752489390199233 0.9444746916937152
Ni 5.902659978074585 3.149156820826455 0.19097660773926392 -0.160547137589859 -0.3145896412919808 -0.1449138019279762
Ni 6.2116099254871235 8.202579072282791 12.477021110448982 -1.5853195835410632 0.7413218036181878 -0.23102750299860858
Ni 1.7114595380369568 7.171107294109012 0.24471207874773426 1.3303422545950767 -1.0159678146376954 0.3591915962720717
Ni 0.790423751505557 0.22344687075609815 0.12212989152107936 0.11661855452770882 1.3015785521988228 -0.33683739694658765
Ni 8.534655493045063 9.042770884789528 6.401110861378903 -0.6730464162805571 0.45412315274465015 -0.13068377437152334
Ni 9.059218001355912 2.419379984202042 1.1163955508356052 -0.22644451161361648 2.017765508422596 -1.2605784556373776
Ni 6.795409465297898 1.5051670098595973 4.61911238157482 -0.4767180073260306 -0.7995179523429456 1.3398460803204537
Ni 0.3859882414094807 7.942084157732217 2.12375402866567 -0.06837874568471448 -0.66438668372303 0.7781184036212471
Ni 7.998305884528305 4.234054315980039 3.6131966813591068 0.24268976982788526 -1.3214279828245823 0.26381009674626826
Ni 8.185903523541874 4.121172272612758 12.54367396406295 -1.5750793938702938 -0.4729806517707854 -0.669715037914479
Ni 8.161068377526636 7.6587094765804045 8.988852668041432 0.7362996678132481 0.05378516414125576 -0.5790638539848092
Ni 7.44444923415533 0.9089672578864666 0.28351448164262627 -1.6425585105588745 -0.7414488161143553 0.37650103408479674
Ni 1.894269238672313 6.769331648253199 9.299408036776589 1.5208998225040968 0.9162007844496866 -1.1833178340820008
Ni 0.2193159033118414 5.220196013439469 0.9337174271327799 1.6801986895091514 -0.46965415850071374 -0.05377976482461706
Ni 6.566273719667229 1.886465995590262 7.097634369492183 0.04513905843048355 0.02685208719583762 -1.3808474624334799
Ni 3.786720157235343 4.291098398604447 13.637333203702928 -1.024810609740306 0.7373314515118721 -0.07221200338787565
Ni 6.664060964941362 5.9031168424236515 4.772129958007569 -1.5322057344352193 -2.0099203013465643 -0.9206472502568145
Ni 5.241750873428413 2.7749757816542417 9.322718169594646 -0.0524355920918968 0.3881681860100799 -0.8818973831821263
P 0.4455962467608482 5.955299888373994 12.188063546951582 1.184959997671114 -0.7984563438476507 0.5986430616683174
P 4.284382492673173 6.304033583303219 12.940247752440296 0.02985513568821955 -0.2737697790621414 -0.6168061057305894
P 2.3258964010961125 8.881388122125378 1.7107185040627715 0.006195330177434491 -0.7935581352150849 -2.2911383091566346
P 6.660616207749402 8.005670537835252 5.545377437445632 -1.090981292030108 1.0678781303537415 1.3210011796998087
P 4.999484846405579 1.1349789650982225 12.802889658436142 0.2454933007149514 0.8876702811101616 -0.6482000466608384
P 4.47037196917803 6.246989500678811 8.035373116625443 -0.8863844724192025 -0.7714057674877618 0.04275924534439733
P 4.633408580785801 1.5706722202287113 3.6646706738396992 2.583068046957255 0.7330094270977506 -0.4618580594950627
P 0.5723916370145918 5.993018609032901 3.6457601447031505 -0.04028995786829835 -0.9505021288347179 -1.4844372088016888
Ni 1.0247193230945815 0.40914760899234537 4.311552215512141 -0.8148566395825451 -0.7298287153769237 0.7954602373338043
Ni 2.418155587746545 6.787788967955475 4.454620200150925 0.11052169760135158 -0.5649101881922464 -0.1785482021529699
Ni 6.294247548946221 6.055161297792888 9.206864680501038 -0.1536180145701935 -1.0437668391278345 0.13050945357718813
Ni 8.86954619819758 2.917289026388368 10.16351304304215 1.1831252584552203 -1.7114653608329171 0.910829235725128
Ni 2.7410490350925842 5.449706387836374 6.878619082922027 -1.040450373160092 0.9234135001480419 2.142528289323994
Ni 0.9315646823199799 -0.026383002429875922 9.019851827854273 -0.1455673763515751 0.33657077354876225 -0.061106637503333464
Ni 2.443383637101981 1.002141086963729 11.81914649880931 -0.19538995630065706 0.18931701063369974 -1.182570671503331
Ni 4.250062842771319 7.480888734636851 1.5392847257191642 0.015630764558721467 -2.006102213152055 1.5668708899175725
Ni 5.4153501887865945 8.145187772753093 8.022347914033565 2.1209729317507215 0.41450630968397645 0.3347674017914364
Ni 5.556676606526739 3.4728269375659075 4.638009204780897 -1.2001215359029007 0.17674174507185045 -1.1732419379032375
Ni 1.1032817165600084 7.358257206060498 6.446686735113051 -0.5124401433179885 0.0584062078530349 0.60834177701332
Ni 5.474651181295389 4.410787720772814 7.111395123686057 -0.5586793767911863 0.5532533206796084 0.20204474261301333
Ni 1.0857107136949216 7.948114767139891 11.42195868474682 1.156575018770518 0.025654724453626786 -0.9610637064006481
Ni 4.766484028381808 0.5311504922243844 10.617431530785588 0.3179279616365944 -0.7155716912372774 -0.1301484706933436
Ni 8.405536490711969 7.415694192025102 4.607745596570053 1.9477476844725614 0.7761026587427989 -1.0582429212568227
Ni 7.4343525320409665 6.323039140224373 6.850936758283406 -0.10465572573887781 0.5675088021573582 1.8664144355097083
Ni 2.54528266151771 5.635705001628213 2.370812562710209 -0.2513140211617865 -0.5715963419631704 -0.5841536098028908
Ni 2.5961590754297243 5.526651481506106 11.610763359370623 -0.30656857075971716 -0.19152661669050886 0.24793662004912137
Ni 1.2724768595931912 3.6621149746710224 3.7069699164623438 -0.23942678280589733 1.0167972525175262 0.3640134431407473
Ni 1.6603821038113538 1.6589110006073606 2.429013425866452 0.6627445201339167 0.13670041287924845 0.1631174694201965
Ni 1.2091737353865764 3.6715994785576376 8.274033570205447 0.06457891232265006 0.6414997518225275 0.2921814488001097
Ni 3.5011068407731063 2.931077192443187 7.312222640519886 1.3344591049769277 1.334543694270934 -0.5271229421411437
Ni 4.431794343542879 6.778039482746401 5.820172206121981 1.0591260951927242 0.6331524082990967 -0.011114107635290535
Ni 8.352119911019146 7.558692733282828 13.045067967503954 1.4511524786066299 0.42271429941606553 2.468990256573529
P 0.2296775867486632 5.914282607114829 7.883264700247337 0.15217871102050565 -0.15434178011009547 0.967201700977586
P 8.651950846024324 1.3125347257193172 7.982133800300059 1.777297428836378 1.1990573563044447 -0.8643285210604276
P 2.1074878303815168 3.398074792771693 10.438121411064078 0.33470158155050744 0.3490411381016312 -0.5332465385403784
P 4.578840702933332 6.144834632227605 3.5394560342337242 -1.7950169576033281 -1.0340771226438965 0.17261461027735434
P 7.10340913486438 3.9343878521405258 9.97628637788002 -2.635056524209404 1.68778575782779 2.2318599831112915
P 6.516274485305421 8.033575812276217 10.30266295902334 -1.3110584666648002 -0.04900625469537367 -0.8962935040027983
P 2.6381449091089095 8.579793690732805 5.522347819337902 0.11449070955142862 1.4178911454503387 0.3292989224776974
P 7.3910417917494895 4.257774712983557 1.3968453864246952 -0.1032336485803706 -0.7688344072161597 -0.7836053948777473
Ni 3.3377778359819334 1.9072807353337191 0.6757736431073899 -0.43700371945554417 -0.1761701888390966 -0.5135583160828316
Ni 1.625623864134396 1.6792140522798633 6.950527704007653 -1.3438783414082984 -2.2160548977582355 0.17949488233695537
Ni 7.104295451701568 1.1946180372253266 9.270000592355895 -0.9899644485953983 -1.4804967360967018 1.3316522316557518
Ni 2.9521660507960834 1.7173896372878366 9.219943793086106 -0.5019960651665291 -0.7010277319848314 0.5194967930544537
Ni 6.619699436647031 2.3341747831011928 2.422727886151999 -0.2748252169098493 0.7395860518740036 -0.571347716287474
Ni 4.364498224925425 7.014594705405907 10.646612370489144 0.2052236545616272 0.48847617630322326 -0.050605995082325744
Ni 7.702988769291902 6.2734510837767266 11.297492388944615 -1.2939778570334295 -0.3819245190932132 -1.7483768891472855
Ni 7.7600237146293285 3.796323445852715 8.071333823269143 1.1197084847614716 0.20398772527199707 -1.7468704798050882
Ni 3.8208022376756827 8.419269833044899 12.93384160053769 -1.3063106675671696 1.003428287409788 -1.4362817321423844
Ni 0.4808561234930807 5.269756658026172 10.065580514905013 -0.6967638145021549 -1.1795527106126138 0.28099766426914835
Ni 8.875540258457331 2.3839547225754476 5.542916766061562 0.09652178377783377 0.7348503369612311 0.006165762491079704
Ni 3.9795077752543055 2.950676673018128 11.609211848041193 -0.29629649940974784 -0.2043623350025964 -0.3202530102253452
Ni 1.2681366482770622 3.4042881479189933 12.445995452503896 0.9235482259536932 -0.39483377095571354 0.22129279220934792
Ni 3.107856283670869 8.539452568710258 7.682316571225354 -0.5438001456865086 0.03850689782594659 0.06763543976078673
Ni 5.989811421302456 7.722268444822496 3.43676206585062 -0.8474150331345406 0.8076305541477511 -0.5534032159939115
Ni 3.4363691625104233 9.00132415104224 3.4438900634247513 0.5225111544007452 -0.732122910727739 1.2571732866105703
Ni 3.699084437797461 4.763148918633624 9.49924598543034 0.19331790426297674 -0.05450404458515128 -0.2140682494364507
Ni 5.7098358109076965 4.721875793338983 11.58372247227809 -0.3657538228706217 -0.06163422787202933 -1.0481148316838853
Ni 7.687830010189885 0.11563236674865962 3.079680545535257 1.0516220735061954 -0.544264744027753 -1.1390539791676189
Ni 5.154983196253757 0.5181115837020345 1.5218197153830606 0.9187834575751983 0.006774599719672204 0.9314358562318862
Ni 6.458773538331947 6.0138516233503205 0.02920459664970888 -0.184740704116927 -0.42209106400976987 1.3734866511930346
Ni 8.183674025518432 -0.1260305993334067 11.214765220073101 0.372094677486985 1.7341599742169553 -0.3076551189556766
Ni 0.07176242449392516 5.13858176612228 5.728230997058499 0.006274520154802097 -0.7376785504386456 -0.19001815046578244
Ni 7.813595628200834 6.166142785468054 2.2698044237751587 -1.3473313329539054 1.894609152776369 1.2621928513123488
P 8.714066122923366 2.0310726993567014 3.1651891045638867 -0.05528154618112416 -0.21517588067833263 2.255559126500444
P 1.879695265937101 3.6774016557907783 1.348327306282561 1.0232517498936184 -0.1728902325362442 -0.2159058168658217
P 4.64085546967558 1.0870995813160829 7.700370936571753 -0.15996298295161485 1.1186049672846479 1.3871088699621594
P 8.695106252437117 1.858487622853447 12.240581017605441 0.6660195913407626 0.060311395295547736 -0.4377513962548461
P 6.962978171248406 8.015493121340176 1.3333101751287546 -0.300813670553811 0.29680094984999206 0.2939899627637582
P 1.7160190442406378 3.686968395260225 6.084162132942913 0.5522958418623456 -1.1174106898662304 -1.037137249626459
P 7.149698630711769 3.8380351609224603 5.846317639090342 1.411420964344963 0.4260001692561889 0.4053027888078375
P 2.876573275599587 8.715518951553397 9.97834592236561 -0.7650512860246437 -0.4075329636899369 1.2885674846511357
