# total energy = -381169.7535000537 ev
CRYSTAL
PRIMVEC
9.23301873517464 0.00000000000000 0.00000000000000

0.00000000000000 9.23301873517464 0.00000000000000

0.00000000000000 0.00000000000000 13.51345620676124

PRIMCOORD
 96 1
Ni 7.091521685232373 1.5921325361915073 10.260902207939303 1.2605352611042677 0.3221587118884903 -0.06708753767711671
Ni 5.140557104743771 7.538602923626618 12.868013119077913 2.0236751890388116 1.063426265229975 -0.4083744857546257
Ni 7.460750108746186 4.328734689993197 2.6870430018623854 0.002607869936492283 2.0160816929622696 0.02211251562832321
Ni 3.766028356633623 4.402571141677116 12.020855017914991 -0.7737572984390738 -2.0595423352490663 -0.32000541299091345
Ni 7.978233115814921 3.332695083295944 0.6252812719612275 -0.059069295358330526 0.5778410373213017 -1.1959632907601532
Ni 3.9186870901764435 7.319743444982672 4.536508082912885 -0.3204219317030417 1.3003349095997088 1.4938060516110983
Ni 8.364265633622185 0.6499574381198425 5.7724215191397406 -0.3962494203563176 -1.753942041939889 0.22919430644461175
Ni 1.5664093456961463 7.996560658217394 10.051119710119474 0.7402293418849575 0.7480120711541699 -0.13141988120659948
Ni 7.03522796934931 8.352161145919593 11.041372060606212 -0.4322731467490943 0.43979670881964905 1.166674826208681
Ni 1.0574299489814065 2.5053057987768197 1.100333017637111 0.6690462939822285 -0.22136555442881228 0.630355819390566
Ni 5.545166456462259 5.567381099797449 11.340628050821715 0.18960934506313798 0.4256978075244217 -0.18852896751476564
Ni 8.524578539785484 1.8590498779109574 12.31974538058433 -0.19598748067533986 -0.2402330807572766 0.08460112108084784
Ni 8.43266383720784 7.013862763747635 5.164694062601981 0.9190305405889979 -0.41938497793251645 0.27342807945200653
Ni 1.641169099264322 2.74708163018799 12.381596450508727 0.7544130895845073 -0.47461510205041485 0.9885133179711686
Ni 1.2235411909778307 8.542592159547311 4.944208649339861 -0.2335052751151398 0.8286048424065731 -0.14548510105041396
Ni 6.473306442591354 7.9819632554273126 4.9674250752194675 -0.8019743843032381 0.8671302521752808 0.8630463119138942
Ni 0.7153438309590553 0.01615870627635719 7.218334429129227 -0.5851085175169922 -0.3139118984986658 0.5758569170117374
Ni 7.576716825408689 3.3404692851613764 7.189929046660103 -1.3188072573722835 0.009644465068299518 -0.01898631129451569
Ni 0.4445947864199444 7.765855216398448 0.7319457221398553 1.1119926041744526 -1.0765594601778234 -0.5412583531012615
Ni 6.937533396976225 6.457499514332898 9.652986397817156 0.43405852078429114 -0.20171898384247838 -0.14592116014656806
Ni 2.9565972937632696 9.164122055952808 6.393486071395573 0.9811103406388779 -0.7682132286923932 0.7219287438035566
Ni 0.4598726626987218 7.404059373052894 3.1156083442697686 -0.3325788787805498 -0.7971653929503689 -0.1973321676286924
Ni 6.536174067890318 3.996927691848262 9.248393665532584 0.06743489371420644 0.5315110439065105 0.03371976084994838
Ni 8.343916060093191 2.309150313466718 2.628610918815386 1.1479875342118229 -1.314193412749356 1.3209983514863315
P 4.916028552530496 7.435174646552307 10.274956709221442 3.8234204053557446 0.4640380978655169 0.37975270825287505
Ni 2.986216818210189 8.468404853147373 2.6099075925460204 0.2632380262928822 0.7952200962985402 -0.04891343787125125
P 3.6659885974745294 6.670117472239276 6.737092867621294 -1.562790806310928 0.6744679792184319 -1.1917633937461927
Ni 3.9106358977457347 2.6393046012388344 5.166099328069818 -1.619302368244411 -0.47148812638565896 1.1699023320070434
P 0.11402593610179759 4.510357403645115 3.9206860387558566 -0.20638425052863169 -0.06867570809984301 -0.5521351479147651
P 9.096674853307936 2.917818614624535 10.5298341943702 -0.2621167682042454 0.9574682757399059 -0.416612814504018
P 6.611700162022426 -0.33918418020013574 0.9052864178900009 -0.4234128681449869 0.638671538345113 0.37260966945019053
Ni 3.0445602642763006 7.6991374222421385 0.1767569127218913 -0.8822473103223772 0.44121544354404657 1.237866101641526
Ni 5.063285970050421 7.521780363295481 2.090072012276203 0.7487926580739362 -1.097327288852794 -1.6003183709427407
Ni 3.5548415166478406 4.9293056336260905 4.590034663048835 0.14949782175423285 -0.3619516755157121 -0.21537745516617746
Ni 4.273133450523324 0.2543493564709631 10.93903512635909 0.28218191438523654 0.1686327428114709 0.25746358570295014
Ni 8.269230170675756 6.519176080201173 12.598298172649168 -0.9612110306117897 0.38453855967729256 1.5252221040285343
Ni 4.515786418724537 2.0748439942991754 9.093461762750728 0.008732237666675285 -1.7848148202593455 -1.466802783549377
Ni 3.1385985611877327 6.1839528650844935 2.5411649973575385 -1.1283221945724116 -1.0258945868331042 -0.20846581564800873
Ni 1.2566138644718663 7.078503128664369 6.779850054579286 0.3964024009944141 -0.7462277255602374 1.8369223395878622
Ni 7.402194303246697 5.821289117967737 7.316901521782934 0.10449940266667165 -1.2521830324848306 0.25206401195393363
Ni 1.7292613320411485 4.40497172657618 10.927602802428236 -0.974561997997399 1.1286921763173208 -1.3625471214623952
Ni 4.07895383124553 5.716374324859774 13.86575252454408 1.246741035533653 -0.33941801318957027 -0.5229837231617896
Ni 8.730696452426702 9.022422915776103 9.315244415160228 -0.02115683658327324 -0.46236559525910054 0.4845035648087205
Ni 7.489898749232136 4.484643446168596 11.703139453127568 1.3344696464998889 -1.4007112912369426 -0.7428984040766883
Ni 5.33836530042669 2.862909851567854 11.042142094377681 1.5294873070627917 1.4263922409428145 1.3222137119506714
Ni 0.2867424797781864 4.690733659753287 6.108109155104201 -0.4156599636724454 0.5056750566800129 1.5771036233891742
Ni 2.007812277502219 2.9809909295453023 8.975840489111638 0.7128370659149337 0.7233644478088187 0.007403234442606605
Ni 2.31110771346134 0.24236951452274674 12.220907760478537 0.8085283833716721 -0.6898364912547023 2.178038566415462
Ni 3.5379266261282782 7.5660803877020655 8.769679181281859 -2.9021033827254152 3.549065186103778 -0.4006825164270067
Ni 2.3935678047442073 0.6482419432188956 8.544666818881232 0.9351097055390477 -0.007874774762386436 1.1842431741097474
Ni 5.0557610596937375 4.788991446275768 2.0883832931299 0.5898791994327583 -1.1931926699935516 0.855487782840346
Ni 1.9593389285788005 5.174811604649654 13.348876126813302 -1.2467760025366463 -0.3451096642577089 0.22024558189175616
Ni 1.3101561407398483 1.2438907645068242 10.614022706780393 -1.4152969023606012 0.35403679154400963 -2.316283698074011
Ni 9.145157435250198 2.1332705375348695 8.313464640648558 0.36300917024594903 -0.5975125476083 0.6412269577771149
Ni 7.779640113530385 8.96177121499935 3.173986875807481 2.1956750485503025 0.40440984467992286 0.008663332101952822
Ni 4.43737038969471 0.4679607872048008 0.5550650869654737 -0.806390768203379 -0.27194455292794456 0.8732870158052961
P -0.3522729077113431 6.804337867153513 8.629490562987796 1.082393036140465 0.8270567811931627 -0.9935596221458245
Ni 5.351466954164278 5.421130081331362 6.154744209976067 -0.16807687030800086 -1.3606103094509987 -0.43457197008559995
P 4.564112039346475 3.229202175089734 7.280428327449184 -0.2696156476844518 0.9736011767460264 -0.6238265029124805
Ni 5.183730700851563 8.488034251206647 7.044578247531166 -0.5532803172628019 -1.268025655944042 -0.26443538903509295
P 1.5414524957647175 7.055937630613163 12.373015282796455 -2.3248770961699763 0.32673733239810826 -1.1270217305934331
P 3.388970333141323 2.2873049908852305 10.981278034167552 -2.5360546543221933 0.16668924593185486 0.12213717035309289
P 2.951149812646162 3.926036573175118 2.698569502585432 0.2196971655874539 -0.5141357858528565 -0.8907178096872337
Ni 9.309098917818622 8.725350534516863 11.827423273163443 -0.71105811963764 -0.4017950327648951 0.3898031505103416
Ni 7.476787862475706 6.816073034102401 2.3745579422492686 0.2324938031314899 -0.2659821646969226 -0.5605760795932668
Ni 7.439274106918401 4.793164770792603 5.1429780022842895 -0.7273494005984957 0.7431449728698557 -0.5849107996838895
Ni 5.575893943170285 1.0391208726166181 5.612962667219379 0.029123399728517588 0.0731532842552224 0.291384149709795
Ni 8.572396344371082 2.7905506828987434 5.2423834530489 1.6311132448364103 0.3616601124172223 -1.3276125143687392
Ni 6.023603026845824 2.1576457072792175 1.7157220332104244 -0.1415518274342788 -0.04116207606060653 -0.2098189872417935
Ni 9.172200947440045 4.532387386603453 8.837719143736424 -0.4770779617686106 -0.335030682755152 0.11979900913821948
Ni 4.95191729677151 6.081290928574113 8.289694233638397 3.021661736607738 -2.129158552885307 0.8512997129009274
Ni 7.5322690727006245 8.099056400388607 7.23549676455377 0.5327760266618631 0.5270563505692665 0.056940936161418064
Ni 5.912289751679968 1.2899265964558082 12.59962218755119 1.6332552308800774 -0.3165531927762548 0.25490662360905125
Ni 2.02735857839191 5.776979860542311 8.836745983550417 -0.25685449136404154 -0.2576106528037757 0.0661017767250797
Ni 5.702746389048161 3.530918764826778 4.1253340547973405 0.47356352085744896 -0.5268550331917378 -0.37600841071909435
Ni 3.347523311557089 6.615097912956486 11.21931726285314 -1.8580040999588259 -0.7532460658595996 0.6887589419198074
Ni 1.8211668015999505 2.1209998554931127 6.629404475653026 -0.5828174074899705 -0.7040827167610713 -0.33141391193817116
Ni 3.6997814464382843 2.9931600483797913 0.5499379916022024 -0.5702884217850243 -0.032879781447156274 0.9890846170936063
Ni 3.7354116661517076 1.6402642634177516 2.737299246724302 -0.244100791242799 1.4823672136465373 -0.8529189936719053
Ni 0.9717660001601722 0.25093775600863866 2.7942180379830064 -0.29220304606666453 1.1009571722958975 -1.0405537315071758
Ni 5.804669684051136 6.137252255778845 3.934969518905291 -0.0087818599576881 -1.2962638248541287 -0.7169616296062685
Ni 2.3434140463914432 4.291230167454734 6.874295527621675 2.0336163594119236 1.1603792230079564 0.44212947071788367
Ni 1.4660094988021928 1.809283906349581 4.173739079381325 0.1229396116497302 2.1870212295300466 1.2646785938486802
Ni 4.049075782271019 4.280556797672739 9.45855471712496 -0.621970166430032 0.7899876442550072 0.15793798210178606
Ni 8.807145848443067 0.5113365864252444 1.115301587784663 -2.488424711149056 1.285122977745961 -2.1601352037724793
Ni 1.469628842188475 6.124012106758619 4.7649662079455535 1.0912540860755207 -0.7199482230384181 -1.4636670661338727
Ni 5.740666397434539 3.840077167750922 13.279822378889827 0.742273883118812 0.28998032738373286 0.10152206520590258
Ni 0.6666248837344246 5.587435216723479 1.8741947987184022 -0.3387927209007455 -1.9406231576126383 0.1918256359881664
P 7.157426973730538 1.5622821862735239 4.298900959509129 -1.635999626394434 0.31857947917766427 -1.513136376508594
Ni 5.640691269407342 0.14330845536096384 3.233986725453947 -2.0061834600119517 1.2948435474678346 -0.08183898495467841
P 6.807384763371557 5.573336396950897 0.7213240572633789 0.3969582734978841 -0.8500802386715295 -0.7547378199137775
Ni 9.37566898367345 6.275285887475056 10.604306801052372 -0.05209646358492318 -0.616099566581868 0.8426096413260972
P 7.349418367542646 0.9298942597091809 7.9712769594189385 -0.20330329761046273 0.6549340229505624 -0.3698387915732727
P 2.1684852714003777 0.4570519754423209 0.8899503735925154 -0.178902243058279 0.9048475642203964 0.18134813349561027
P 3.2073291534517194 0.5295007043942047 4.431778873483657 0.4012178201051864 -0.4627494609610805 0.21777860840850236
Ni 5.7732866530052895 9.224524465220808 9.168393250469375 0.08656158724132834 -0.6639819920854436 -0.934092834238759
