# total energy = -340870.6402338828 ev
CRYSTAL
PRIMVEC
9.24907328991146 0.00000000000000 0.00000000000000
0.00000000000000 9.24907328991146 0.00000000000000
0.00000000000000 0.00000000000000 13.53695367043963
PRIMCOORD
 96 1
Ni 0.6829755994385626 1.8405470329738538 3.82777696479764 0.8314356269871487 -0.16612566011890098 1.092792634207234
Ni 1.494502214977272 8.223748532846919 10.013149116923588 3.8565835223712743 1.360185048988122 1.5282472640081033
Ni 3.784618940268436 6.829062313909073 2.691646732338943 -0.017683533322692124 0.6485954823270443 1.090878705013973
Ni 5.743831580097909 6.612014317332236 0.959457214339135 0.3212953354469305 0.02841583213853171 -0.03295511476978195
Ni 2.0904847332123104 8.7508162080047 3.5724831263728944 0.34896400500679253 0.4194831940732776 -0.8555965405040684
Ni 5.404825306670082 6.91059289258657 10.681942187792203 -1.2868517875116097 -1.4391497977187988 2.6404859227550914
Ni 2.6113647785192406 7.300367327825036 5.441936287258351 -0.9533213434510678 -3.7450686076187174 -0.057199589139443424
Ni 0.8575888489964144 8.847154552588341 5.681133963905167 -0.9253698525434644 0.4836101064601736 -0.8813204276327339
Ni 8.4545314028595 8.821247899057353 3.9165384687627225 -0.18524206923337774 1.0298070345136328 -0.3187967373947929
Ni 7.401607681109652 6.359403634990796 9.508910928702807 -1.1193577862902722 1.224639318538607 -0.8941715725637892
Ni 6.573001727330912 4.522251011815541 2.5276060981510566 -0.010062526442324604 -0.07107840400406468 -0.5159751530544404
Ni 6.187111902761141 8.633020014013027 5.249400184000981 0.07836876701789083 0.41643258017241186 0.044641035748142474
Ni 4.591619059470814 5.317282830529129 12.69441376479679 1.793086059129202 0.6627548045465619 -0.5668320878053077
Ni 2.9556337744958476 3.017278846178833 8.87695229113914 -0.9040086132588689 -0.7058143547401973 0.06903617676305529
Ni 8.887850473879435 3.1025275522106526 13.36646898371981 0.7785976572505107 -0.18022661829665737 0.39577993691906677
Ni 2.9197288730294786 7.9995879991171615 8.093419844912194 0.31698076723197666 -1.4635099717307183 -0.722915018976226
Ni 3.194602074131751 5.955172898620972 0.8339223209510396 -0.4608545579312127 -0.9715471224304753 -1.9132303674219826
Ni 7.641510137120646 2.7178308580605535 3.873571900045047 -0.6821612340976316 -1.0585241999426673 0.4840317673786245
Ni 1.4256983607762626 1.2610926082268112 13.381427509516193 2.3605933186246633 0.054001136806803775 -1.292451393086574
Ni 6.609110108403736 3.6105236387997435 12.875971218378588 -0.008282551723766381 -0.41999612915395407 1.5007842827011444
Ni 3.6078136604046778 2.2018805686736576 3.620106603356494 -1.2322685529490907 -0.9082547901297325 0.19075502863180696
Ni 0.4462696230635234 6.333940936964801 9.345547326660036 0.39913291255169975 -0.4168357291481015 -0.9503558330648408
Ni 6.652266283118336 4.532989185592577 7.5122645156366445 -0.2839883714663561 1.4750421407400338 0.9894255453727927
Ni 6.3281047718887375 4.554465533146649 10.800782602127914 0.7262091163464655 0.7538438473445985 0.02838755000375756
P 2.04666262524022 8.305760063321491 12.201085783111232 -1.7591796361897445 1.259285962078199 -0.037232144878581036
P 8.704441355878895 1.3470442438082042 5.8395705847498105 -0.03794999688121206 0.343576258332318 0.03805695477272155
P 6.329131418994035 7.289259191127171 7.500663403346776 0.551030859106993 -1.0457458172310765 -0.05439837224522244
P 7.732826235054045 2.580593112579362 1.7560410275055969 -1.1680729921077884 0.8237246314961361 -1.2897756460266239
P 1.2016025705576499 4.991585973178093 0.5901676260269226 -1.7229247676227681 0.5904440707972929 -0.7154403078657355
P 1.251640055599653 3.403436893866204 11.401011369786758 -0.04749778847064723 -0.5114731514190288 0.32666251329611484
P 2.508570580967148 1.9888096734957226 5.835198547932924 -1.9781594639951996 -1.7304341886259362 0.4587120576669132
P 6.136057019686861 1.4295644732989163 8.497484097967645 -0.45556271340465415 -0.4652845686781083 0.607995706527811
Ni 6.456518901708178 1.6244886872102318 6.337433386937419 1.1697791761656178 -0.09856555368073992 -0.6267223364030368
Ni 6.485052291977047 0.9645858253291149 0.22398110171315605 1.1158911678979102 1.697592459505567 0.2241153492598076
Ni 3.3170505518528377 9.28116730408483 5.862407470945228 1.0725133151329078 1.9922318829278656 0.5698006835153283
Ni 2.5171074753652567 3.6399356910055793 13.302845535317697 0.803525530840442 -0.5621169417178254 -2.2097973468842973
Ni 7.270317089580772 2.171349378632317 10.165967850815456 -1.0549071720153704 1.114876096369835 1.4041946217998524
Ni 4.813245347192898 6.221749681223674 6.140781446185836 -0.003103321515672075 0.6310574734432809 0.42592920680893737
Ni 1.7272273903242006 3.2563118893258816 1.9549793391078973 1.1054578883797286 -0.6661113797236206 0.3355109648256802
Ni 4.3757179479485435 4.490471196916405 3.3548903593951382 -0.6712754404230633 0.3484793520608902 -0.5127723298464266
Ni 3.8819746828843558 8.831588362694498 10.726018645272365 -1.6195869893643655 -0.9889462917435291 -0.800190810040254
Ni 4.313027731014219 2.028034992176524 7.336419289552435 -0.2941241743487773 -0.05431481139248066 -0.8605284305880471
Ni 5.643987836839421 3.9310965096973094 5.3649784502822895 0.5947378130766402 -0.35019607764168076 -0.46667656392962853
Ni 0.9455049876874047 3.3053689726276896 7.120938085945304 1.6136883644917435 -3.186167601735029 -1.0220986101257816
Ni 5.250569266830798 1.1374232528669916 11.277446528952073 1.8870233700093113 1.679583681632972 0.9784299655932375
Ni 5.451782850396191 1.7988799590155868 2.2716500260980284 1.0635489068507684 0.150279951335896 -1.628891554594743
Ni 5.049993869303833 8.93606589153636 7.509624830196534 0.2606746364410801 0.5259867716541716 0.34092030876670965
Ni 7.85444229620327 6.611625856265367 2.6903879335008254 -0.21386718916923814 -0.35547403821116846 0.11764828134380383
Ni 5.774732733060078 6.556612369938226 4.037491371376362 1.2889292388659286 -1.0453580948743544 -0.9340416692858494
Ni 1.5123066805421252 6.083300307176771 11.960087311947285 2.952270233387793 -0.6639503675165597 1.049063825860716
Ni 3.224393338331435 3.738910021400122 5.309802180269984 0.5876320552697945 3.2060661404311688 0.6976816983307339
Ni 9.31011690263963 1.1484111516155868 1.545433160473075 -0.7194674267472576 0.05324806069086313 1.3732107718238287
Ni 0.31196475863719736 6.855422172018077 4.264261993512562 1.6568147633675725 -0.6601333077633147 0.7975055498986071
Ni 2.432866918292694 5.189044433097082 7.160398331080831 -0.07632396867372017 1.3362480785565505 0.9147823068356051
Ni 5.232071120789392 3.4572202534815912 9.250233779367088 -0.26240113221388356 -1.2972429009379465 -0.8822200566288677
Ni 7.830255970254131 6.554919789575437 5.896128666271409 -1.2507167323519492 0.9690930044630278 0.44738274869702305
P 8.045407906861724 4.349080617648919 9.222401468833189 0.3562746797355929 -1.4713284393338726 0.2313514619969306
P 7.869120575087125 1.0434341728306078 12.05335773900996 0.11991470878047734 0.8666175742049205 -0.9912410013149767
P 2.444853716927525 1.1460618870683281 2.033927576598014 -0.2655003399644976 -0.3688149782944487 -0.8864443791228604
P 8.857476518079446 8.320086877430562 1.6837669211072193 -0.04236098146471414 -1.1054535175043543 1.1733990323063919
P 5.024679156446169 8.807540772840671 0.861202461825603 -0.44701893759970107 -0.5103670628390437 -0.405377865020147
P 2.5745812151159053 6.134651160587714 9.44749338421613 0.10672109290833878 0.05706769154726946 -0.026077928033974445
P 5.667637716553357 1.8465866776563726 4.320941237890732 -0.5549312226026637 -0.27214304209199586 1.3144592648162332
P 0.9201995239027612 7.130554347164929 7.063717770795423 0.21590633108645393 0.4131521096489272 -0.4227580081698074
Ni 8.870582454549783 4.971626473599416 11.542526811540025 -1.6544843154621827 -1.7370378099853825 -0.49376544972662056
Ni 4.0336224841318025 1.6846909035019877 0.018586937142404728 0.20324210535522416 -0.5799154033518271 0.624583178572847
Ni 9.02514371379875 7.330880019720334 11.352982783404851 -2.238397012898861 0.2443031370615922 1.9053705050579315
Ni 8.06037290700922 3.635403645225435 5.994406541467493 0.027882842453197137 -1.113778749540598 -0.04647911739814575
Ni 2.827358380771718 1.8579815356178788 11.273845864825113 -0.08036240040915192 0.17326947025253384 -0.44945917161007753
Ni 8.279557439453841 2.048142476923532 8.092187868385835 0.4568066131140842 0.2768913554102586 -1.370048057825131
Ni 3.8517394631796775 7.524814582818436 12.720174282974053 1.739757780019707 0.245536495248061 1.0889719749095632
Ni 6.225773027987679 8.660360273862224 9.747269714426647 1.5211985846914384 1.8685039710488853 -1.3363946314367434
Ni 4.651867521127673 6.137518373224132 8.64565979720312 0.2646960988956473 0.09295412103123346 -0.3753422378900052
Ni 1.8459392425449237 8.132959632075698 1.0041172883269016 0.09732448218478723 1.7549193182514937 -0.6008940624860232
Ni 0.763828221063642 4.478835863056361 5.0090787449821494 0.8650869964930069 -0.19694110283786082 0.48396928957180524
Ni 1.3837353164813329 6.267939551889065 2.208188436473777 -1.5664577136395539 0.3301067630909735 1.4058406420437077
Ni 1.037579509608503 4.117132364435729 9.32773268711486 -0.600619725778714 -0.5180065816621724 1.2078695552794358
Ni 9.108542605226429 4.248163981920029 2.783468754566576 -0.07283626723543585 0.48600431772396296 -1.6992454217279573
Ni 1.0145123214948695 0.15303886182975995 7.85403163736115 0.5341896191799381 1.2561551297587012 1.7195699922179224
Ni 9.033708355415921 8.753692669714138 13.109903397754717 0.6603546797455013 0.8511953261125792 0.4635701570901629
Ni 6.7852032096449 8.3513764914596 12.323852428944233 -1.0138001175624154 -0.8140536840652755 -0.564423478363815
Ni 8.138610815691347 8.76843569210914 7.391190450166433 -1.8186983603806681 -0.5239247469188203 -0.3554634966882072
Ni 4.684840466446478 4.076334703341408 0.9760666996697135 0.37750839230338856 -1.2174839384407483 1.1842657998175667
Ni 8.549334401321705 6.443930913327001 0.43602165015658456 0.39970806832887934 -0.9815731392079095 -1.4314192618437607
Ni 6.685035748830686 8.60358946366115 2.2970452058909725 -0.6435705183086271 0.5857080987742042 -0.15321486559450387
Ni 0.06757002786004776 1.1930841743055822 10.130541126424255 1.619208008758392 -0.43331650041194403 0.6775193644502461
Ni 9.151846765109362 5.216153466120763 7.365496525314921 -0.6672892020818056 1.2424429223789313 0.31297421717574486
Ni 3.683952029511105 4.7890590212437605 10.713956929146066 -1.0879900706122683 -0.4711957919562207 -1.0389182527862817
P 8.000864371194018 5.095101598425801 4.352401034863352 -1.422254307515041 0.12318746599447816 -0.15271992823595634
P 4.30739504554461 8.074921698870789 4.31725918192119 0.003250388616497628 0.37606960297433295 0.49844871413490277
P 2.815371582136887 0.6823725598776129 9.078489592260258 0.47621818487147666 1.5582512665693615 0.26702731813198527
P 4.724417249902067 3.2554239783158936 11.919504229347046 -0.7619541351565587 -1.412875180292986 -0.1417649718863494
P 7.060011667236028 6.139543920215665 12.138180062775525 -0.5323988458281025 0.48155836613746733 0.8803922593915094
P 2.312157266299499 5.238619464488049 3.810354485948542 1.0039031701636776 0.2207027240338328 -0.008762319573662327
P 8.790873943257363 8.362688107763919 9.616218673889005 -3.375595941135612 1.4505685810787017 -2.543651749943161
P 4.454335068624519 4.3633611863928845 7.283638529452491 -0.3328233906911881 -1.2778945783183218 -0.06598016354555089
