# total energy = -340887.8273990427 ev
CRYSTAL
PRIMVEC
9.07503765023791 0.00000000000000 0.00000000000000

0.00000000000000 9.07503765023791 0.00000000000000

0.00000000000000 0.00000000000000 13.28223491999204

PRIMCOORD
 96 1
Ni 6.350865692809645 2.413442764241045 11.362872008841988 1.4811924766121458 0.3004622007516632 0.8565907860965376
Ni 5.019448754490786 0.5097630204703564 5.772897411124643 0.40998888142959716 0.5382676459040536 0.12196927731666092
Ni 3.0281858213987385 1.6177525293941397 4.747468965631593 -0.026259705027477355 -0.6836357617606291 -0.38039599826382875
Ni 3.327380740965198 4.308047470262137 4.707702150212859 1.6573824629455844 0.6708962027067735 1.1903158626663888
Ni 3.98064733336993 3.2340167525973453 2.5050824954364743 -0.6802023105990479 -1.434727500281387 0.5765757974556329
Ni 5.58983302712845 4.927999599088098 2.7627046670720308 -0.37406671361169125 -0.8587906219613339 -1.4712590195485178
Ni 5.285964463120948 3.1032817587766526 0.5005990473508134 0.5306666936283441 0.43842913904816105 -1.0654682353606681
Ni 6.225167344939979 8.228182451917755 12.336606316802008 -0.7883922747434293 -0.05193062743102025 0.20357197789081713
Ni 2.149377315803275 6.707995653369531 0.3025826311583843 -1.047934854462595 1.8814422763771081 -0.5103063848044372
Ni 0.9444028784495497 0.08135408341003626 12.985191097231723 -0.871043728297074 0.305766386573396 0.5702771089311146
Ni 8.229534632542444 -0.09078577014319231 7.2270769226011735 -1.310642205062988 1.149366931057853 -0.8683255580349627
Ni 8.833823246212601 2.4580284247048145 1.1085893689190316 0.7749870570811169 0.8440096069974174 0.48404385156348245
Ni 7.252107691722112 0.9161159857840562 4.630186807770903 -1.211280380733198 -0.4370088616618667 0.3667478113527748
Ni 0.9419707683326578 7.301430521891171 2.3176838734110734 1.2968348668662506 -0.19961710700812718 0.029404164193730004
Ni 7.974698497496014 4.125657361570739 3.789607806199391 -0.7735719219011452 -0.3991516816047771 -0.23943629588759413
Ni 7.854073095728372 4.310107503831295 12.419978688607555 0.14062237364147395 -0.31167375319676643 -0.07465532272204561
Ni 8.521115595436992 7.3345181095262015 8.900651824200633 -0.8897868132325321 -0.41566844831287764 0.42995504013887886
Ni 7.307637847711896 0.7942690839353187 0.6085384538482937 -0.8399387793621533 -0.10909859200157984 -1.0323598828424736
Ni 2.0212468578167164 6.94396478493455 8.8755484547777 1.006909561090169 -0.05102842733172502 0.9769425824144337
Ni 0.25182322251356404 5.081921314359011 1.150521488344819 0.34024719395908504 -1.3916574085647901 0.15433406680061162
Ni 6.918409478631685 2.118966864304376 6.82983166517297 -0.30247100365157586 0.30716352403123875 0.4415304036813041
Ni 3.35457862910074 4.818273317657723 0.4278907524048181 1.3255306921390462 -2.1567354340623117 -1.0014775914413203
Ni 6.23303540266888 5.810873721595382 4.7085261636405225 0.18077889125570157 0.5726083281674526 1.4405574766996028
Ni 5.201838863182185 3.165590967965385 9.467085732905899 1.2068812232242376 -0.8123271882924719 -0.8422072636813559
P 0.5714814447015898 5.788140752032641 12.44486970214715 -0.051970222419704046 0.0652132034725393 -2.2229853063294813
P 4.037438919606907 6.679681535590789 12.522717190970742 0.5454885891325251 -0.876006471618988 -0.382965815873534
P 2.3742658262760354 -0.2616133732378292 1.2461714787217952 0.7817305464525376 -0.22174119260067615 0.13245757844249448
P 6.985201756468718 7.93653796375896 5.503069313715879 -2.304413686109302 1.6554963016664648 0.939123197573815
P 5.151091252086439 1.1730212294373945 12.70748586705631 -0.21470254058633992 0.3963054704052336 -0.021049878691763748
P 4.136148105209273 6.669463043084743 8.12249819230105 0.6531005692862494 0.3226649621009475 0.1347026657229293
P 4.885337846627244 1.3417080311269014 3.6935376415746086 1.2245285039923557 0.16408523265010452 -0.638623715826313
P 0.5060957977157443 5.4215818272509235 3.2877382535636337 0.8130103304024257 0.8412101898754094 1.6697116739348985
Ni 0.5110416932892746 0.031090171826343976 4.313684883712186 2.4677615263727497 0.9604551262823718 2.0518480519286015
Ni 2.005873743868899 6.567033092005043 4.788099724644089 1.1389169393691223 0.06886314152030076 -1.6653868213072993
Ni 5.796408111422524 5.624871747879643 9.129650419270186 0.3632068880790519 1.189460456644629 -0.5069865764025849
Ni 8.627828964334503 2.75597098906183 10.166713970661995 0.689573981621935 -0.28429407563223297 0.9008862655798032
Ni 2.6641588321491585 5.619172624172897 7.060118915602965 -1.0541417546042557 -1.4745001521936347 -2.116223332880878
Ni 0.877894649294079 9.146549047063711 8.877872571945371 -0.8546853415437088 0.8174120590145469 0.5130255835078131
Ni 1.7100819634585382 1.3781352326537832 11.048853922615336 -0.4339664752911171 -0.602747313644678 0.08707966452832745
Ni 4.223495343549143 7.1087856205427284 1.4950217188685913 0.591228257261485 -0.24056526728571473 -0.5009244293689051
Ni 5.828751545962087 8.375824241065947 7.810698045300399 0.7270043585542512 -0.9888768719581743 0.45538453595557704
Ni 5.519692060361816 3.1174025175150253 4.975087247459432 0.5144121794426947 0.16396670479436923 -0.5797696218025821
Ni 0.8101032098008153 7.627051951384457 6.519625094801149 0.36475032130677176 -0.24494796973444263 0.3505174655368415
Ni 5.066266874240957 5.10738587028438 6.8485997507429115 0.7529804709030387 -0.23036827214805486 -0.717020507868662
Ni 1.0526771538399902 7.579571353878566 11.128945668274405 0.17269405736503807 -0.6570297291373265 0.13590105690640464
Ni 4.775820291065108 0.7838545706138813 10.300254058651088 -0.771378256683936 -0.386286909826967 -0.26934953850725873
Ni 8.519590989095061 7.108350018730748 4.452656381794413 1.0997418118315576 -1.1493787581323947 0.172825954957212
Ni 7.393006727822353 6.362554341431125 6.866091886005259 0.5173864315796702 -0.0033848573118328805 0.8997063863390892
Ni 2.647306487048157 5.367476452187827 2.5608812725436456 -1.144211097888526 0.33368291047800597 -0.31277649934264196
Ni 2.514656660262299 5.442962616188974 11.225175553563579 0.8980274559747695 0.5650819378834204 1.1335559321675253
Ni 1.5418579886942607 3.4222239604862352 3.618067812641411 -2.1065999508585014 0.3496013814804753 0.5380511590178733
Ni 1.8803387466787256 1.4099160148528718 2.567323641842085 -0.5624468142534185 -1.2550518693921935 -0.5528807678315382
Ni 1.2813771801675813 3.5277666495140467 8.163819561686289 0.904582740594784 1.6901064355411668 -1.156445692281505
Ni 4.10604620499386 2.9983380222403144 7.03885428714811 -1.1894157194496227 -0.39629801420606586 -0.4930103167281509
Ni 4.341924586181382 7.279051478800666 5.824379192774331 0.08506443387051156 -0.21989514053087292 -0.2798684357607115
Ni 8.215795025389555 7.0946739368421055 13.576967956356512 0.691447287385248 0.8975762273699639 -1.069210733122236
P 0.580888628832822 5.823388198652076 7.78378783586152 -0.8857663792192294 -0.9783158086128766 -0.4983582113036256
P 8.903428785752011 1.9789027316770973 8.009320674014502 -1.35806594576259 -2.189733486254887 -0.11482443874176353
P 2.0565669047381476 3.4904500942877044 10.42631540803074 0.26198641327396816 -0.6525248992884375 -1.2390927749597758
P 4.138779866156656 6.158384142140695 3.803992648536277 0.7151991383892069 1.4921361201078431 0.7670719159990983
P 7.300976770003691 4.5577108337912975 10.153631396242176 -0.4510825661461134 -1.3681693527451793 1.0223253814246072
P 6.656204412932582 7.89576381915002 10.114555191196187 -1.1434675348542824 1.750241196049534 -1.9687685096986027
P 2.567110378454969 8.614887960503577 5.455014266320439 -0.2223124917231139 0.2876658203179433 0.568730333269285
P 7.185796390885807 4.414252637045669 1.3077955225604327 -0.42712759799241284 -1.1079731986024144 0.23880483295118224
Ni 2.9963596640109023 1.971279699967436 0.3419474224048107 1.2478142139931736 -2.3373019521968907 -0.7653793587880239
Ni 1.4739041060252793 1.038928471649351 6.768839243961704 0.05426981708715815 0.48895877236659663 -1.2550215303748902
Ni 6.949391657508809 1.082824429244151 9.247596869894148 0.47937344267100673 -0.0538206453648815 -0.5749336338665195
Ni 2.538415109090744 1.8056693360750424 8.819417531288893 2.144436819200617 -0.20564351570786518 0.8709524541348483
Ni 6.512219863997478 2.506470976212163 2.4553004683572857 0.7996598772374486 -0.457205905435032 0.7955124307279784
Ni 4.570143635508245 7.422146674036309 10.55102276177815 -0.5668025201189528 -0.7899115396014332 -0.961683342262518
Ni 7.738883641572739 6.439165810113224 11.070132163626816 0.45548120943444137 -0.8230201492299439 1.673753190994124
Ni 8.066574179672934 3.9795855539532274 8.169451530113689 -1.1872531645806648 1.542906151571859 -0.6125946387524029
Ni 3.40614299359395 8.931751978568501 12.253645951710293 -0.12216185294344122 -0.6388098636951902 0.2752795308384485
Ni 0.5746431878535494 5.235661528874933 9.922984774317296 -0.8784927283759515 -0.8175964071112113 0.3388086617403455
Ni 8.915425985656977 2.6449742023465106 5.463049304743932 0.5050183969326206 -0.3197914972078944 0.6095211420334019
Ni 3.9080742564864037 2.7879060469026613 11.509972925740302 -0.6028347311521618 0.48644988990181387 0.15391163455121235
Ni 1.2623559010444263 3.259499458598213 12.483733551309799 -0.9693390590355629 0.9107328193565799 0.2993555979510457
Ni 3.4487684459038057 8.816508074186372 7.874094444011534 0.07602134983163682 -0.13589411492786918 -0.514738709544178
Ni 5.818750854362032 7.997131990813018 3.355902677108406 -0.07545005070919909 -0.04496010965045805 2.220422173587995
Ni 3.2705982297659704 8.2924518692604 3.235884395366212 -0.5715122668897964 0.8719531274852208 1.4364043737631778
Ni 3.502556194645667 4.472369178794088 8.986348313173853 -0.8769153565865025 0.974302059467793 0.4221985361219116
Ni 5.183788613098237 4.917989832450293 11.33286811903427 -0.07515540228691574 -0.1924514424976234 0.0907969654789146
Ni 8.352537694200482 8.699086160744338 2.566287272531081 -2.339688964371829 1.538907314825111 -1.488436559769069
Ni 5.1283764325991985 0.3809365070884038 1.6508618971197688 -1.603354329555587 2.0032526595184015 -0.7209581523601712
Ni 5.812071626578328 5.763946701392216 0.20558862769069275 0.8860070344751257 0.4236321832446446 0.4347372920188707
Ni 8.292787645657135 8.994097487908233 10.942648755831803 0.5320933987725417 0.611019066735167 0.5237596820958657
Ni 0.3782430358843235 5.0979478310248 5.657834099993729 -0.43777299352140087 -0.9103625805013549 0.6820151954380707
Ni 7.554016047575701 6.383354327953202 2.483339612492215 -0.33448895131906914 -1.6299783599010185 -0.3451909111176055
P 8.657794738983672 1.7926285068288714 3.32700049688349 0.541873360977441 0.7589078921310672 -0.8157696383151177
P 1.9562786625673523 3.2798729183460584 1.4569546580203572 -0.677151439587866 1.8921771462961092 0.0024291782667829136
P 5.113429845425612 1.4316961054519044 8.025285480423593 -0.17102026920704097 -0.8387889820284263 0.2720368555314347
P 8.408739402983734 1.6857608622896187 12.165889429167917 0.8905226629572921 0.7335447307759302 0.7090292621330692
P 6.533509902558032 7.910692256248107 1.3487974506168865 0.1707356480870866 -0.677147582933124 -0.8349495536776782
P 2.0675204753019107 3.094188570951556 5.936082924930345 -0.9571720846557259 0.6961801740845429 1.2268818347158805
P 7.183146479862925 4.325398942439366 6.195551866747945 -0.7659123484733584 -1.0294388525409368 -1.7221971454281244
P 2.6286300593594865 8.658094215229408 9.952312573812668 1.394670227249185 1.7907044462709032 1.8119343021839571
