# total energy = -340862.25792368455 ev
CRYSTAL
PRIMVEC
9.36563789352483 0.00000000000000 0.00000000000000
0.00000000000000 9.36563789352483 0.00000000000000
0.00000000000000 0.00000000000000 13.70755775036055
PRIMCOORD
 96 1
Ni 3.796136612084743 1.5379688882945677 2.7560000879678666 0.8744841214371907 0.546468179436975 1.01410530750766
Ni 7.677584821253018 5.856689372820516 8.349190980240973 -0.3156209107699726 -2.5175679083719156 -0.6990842351052153
Ni 1.368207332828972 3.7023678438335264 6.701309773372115 0.7399719744585127 1.0543451288643133 0.018150702767097775
Ni 6.867138697416547 6.492353959191526 5.832826663608843 0.2104620201424311 -0.0021558700007382227 -0.3423323586228878
Ni 5.068121379490922 1.616827560755139 5.180510909331938 3.1164254000438842 1.1379057244957886 -1.6219701448845616
Ni 9.2865265147621 4.992831015131002 11.993400084852924 1.2768771927974008 1.016890840672597 -1.254647434864923
Ni 1.6781912213206573 1.4710420387217362 1.6400271827922033 -1.0982567426455987 -0.041926722140772955 -1.1098447045935143
Ni 5.663897713366733 7.711956712931201 12.745986233321918 2.4830963569576077 -0.23035001731560975 1.4449954578662987
Ni 3.932256795640793 5.555527915380834 3.1894193398278823 -0.21826326135440474 -0.9884732087618524 -0.9732304236701691
Ni 7.679926230767881 9.298027518299104 12.24056114636943 2.1423056317902267 1.160538631403956 -0.008620908899791604
Ni 4.1888190846413735 6.3089747659874895 5.322768395508346 -0.08310525326161171 0.4853494577487835 0.7080596991309482
Ni 1.247821421212798 6.961066681514775 13.185670160479901 -0.6205234066811764 -1.1035822686235703 -0.727279980813141
Ni 7.86205979411001 7.027909240345071 1.0310349970507027 0.1550210655653072 1.7422142119799995 -0.9073906423572243
Ni 8.997100201810907 6.897801796423187 10.123428692988906 -1.194411372892001 -0.2456426818086221 0.9776838314558324
Ni 6.5197578161534775 8.765431778772346 5.327606684129858 -0.5564777411541771 0.9633733283704312 1.03136923679443
Ni 3.2972009757436482 3.037135938108833 9.275219379932926 -0.6870401594564877 0.014822152614497054 -0.07608537030035284
Ni 9.230051717263615 5.400592164963348 1.6532823703377433 1.078230420122343 -0.5552243283630502 -0.23243235376593518
Ni 3.055970236246387 1.530860369007445 11.19745758811532 1.2456390607187258 0.768587067092044 2.543493627098742
Ni 0.623894789021698 8.193219390254113 5.724618891161373 -0.6312492777391129 0.5501448569576138 -0.18754963432063182
Ni 1.861888846218715 0.00814435885649796 3.6631389322577133 0.6946179718037456 0.7624881532831578 -0.006461439354627581
Ni 1.8675363259685633 3.673053396707447 11.117158480521207 0.43675946465522203 -0.11606268202423882 -0.5208841603202835
Ni 8.326042869213236 2.6055392394151857 10.10392287860249 0.024246274141874368 1.5613605016223044 1.1917973323079216
Ni 0.6047345666796746 4.547279515728774 9.464849199977838 -1.4860366920783248 2.14063647161792 -0.4652390601521536
Ni 6.6374370583704705 3.5226318838346162 8.158669551452801 -0.05648405112965756 -0.7131093457397139 2.0502722228010497
P 1.8448621162266343 5.902271933255862 11.149617908907647 -0.7173784054287128 -0.6218578092218838 0.5538711567692655
P 4.350385706804951 9.222493647349639 0.042299904295507174 -0.1192955871392397 -0.18185798325249325 0.08785665190366804
P 1.9517146808469026 6.519814009981834 5.981511787185452 0.5899709878156162 -1.4552446463981326 0.5735208126793929
P 6.397761014791079 1.8034472647277453 6.978352839681102 -0.1858596482127186 0.3742955417930457 -1.3256173383155816
P 2.1161565538947307 2.632961827653256 13.151510868785667 1.8927325045789467 0.43214382026008163 1.3973315761314322
P 4.7527803460292315 5.551978338556302 12.391180274205315 1.8103325049144758 -0.7101790594667963 -0.06246803662723435
P 5.963363990317656 1.8549770053308405 1.484212935524741 0.134064260807982 -0.7229463864347936 1.1052642843116838
P 8.03155911170994 7.315087800161995 12.188692369668583 0.4360855785166489 -2.529117303772412 0.07228168028354648
Ni 3.2326904607901548 0.8440163168967638 5.856238885629857 -1.2271579711954028 -3.0686864420967086 -2.560522814666887
Ni 3.2026923220857353 8.065706228074697 7.067342322830581 -0.5081302030887248 -0.3242269072714287 0.4936276385971757
Ni 5.739459681230377 1.1355742490702865 12.455701091360673 -1.7948848029008377 1.3402255751470595 0.3142811089126265
Ni 0.03659154789827223 3.095858488741586 13.649218669977166 0.4116976365905878 -0.3327308309773818 2.3039200343023354
Ni 6.714357043752736 9.335668017660035 0.7096568732958901 -0.8758406354650852 -0.8925916296711788 -0.43165402510785655
Ni 5.1936583920397945 3.421904446505229 10.641232343764568 1.4672337004392086 -3.574047309970412 0.8813790487848111
Ni 2.862672832337393 4.699236993243354 12.932669623633327 -0.1957591667146177 0.6473605814786787 1.3261886374380194
Ni 8.160186784818432 1.0953207366907693 4.22875416532687 -0.448518404963363 -1.5772224083552255 2.0895435095968464
Ni 3.9538164944536476 8.28831807910977 2.335123298597066 0.3820695293115098 -0.0412741761584386 -0.09313744068663314
Ni 0.5097829183415499 1.4843412447661553 5.555289091610318 3.9510630789080987 -2.256547715665959 0.40224394737685565
Ni 1.9117608688852876 3.817527729412527 1.7089208163575194 1.2119218709719386 0.9080735273568619 -0.6333519259044125
Ni 4.109510861553949 5.136874528485347 10.238394709860074 -3.5736611302755867 0.8241110683012776 -1.2087478441193311
Ni 5.536806004899993 6.6802473899402175 10.684123219821627 2.00001512641771 0.41361490821795865 -0.7901614508287101
Ni 2.4485430486246207 5.429419598910337 8.214062617755419 1.2879794733581496 0.4076298942791173 -0.9220068496085024
Ni 7.45419562225901 5.353773340304157 13.248711206821866 -1.1763452594189097 0.6281958356247698 0.06678157640092369
Ni 1.3785750941607833 8.75702143579496 11.531811803401501 -1.662246733016421 0.40864085204213496 0.07065648597529767
Ni 7.145803892237431 3.571005404411677 1.3271493121401479 1.0669252795221689 0.32252278009612845 0.2961615164937803
Ni 3.6324158931674924 8.417226721360043 11.711628307887723 0.31585025317195925 0.33795017039479214 -0.34849529290049014
Ni 1.1028413440525078 5.072317185341556 4.083070728748314 -0.4532667182816258 -0.6178201488174005 0.4362187616604035
Ni 2.836739380550775 0.4172260636552266 9.330501931706443 0.0993782793900224 -1.20855732537508 -1.6442824352285166
Ni 7.070663378086462 2.9251603694700457 3.778419634567681 -1.4856263440137834 2.0072247567922723 -0.4870692686533676
Ni 7.407386163237878 7.328658609710138 3.6687049309564443 0.3818093336715876 -0.9052257734954217 -0.9988046725948474
Ni 4.136811696497246 2.788019331365515 7.148162159900801 0.6470970434046469 1.4066713654751193 -0.9873239256487577
Ni 6.11304561778379 0.09021450860765479 3.086667988113848 -0.6256399019721354 0.4068066270468736 -0.37611202617649414
P 2.281047977569412 1.8002254852352944 7.215315657914671 -2.5631949621824117 0.6642853822584753 3.333968238292497
P 4.079643841782362 7.614872508806939 9.372515247477331 -0.515608513743641 0.6421702955269908 -1.0946674826324438
P 4.890033771790475 1.1740763871326867 10.249922873747451 0.09158449437721647 1.6062393644128659 -1.3868772135673277
P 8.637543991070553 3.936087341607108 7.680975182230539 1.7361435803058873 0.1497662449242711 -0.060383900404695996
P 8.598479914724585 7.405428744883452 7.388428238677938 1.2624183370595936 3.073843817927932 -0.47746902655944223
P 4.370184665662628 8.605494777631113 4.699115239948581 0.09202543856937699 -0.10195992407426954 -0.7100067955549901
P 0.019678142126710974 0.5389456421310661 13.702705828934688 0.3570598946410496 -0.11130588406554379 0.5272263004882275
P 7.999753404860049 5.094953932531247 4.316468985136457 0.18270824706793048 -0.40834208985479353 -0.7477655023610026
Ni 0.6616261350718053 7.826058281409483 1.7095239634485482 -0.03540306208964225 0.15428675850244394 1.2784962164580627
Ni 4.208402633823685 2.534528971648434 0.4765442688685609 -2.493000246334881 -0.7616538303073205 0.11818461346324806
Ni 7.0112945984276065 0.9370882816763569 9.25675502449872 -0.2683918025796797 0.4641967349305683 -0.7336899981045428
Ni 1.8200057128168534 7.4155810965398965 9.699180273916703 2.3072681248389615 -0.28643014813862927 -0.5247958366698638
Ni 9.299263782522953 3.349938883656413 2.7733265183778495 -1.8170716234105222 -0.8309733426387496 0.4959861115270232
Ni 2.967521150412939 3.536043477535749 4.828021072507438 0.9776177541045872 -0.1769556608548694 -0.2860429400025396
Ni 5.2542072420941395 6.77271433450117 7.411649401682539 -0.3014471903727518 0.21839027385057225 1.6974582479205478
Ni 3.8218171916437553 6.859365217827204 0.07659218805018436 -2.1521958943207453 0.9456836244001521 1.3221921146841162
Ni 6.003102392603902 8.894087548795016 10.725450970886563 0.1196930796879745 -0.8481681092504813 -0.503260019480617
Ni 2.224301576567203 8.92925551970825 0.43006073405189726 0.5989924745879361 0.3657674497173765 -1.0155376690788123
Ni 5.787542867027596 3.624923382719932 13.123273470036425 0.8143079661679266 0.6593249529294064 -2.0314787442436306
Ni 4.878223702197508 0.6740833702546801 7.752652283427124 -0.4522382770171115 -2.0058276193344295 1.475640436445665
Ni 9.071079376842505 5.781370911546418 6.140848450927074 1.6536060266222878 -1.3638547845302254 -0.11636247265284476
Ni 8.129917042610288 0.7491161795679661 7.03204604267593 1.0545754997075643 -1.438552530454432 -0.19777002649705938
Ni 0.8416889558389904 2.4652607125607395 8.683395345318203 0.12574417097806084 -2.2501433548015117 0.07136019691054162
Ni 7.1114226349211895 4.688962888292138 10.195558154503761 0.5833115735175696 0.28139695659009606 2.0178994628972995
Ni 5.801404011355581 4.339530932294047 6.211127262361383 0.055351737297427255 -0.2502184741047626 -2.847290291540277
Ni 2.283792109520831 7.034099927102368 3.8984159356405814 -0.02247272718121936 0.8520314488606294 -0.3856868143491229
Ni 0.8989279894031267 1.6680201383880944 11.781303035667197 -3.424158166315032 -0.7408690323514854 0.1186597533274537
Ni 7.098057869410353 8.000193589848843 8.674101822671812 -1.3886548742930407 1.5306728427304608 0.5178183769107663
Ni 0.9660374689181177 8.881612518899827 8.099453431694315 -1.4309819171960259 0.9343054644701974 -0.15461817369993372
Ni 8.829858002983304 3.2911976017475406 5.483557669712988 -2.4776864987959457 2.591850678245891 -0.37928065371246295
Ni 8.28371955082258 1.0522013390650602 2.0409598459154044 0.9991294029241179 0.3363067212540982 -1.7512860923742808
Ni 4.975064399732225 5.1299533219594124 1.1258948621358447 1.1214655766618944 -0.32718598989975267 -0.11995327532789662
P 1.6078927420464235 2.3696000854215145 3.6072532333931675 0.5317614693544197 -0.45267587877516235 0.8308337317370917
P 4.8378578021612775 4.743817430406338 8.000759274387633 -1.9437316213346332 0.38554180413082634 1.5310672499554019
P 2.0611802584857575 5.95987997295954 1.2789902646746485 0.3296545060449032 0.38811239307148 0.6637891593483471
P -0.031793531520415856 0.7028780244684599 9.996401607424774 0.27695460454802623 -1.115330410298434 -1.1922169363438435
P 5.99378358273475 7.107713842249646 1.8275188276681444 -1.8636864950555836 0.23655923145011518 0.8310882709500591
P 9.223242898394394 8.65325953173431 3.6230446357252064 -0.4207643747785463 -0.1480631461902353 -0.25432221186049103
P 4.940364710721962 3.574433227941436 3.7227671400908156 -0.23610388908025146 0.18543335930857743 0.29383209702965524
P 7.894717774023314 3.3678647149022 12.284645204715263 -2.0318659523797202 -0.28401973892492377 -1.6029861475828908
