# total energy = -340855.3539981756 ev
CRYSTAL
PRIMVEC
9.38189001934405 0.00000000000000 0.00000000000000
0.00000000000000 9.38189001934405 0.00000000000000
0.00000000000000 0.00000000000000 13.73134437928266
PRIMCOORD
 96 1
Ni 2.586821661573796 6.331809516478992 -0.06113333440558895 -0.4550916873055066 0.4404662240828479 1.2276819620196726
Ni 2.5323785530340817 2.086532369331806 11.162100053055614 -1.7035522766334275 0.2494368587437317 1.1327126103306233
Ni 3.9513894382024075 0.03165074460961233 11.378533691490086 -1.8181116346392623 -0.07356054699597007 -0.27748990822620595
Ni 4.402358133926514 6.705490201148443 8.326014704845896 -0.1176660219556167 0.04204910665125017 -0.8620134997740058
Ni 7.879577462064179 4.8233516906217755 6.310376588431606 1.107390329515751 -0.6436569073748464 0.3018678228499382
Ni 4.471071097384185 4.347633568682303 7.920953474003149 0.7377019474774134 -1.1786451111966798 -1.1863681908725503
Ni 2.8816100319729623 5.891386065283344 5.71703114236007 1.041732068085993 -0.9345700309854936 -0.07677519727852584
Ni 4.4164122053710235 7.434388010672394 4.271725633668694 -0.929006163744471 0.20329404163908213 0.09433917430421818
Ni 2.6921802879568726 5.199368465938544 9.302958431664315 -1.523215872231783 -0.7568672075519546 0.5611851739321754
Ni 4.8105641743474985 2.090313271062205 3.1935944688278317 -2.3648562076660755 -1.197832482758408 -0.7222182500195174
Ni 8.525811437477596 0.3314274660014666 4.0542477908605425 0.8159061638929818 0.7027074336800994 -1.2707777647678824
Ni 1.1636545990690763 2.5480556914745196 13.447709564044626 1.9716648574097912 0.09587103756771231 -4.144153697651618
Ni 0.5588538651245436 7.451097157029318 2.844653828483597 1.1484680733926673 0.8045961381968013 0.33287249876156866
Ni 4.707860622876836 -0.24844183305879297 2.55541672248611 -1.2800260228390277 0.11281563584185085 -1.0308825269659987
Ni 7.187175205223235 4.631182434681922 11.467952486508526 0.22452981108940687 1.263971026258694 0.5973269139600551
Ni 7.23263046299937 1.0992010137394472 8.490502693898549 1.5924160853765286 0.9174320857536264 2.2119843272332873
Ni 5.170021913549741 1.7388019928169047 7.674915281200754 -0.07644918139767479 0.012183172329753212 -1.0472812800389963
Ni 0.9627601852898409 6.5543291870536855 7.115678634958095 -0.12749483512058044 2.5520579717289857 -2.0604193385373804
Ni 9.090826389863562 8.999568744375745 6.307136083573841 -0.34787977080367827 0.4628528193081642 -0.5583384485119998
Ni 8.234128472718039 3.335083692367085 8.935878844904316 1.8389702232558265 -1.4178968018772937 0.7221380316008854
Ni 6.513058252284394 2.5170579264193385 1.3777343212649436 -1.4291741745633257 -0.3318304306502995 -0.6928693645437551
Ni 6.465445159773787 8.16801429283188 9.054489391124088 -0.7180504917950731 0.6990608380664477 -0.22663220214439037
Ni 8.932788450288946 8.324813822906712 8.499880831292362 0.5827317897546995 0.3765552843614999 1.495947009213501
Ni 2.7829594570470455 0.6734151875556306 5.089151896835864 0.39478260600280396 0.7983781823115477 -1.0742549804143626
P 8.27244411209012 9.49278409144473 1.4946298579653192 -0.7515421957946153 -0.3682459931648561 0.3260014826733482
P 2.3160509299583047 7.513683746219122 8.407825725141805 -0.28993456174746196 -0.29459185801381527 -0.8218096738616105
P 2.8577331215415356 7.753559913571082 2.5063278586549282 2.1254512792370495 -1.0848448401150672 -1.7536299100161088
P 6.74420926179697 3.7179773931637117 7.741072617781599 -3.390446118774568 -0.5625972237883538 -1.9516467624166518
P 4.73864260445857 5.28697655615806 9.991022502499959 -0.3901937010805409 -0.5608205915039052 -0.46587129441951375
P 3.7046926367114907 7.476250004521128 12.39365045295031 2.4656452513606957 0.14621323746569012 0.20583994798938743
P 8.476837970895259 3.062549165403418 12.202001891913772 -0.43378315563571745 0.920006274238706 2.1013201905168004
P 4.5633513688983385 1.4659015721373923 0.8781017613334448 -0.5133395152038063 -0.9081408902596877 0.5643658856530022
Ni 2.9867153473219923 7.370928905698651 10.426979235795251 3.1854515495046107 -2.012529713944953 -0.5310544159850661
Ni 6.778378105722808 8.35386953670087 3.1600213749265107 0.9916708897635437 -0.4853381448948738 -0.34664795527910625
Ni 2.0810345817039804 0.056314795624614056 3.0049678146085705 -0.4942076794703617 2.1401021963810045 2.2935741722916365
Ni 6.570193963297121 3.241705739705397 3.8056830550407863 -0.49631495562135175 -0.4394051298081852 -1.153212272945872
Ni 3.7397902877621663 4.286998412643673 11.677258702996138 0.41234915413165757 -0.40396992892902683 0.4979820589111295
Ni 5.493668978049918 6.69685886221056 11.359749271032008 -0.9669564177359992 -0.133974272197337 -0.7469885149856619
Ni 7.142329770306841 7.711388317347401 12.383173696219945 2.9920128033930533 -0.6942356487636625 0.5955315126225292
Ni 4.350429371946966 4.400791358271485 2.325884089024387 -0.1837066064254578 -1.3112865235152062 -0.1071908334559057
Ni 7.51240780915874 7.302150269009931 6.9878541344221325 -0.14699793815051457 -0.04071881787560084 -1.0694858411604937
Ni 0.3622169530953206 1.3228934205828746 8.431278574138458 -1.5223504389076945 0.29323020177959824 -0.3496936840839655
Ni 8.600050334233543 3.466542737147109 4.152249138988089 4.102816015245096 0.7238732691244372 1.1003115682920985
Ni 6.02933737804708 3.5194003062514945 9.869335634500041 -1.5291435505701276 -1.6253853412136976 -0.2502878938901173
Ni 7.518515419646308 5.4901320054634155 0.4851159613026 -2.2737036586199553 -0.3495939252813076 0.8166466416034323
Ni 2.534358131855705 3.2994794192483163 3.7742799923311305 1.0943733484307927 -0.352379972666877 1.4309703472318
Ni 5.343474298640596 3.0484669482884583 5.758884692507669 0.08933606466267194 0.49097785967915436 0.19669916203038385
Ni 9.043504135947602 5.749119083050666 12.703388865303298 2.42157422918341 -0.06066723597306971 -1.93128079716579
Ni 9.020771816114458 2.2652198491262916 0.9831217014821108 -2.8029271920438696 -0.4592797572449251 3.2770712679951366
Ni 6.58216525512836 5.799077648098741 8.873140269094083 0.6372702871222122 -1.2994843886739555 -0.3049549464156942
Ni 7.572114158072533 1.2528294649436214 13.30865212643222 -0.6797798783496486 0.04434458755364621 0.03215755856915107
Ni 5.5201259082725604 6.393120168608414 6.08041801715708 -0.13468029712542612 -1.110180233556062 -0.27873303660468773
Ni 9.103041610838696 7.525392345126165 0.5707594837247327 -1.7259720390895241 1.5477660507673214 -0.7597180467371885
Ni 3.8204933068313767 2.0917580821452852 9.406520426083691 3.026594140912349 -0.26860057615637617 0.76533976379934
Ni 2.6496709436877968 5.832617905384538 3.0206759132865035 -0.7981318706286964 -1.6919560871553958 0.02750463317817198
Ni 1.1872219071255579 4.0368115480170035 5.970951999266389 -0.34164870229230193 -0.29983459446999333 0.7251665340145639
P 0.7806314281883818 5.857742607205898 1.0307188447794626 -0.09648835943673706 -1.7926564277909514 1.4195605627329617
P 7.941291535470045 3.8277736535876783 2.1013904687621605 0.5954685205950776 1.9318495251850667 -0.1528885926033367
P 2.0355699420376947 2.481237869827123 8.746921009962763 -2.498872388844942 0.9274766144738219 -0.33764446622891525
P 0.8272791242025666 1.9086517320902097 3.189819196231523 -0.23270154826692183 -0.049768586782694926 0.8297950060599322
P 6.449073761462258 0.953350149469518 4.086392961081053 -0.5579995771153422 -0.047878568848833666 0.42755414400687003
P 3.2749082489457986 3.5636546820884467 5.992880291113687 -0.5605945915360281 0.43235927870499735 -0.07475276753185835
P 6.491686306522983 0.11737870404309395 6.918221745729774 -0.5764518702832588 -2.2504853115219627 -1.8447981427915132
P 5.747636744406987 4.0304881540559885 12.960824178259758 0.9650190915039704 -2.966489719421285 -0.651541966549878
Ni 4.0378717016039385 8.8992951024539 8.614990994297216 0.18958209136962834 2.096523026238473 1.099534580916758
Ni 1.7250762875276402 9.06068237681202 9.737967594054473 -1.2576381420621308 2.5414292883705456 0.14161867611647225
Ni 9.07913655473682 9.303823441936133 12.538667267185913 1.5859081090546816 -0.907209893804986 0.08939391448380088
Ni 0.9820962608887296 0.15999124910381815 1.1000660240112656 -1.0844519755520226 -1.2551608841662318 -2.110473060660662
Ni 0.8283167612531426 3.920785712533521 2.3354404823310477 -0.14212698321145845 1.5868123660365059 -1.2729937985825948
Ni 2.5667444166530675 4.2049913108436305 0.43525027696700874 0.4443791859840089 -0.8522602770419839 0.7503633449951658
Ni 4.875571291195969 5.643385181061595 -0.06357825497864592 -1.3773967848807183 1.4247053401586947 0.7306967198041738
Ni 2.3627727429046734 1.8270105240060128 1.5451053651606521 2.7073862841220664 2.2344881647627584 0.38500341512885305
Ni 0.7200244178202008 1.7701468878076312 5.381629507691117 0.6648710795586162 -0.10396281343691127 0.003997036974535051
Ni 0.03709130270752382 4.242640836015072 10.570018347587265 2.0366775148357505 1.5313649837014789 0.9616278064342342
Ni 0.7038115734522049 6.798014401806493 10.132235898468805 -0.21896362985553905 -1.6258849065579355 -1.0711015223870455
Ni 5.427188904447916 8.856645029832576 13.234283759592206 0.32999157766934784 -0.8640986644378086 1.5769208179544068
Ni 5.65337689407121 6.239032004786896 2.6556012364515316 -0.2919053123205876 -0.05436031991843541 0.7271257146234639
Ni 1.8306882249447631 9.51342424977445 7.0625930859230674 0.721681660789757 -0.9072605445372633 0.9163951598486799
Ni 7.72855717632167 0.0971785563614019 10.723438520830111 -1.3662124861291243 -0.46955851346311384 -0.46468730141374165
Ni 7.897065305303542 1.9694182345909386 5.911797305493408 -1.9818222575587674 -0.5109154791433458 1.0835554318796823
Ni 0.3525592353750411 4.933091659704842 8.184623052964202 -0.3444033822193036 -2.360278358487406 1.3466196515988613
Ni 3.2189640379821043 8.813591535934808 0.19993089366084346 -1.2396059671507682 1.35839736096008 1.6381338991286176
Ni 5.56018657921252 1.500042270392781 12.390849958740569 -0.990317975280075 3.4199904080905874 0.8258537620239971
Ni 4.254218088460016 8.927862957960263 6.287871310340091 1.8420470624089373 -1.0217527967505888 0.39374465165659284
Ni 0.4761787727458307 5.701609191331707 4.52960001908417 -0.270873688461269 0.3812894566123756 0.16883303174773504
Ni 1.4821603877671226 7.7484186377689515 12.029509274185248 -1.0981922079562505 0.9529919851361072 2.0442771815598793
Ni 9.265470275003452 1.8447704420597228 10.857662408637303 1.6907227289689268 -1.5641385785880737 -1.2996728505356778
Ni 8.017997869335408 6.193285908416115 2.7571855284273137 0.2600172053627393 -1.0509348176311835 0.11409527388522285
P 5.533542011186879 0.9641017955812728 10.43821123468268 2.1659510391233088 -0.015179278843599665 -3.2457531746081454
P 5.3210328174021 4.8091099813742675 4.305188021266247 -1.5176802871255344 1.1483991678279448 1.0020524901081838
P 1.9842322391375884 7.800028415483403 5.484353699320109 -0.1932320294173898 1.5680983345667705 -0.5676332435503644
P 6.026513429111968 7.163063747538061 0.9015001953672287 1.405270628472851 2.060471531931555 -1.4266544934652656
P 1.8182290748257315 5.314146510032093 11.811935736097567 -1.2337266255518557 0.06017589815894797 -0.9988820628000024
P 7.55380070849998 6.282807904226204 4.857517719980569 0.17699371318165646 1.5278371730538785 -0.08650579430272844
P 8.02086872772127 6.886860901525792 10.065212613427125 -0.9768600500029565 0.7802655318712368 1.2462427557409956
P 1.7568715132455606 0.5980270092563242 12.555282594641339 0.08204698720042643 0.01798898037825289 0.1011302290841226
