# total energy = -340866.0826692685 ev
CRYSTAL
PRIMVEC
9.34852311208612 0.00000000000000 0.00000000000000
0.00000000000000 9.34852311208612 0.00000000000000
0.00000000000000 0.00000000000000 13.68250853773485
PRIMCOORD
 96 1
Ni 6.4894454312583525 0.4196103192182835 9.100318663657646 -0.353749599320894 0.005099011789462186 -0.9022072983840721
Ni 1.8481655794822742 2.450790061437328 7.401361118469867 -0.5085053270399565 -0.4138298524422421 -0.6440073487357296
Ni 7.369403193001167 7.572686823048524 5.108241374238918 0.7446878918769433 -0.1017614349102183 0.5956940063423225
Ni 9.15963597618988 1.1968539903629696 7.389457644285489 -0.1867965582046912 1.2202170211011953 -2.1024219082214115
Ni 8.607138273922752 5.990318446118856 6.527966019789515 0.9084229402764806 1.348706616034877 0.732122910727739
Ni 5.147240607141588 8.655872123701407 5.576046133465622 0.32495658634860164 0.9566380665291266 0.6871221776473327
Ni 3.6981073783119385 2.896237828194121 3.610307921118158 -0.608033758854598 0.5576524781885687 -0.2724505460300856
Ni 8.398395106512892 7.964305795056515 11.55304480418363 -1.7691740283982949 -0.39799777050599194 -0.14717971514401748
Ni 1.7175480177889353 2.2949782305796926 12.046709447403757 0.7638351542293554 1.4081129830176522 -1.3265010264721155
Ni 5.900834385101919 6.827151471811615 9.86831758052531 0.38498953117178214 0.7889244930978155 0.2825596094396295
Ni 4.60522259902406 4.646458933452153 5.051117225174564 -0.5639118288347191 0.25315595946653174 0.5739756408286244
Ni 0.22364938714361537 3.7714371917905063 9.681004032115567 0.6640277577217144 -1.0388313494994303 -0.20440398687380926
Ni 6.393099554446762 3.0727566372331725 11.634674236275949 0.4498186118320253 0.691309476255803 -0.7781687972432082
Ni 3.0194887538572313 9.34574636970484 6.754616282777931 0.35209252333344526 0.04711392276866725 0.92601699920916
Ni 7.43660972399268 0.9179548329926412 11.172616014064195 0.6312906725000096 -0.15189846077592548 0.12156227168622936
Ni 0.9998151736001222 7.068502287030404 12.466544131171185 -0.23492966626649214 -0.1770281659640177 1.2172980476821875
Ni 4.747525814318649 1.7751349187358982 8.096679009346905 -1.1389326230984063 -0.09872161964262997 -0.08084628202410593
Ni 4.0365519521727995 8.660985765717315 2.6788575604945044 -1.3182017625778006 -1.9726740154005964 -0.8939581710014023
Ni 2.8157283491429443 5.303043089476342 0.24878195605689712 1.243486018931465 0.7777859599824927 -1.5821345009448624
Ni 5.7558200981718395 2.638293384861555 5.231137990884838 -0.5859541533467392 -1.771565411448607 0.07111054279358076
Ni 7.266504001649995 4.886902941951486 13.422061329099686 0.25302560453625456 -0.5649744657712785 -0.7280939920740042
Ni 8.47676377382432 7.783533408106608 3.031468885929234 -0.4903875343933232 0.41242397323365104 -1.3486747343556773
Ni 7.556925213471157 4.9227264816314795 8.693345677669898 -0.026958016646082605 3.0014598077385664 1.0694141073822938
Ni 3.269954378884997 0.5358563966866604 4.298551784731143 -0.20956110559471652 1.1041648805999178 1.967121461013483
P 3.853498525639929 1.3552366650128802 0.05549096211704275 -3.099420895066088 0.6655020282743958 0.3148706628675093
P 8.491422257701728 2.261426381959782 5.499095637075244 0.3140813341969946 0.20659225277437968 2.236625265710419
P 8.820518308681589 0.7130062310201792 12.873940605245442 0.6762865204844095 -1.1981744394788592 -0.5368450545249143
P 1.9677986267904377 4.636474711015245 11.619678270722536 -0.3360272423404665 -0.3146086674553743 0.5420646510526407
P 5.604448815682678 0.8001232460436467 3.844770744678226 -0.15006989220761896 0.0005772126597086833 0.9385395571562031
P 7.315125669154079 2.979196620240119 1.5204690023776994 0.11157173613242076 0.7481668515644792 -0.24452836569852082
P 8.686937265234972 6.646332342247303 9.684684545573816 -0.6233616474609199 0.3294416187031488 0.4070974188144151
P 4.818163253207489 8.226223360613506 8.205003148525924 -0.490459268171523 0.20631817317738663 -0.43327202032725387
Ni 4.219717560980242 6.381086702544676 6.56088590826267 0.7575984292910244 1.055980350474891 0.7418913029684125
Ni 6.100584273500257 8.893763985454227 2.0374077281623673 1.7398369699970744 0.5768020545338259 2.2314696896514086
Ni 8.594471025418997 2.804528818731506 12.633484443666363 -1.2675726275670234 0.22752103250724687 -0.45500966911466156
Ni 7.925967502721532 1.8391816489936326 3.561269309493582 -0.3221378859528839 -0.22918196514943753 -1.0447289459307878
Ni 0.2965921717749099 3.433590923394029 1.9215991615648211 -1.37531264865818 -1.2686049254862797 -1.3404970836408914
Ni 4.0509767229781835 3.8108786098254472 11.909077688992802 -0.17318308118631467 -0.19477571975542585 0.2309642538608409
Ni 9.077705521660793 3.712111465587677 7.331088271973387 0.7202310443861596 -0.20907285310438833 -0.7825417294999232
Ni 4.697146624512937 1.5431139293523468 1.9207503156872265 0.3072419426776579 0.327172620163314 0.8100669315033856
Ni 6.933687238563496 2.9774390979384915 7.794172027145186 -0.8885614254658633 -1.4463512005632446 -0.9935071716413341
Ni 1.2124847206200025 5.798009981933794 1.8974762331226875 -0.9540119417601892 -0.4424963671389992 -0.03760804016076104
Ni 3.3393110701391397 6.086739111113494 2.8305551064322114 -0.041907695977379436 0.7307617687141544 1.0195868994475217
Ni 4.711879896573395 0.10713126765940138 10.61144194771121 -1.636011453468976 -1.3517230342636979 -1.404337318025304
Ni 6.855627072507143 7.952395776906121 7.615862041122136 0.5762143003511561 -0.8905139212065438 -0.9682759078783711
Ni 5.402997496119999 1.147269425002143 12.500763464324798 1.4726942093331477 -0.18683383920052984 0.14677013841042463
Ni 8.937524421060191 4.981257583389423 11.546135310922281 -1.5878099540630848 1.7743542870476539 -2.396780310068182
Ni 5.314111740567446 4.103599558275334 9.207575201523651 0.36631869423515623 0.7837642890531148 1.1016757956294767
Ni 2.112990535655256 1.0557567345200292 2.2700242184534383 1.4652302968559345 0.7785372363262205 -0.43070811625481953
Ni 1.546283078609006 6.2220028886786904 10.05479630584178 -2.324709974464493 -0.5873788016084077 -0.928070796414395
Ni 5.409419931339246 3.1931282178489346 0.14909398231534834 -0.026135520744787245 0.7898215509907881 1.458944720957539
Ni 3.4698538436494304 3.957388660416487 7.790957070126411 0.40861565523115434 1.587358725458279 -2.475403873409356
Ni 2.333568933032463 1.1975925236705687 9.218055830525541 0.4153090080909299 -1.0189052999994648 0.8724496075056652
Ni 7.219004156891631 8.18496832913965 0.3038307330416685 -0.0073847224998453455 0.05088418844437688 -2.1350602630817233
Ni 7.390530854712229 4.277977555574638 5.569642395292138 -0.15222267688456365 -0.10948168637261145 -0.4684722223774706
Ni 8.193980305196934 5.3011172937628555 1.8471793103183287 1.2228228341551584 -0.9579300458676728 -0.24794047670386332
P 1.185944264160842 4.176452597086971 3.4879310823444207 1.55608099839092 1.8447570051409325 2.1480777583873136
P 4.523049082900065 4.855220797907775 1.7156904662924803 1.3058992910613638 -1.5480334454960953 -1.0162174687546564
P 3.3055161599243226 7.668163287232182 4.644020838684788 -0.02534413519174345 -0.45500658379086806 -0.06809078213065048
P 1.4007078803060664 5.08829817037688 8.04844811009925 0.492564487439984 -0.3997165529693116 -0.11324218185630819
P 8.653637826732849 6.688223073277067 0.13702503927597667 0.7175468126857771 -1.0958460763215772 -0.4433561440361332
P 2.64460363780623 7.3678980808173264 0.6282908515248409 -0.813774719372276 1.2811457382657678 0.40320014064253784
P 6.047606194333626 5.099787504997629 11.153761913117794 0.4552048158446031 0.24777206944679908 -0.09385272158610289
P 2.467944600923964 8.481269761852962 10.421815574740707 -0.014099415515859588 -0.07248968252929452 0.1120273356126006
Ni 5.392555196061921 6.947279990832471 4.083366550203985 0.1714712407015305 -1.4076550695446273 -1.1982232904389236
Ni 8.750310901845275 9.02029624264857 8.889881543901748 -0.541333429313571 -2.00350848428295 2.334674541876373
Ni 1.5971670886502918 8.095932997221002 8.383518802052356 1.1752628249880082 -0.22532299641466355 1.262385426939129
Ni 2.586259506505906 0.06319507982327525 12.464381817828809 0.5313956013745686 -0.7227736083023553 0.7342916362442837
Ni 1.3537035072603958 4.618366622194746 5.703854464033221 0.837438381537803 -0.5268362641386604 0.4510694535199909
Ni 3.6452601784656427 6.079634233723934 9.082531229171966 0.4042576353727747 0.6789864359140758 -0.5819743427633848
Ni 6.070958804490365 3.823153220368201 3.2932705298025002 0.23074622431276387 0.6997509221549368 -2.1141021727728173
Ni 2.824357035762108 3.196755444726763 0.9471268986428033 0.8101417506053791 -1.5125072275650273 0.7471250405635262
Ni 8.042702507936585 0.9100702887948053 1.2425813551830953 -0.27754698671638656 0.49028289049465884 0.03656391516696284
Ni 0.622534965987009 4.51720625609944 13.349407413825414 1.246237870644989 -0.19012382280571127 2.540272549058283
Ni 6.266417720886324 6.359809464467519 1.6434740618890396 -1.9619370885990666 0.6076894881413019 0.22417371330156877
Ni 1.9525885800630496 7.124079255557953 6.214129562708312 -1.3103393291105883 -0.30108595037859115 -0.399183563283977
Ni 5.089120840390407 5.754034530301568 12.910185763307368 -0.10937575692236647 1.0738775424702862 1.2941136112803455
Ni 1.6297747364592214 7.814505064411363 2.9640968860827273 0.3846925687566536 1.2603763669289003 0.5145155377897784
Ni 2.8292182676602287 3.593628286593877 9.933076668226578 -0.5563422440175774 -0.6326268748129298 -0.41078823740244097
Ni 3.0402237776072907 6.582416491309902 11.688542294820849 2.773403985773772 0.5666464541570627 0.36171924778993186
Ni 4.5676041429509135 8.371695725164756 0.33016458714515884 0.0262375935402903 0.009256742711577606 -1.220884222371549
Ni 0.6654577739428346 0.3140421245845854 10.968035743893244 -0.0784078477859424 0.3357925006218411 -0.0731892796994804
Ni 0.882717445697286 1.9815409554255083 0.3778803827820735 0.1314895581022703 -2.085149237183893 0.35029917887844836
Ni 1.3804870253144623 2.1763922178342017 4.564416296648493 -0.8445181712027197 0.43636582876122915 0.025093195523201946
Ni 0.7104839995468853 8.698622918836223 0.7552316391690823 -0.13193127362537924 -0.6020598006593503 -1.1485043259472414
Ni 0.48249409322962145 9.168292708377688 4.952109823898752 -0.15436646270044382 0.06821470930302445 -0.2548677999513159
Ni 0.2262295794587715 6.120375096439334 4.2560945332147915 -0.3550685752426337 -0.42401476339504396 -0.10647606677706824
Ni 6.546405981172289 1.0265239034711406 6.627232375149131 1.1669872152427772 -1.6361207253533305 -0.5910935314558337
P 5.779733619701438 4.8237723669360895 7.117449283130747 -0.3535050874102557 0.2905760519862028 -0.15552628733649987
P 4.83518691337379 2.2650910029291342 10.228975179603717 -0.945955647114616 -0.421145669377365 0.724390575080488
P 7.396027786166257 5.559071085618303 3.738608918841585 -0.6317020490058153 1.9625109588246654 1.7635960200898853
P 5.836320228700134 8.35885085472626 12.127518079187126 1.0669018824834013 -1.1660626465459791 -0.2230794517961255
P 0.09172864136066498 8.353578287821376 6.927836932944566 -1.0564169237916774 -0.5836211343381885 -1.086328109528813
P 3.0411492813725096 3.0710084634544255 5.726088990853393 1.112745423180077 -0.10068671378880079 -0.28108353911473527
P 0.25294672300038284 0.335286642831659 2.6357300198875846 -1.2371690755745017 -0.21216589020741522 1.8523888106545776
P 8.164579200736188 1.920018326345644 9.256613813148228 0.9791383045141718 0.15355116588800005 0.737707089683736
