# total energy = -340874.25910657196 ev
CRYSTAL
PRIMVEC
9.16601867993812 0.00000000000000 0.00000000000000

0.00000000000000 9.16601867993812 0.00000000000000

0.00000000000000 0.00000000000000 13.41539485345689

PRIMCOORD
 96 1
Ni 8.757360882010236 2.719997704680237 9.331534039766066 0.25634361316589405 -0.884683944788328 0.3872549301671911
Ni 6.157263867393359 5.548163595541784 0.6072863167591858 0.2865697590402871 -0.5401854317520567 -1.0864489513773932
Ni 2.4447788284595755 7.60387243003152 5.540343148422904 -0.8807241888096317 -0.843864596779121 -0.5440978794325856
Ni 7.734708180353698 1.376919322782513 2.213285527644331 0.31204682026546904 0.048300229767284555 0.46159477853134695
Ni -0.25865129749659393 2.4137243572467733 6.935424020574086 0.5008408685161633 -0.1787816583200147 -0.9046043378613389
Ni 9.215881799350617 5.326749248842713 11.062240600898749 -0.48129122851900985 -0.2320423174163681 0.08537913689745295
Ni 2.8861684569284343 1.299301476787823 1.1262369619070556 2.2165979147458987 -1.1497255999488523 -1.402836050889429
Ni 2.248781851498728 7.453751376453221 1.1272818880340505 -0.5203835665347812 -0.5470351076840386 -1.9156289495611463
Ni 6.944019912871419 3.999729731633546 10.268841025097478 -0.009511796145177167 0.9104816225777224 2.736663435819629
Ni 0.1926587129656576 5.462690471557314 13.476971386994153 -0.1695241442774887 0.702092682914236 -1.6021127438390022
Ni 6.366753223818564 6.232425220387745 7.3411459206396446 0.9190783631077978 -0.5862639712776742 1.3365728088858206
Ni 0.24697103992089328 6.533849743951204 7.2361968402109715 0.42696433294167113 0.3812573178228595 -1.0038442919012842
Ni 0.49318038369131906 5.748908570167399 4.446773877012433 0.8457898388262918 -0.2067820001876826 0.7448681262085495
Ni 2.004562450378922 2.056698764504784 8.858547311779859 -0.3312303351724553 -0.1682779305752134 -0.42976503561525986
Ni 1.6820469178837452 3.476881695352358 12.826673527682999 -0.8465866236959743 0.8077827634548991 -0.4136904986509004
Ni 6.257485115398311 3.1985097087133956 3.2742824351522595 0.39377730466674116 -0.17263003689632203 -0.044647720616361825
Ni 3.0805338825681834 8.780743395606414 2.8255233276824883 0.964254445423804 1.3177479628698336 0.6916663453745895
Ni 4.795028506500724 2.4342104089470724 8.751170153008722 0.4760397503120834 -1.114218408181178 0.8957592287658832
Ni 5.803336388957724 7.867120485885026 12.537343565738572 1.0153057555736644 -0.5474616536984959 -0.145211278563737
Ni 3.1854481321259565 3.624912896676666 7.401970703851283 -0.6397668282918207 0.3018495680174931 -0.4701156715181645
Ni 9.084459423834337 0.8293688662184138 10.698414738914497 -0.11387030235861034 -0.1742997112892611 -0.8170045391634833
Ni 6.253360407002278 6.309942240177198 2.8883884666473656 -0.506792715224224 -1.491876181578237 2.38659077112969
Ni 0.3782825066114138 0.15314217332792646 7.767553691612244 0.05106982209262172 0.29742649924913295 0.029014384954479062
Ni 1.5066184867911174 4.959301892886746 1.8508281522456986 0.7152747288221487 0.41758469149898403 0.2208315363022132
P 8.184823858584831 2.435466153503198 4.5607514858190905 -1.3283069693326026 0.008306462983166339 1.8832006538291117
P 7.744699140690757 1.6645214902099323 0.0663298940175453 0.5144301771648238 -0.2695585691942712 -1.3872870474112364
P 7.554155944831331 4.822095759597361 3.83008139190656 0.6104282272287036 0.6545786964936727 0.4408747723751762
P 1.3639677384189681 2.5482723451253815 1.2465427899950934 -2.857219891949163 1.377730514071053 0.6070641958524771
P 7.299248965956469 1.5262979288495255 8.2363277174233 0.7210890215110807 -1.8393363483459935 0.5249513884111217
P 7.143609969146144 5.71045712189771 11.891822118750023 -0.21894794612625515 -0.5144011236991012 1.2565253686139262
P 3.5517680677870076 1.4909445948861906 7.152981306621932 -0.058351700466015635 -0.7703310463663442 -0.04880956530353529
P 0.2753508668893343 7.9964530091473165 5.376004683304412 -0.4836607571924509 0.5841888339162004 -0.2698071948699676
Ni 3.784080810670264 1.1454956837090682 11.838938774103546 -0.24034878039953445 -0.5209103855725287 -1.2171841478121426
Ni 1.6928444878626945 1.1118838932907251 5.8353615415463915 -0.2800111319861629 -3.1851574153029594 4.533515646859483
Ni 4.473301251610122 7.185031207460978 1.4596618898088078 1.2200355012180084 0.4992899790892755 -0.2105689780339406
Ni 7.492725287786407 6.796272858125504 5.204515807030929 2.080199606488101 1.9082581110183718 0.19061541773014912
Ni 8.087865713222074 3.6009254258490673 0.8628138350971839 0.22034276959125276 0.4441151336893448 0.4340333239733106
Ni 3.59916555026676 7.362732811180751 11.86198581141685 -1.4879696474349793 1.3430753858910287 0.5230094341934025
Ni 5.0344357478251585 8.983724878784544 9.934153936426538 -0.7972587239951238 -0.37836122722198706 0.23350244690166236
Ni 0.47395465955647464 1.1347989399353549 3.795939805609793 -0.41931581525747785 -2.6688513612716616 -0.46694087333460876
Ni 6.222470924125317 6.6988839098858275 10.054342439475755 1.1512196679958755 0.3477519869765624 0.37462952809369676
Ni 4.396407521089403 4.746448607614109 3.0681010948606735 0.013057861625222673 0.9029606316103287 -0.17846412707959586
Ni 2.697889267677498 5.918654069692158 7.968664390382307 0.11595392436051644 0.84159534112897 -1.033782474221613
Ni 1.4803853413923453 0.20292465386245173 12.50675656147732 0.5935553627327648 -0.007954993181018558 0.4481481661081379
Ni 9.478579894084653 7.725093026781611 10.799151117168023 -0.035103528571352446 -0.772094051804038 -0.6434877287868337
Ni 2.686651728802971 3.2174833673351486 2.834834169435134 0.8327273492153786 -1.0050493679529788 -0.23075573739446065
Ni 0.7533028271824982 0.3155585243338675 1.5932391963115495 -0.6588909507157813 0.6338147244734439 -0.9447567417105084
Ni 6.3174767075139515 1.8776497560423047 6.453999055811462 -0.8636443505092095 1.8152314848779898 -0.8325723116947532
Ni 4.357937740782399 7.2191654609428175 4.121115316719479 -0.100075305457047 -1.3425295406898878 0.6479007702528649
Ni 7.601085960359533 9.023267083274519 6.27869986558191 0.6695890538595759 -0.455508463127951 0.47340205557892023
Ni 4.649939597165587 1.5188184576247181 2.66535723425705 0.3952770291407192 -0.030439290326463708 1.0061166328752285
Ni 9.313408237870163 3.2732769229054934 2.925347687079556 -1.0208562530782483 1.566087989004961 -0.9735433269248974
Ni 2.2757941084834177 9.183067452555509 10.176744536030844 0.9641721701226426 0.3165511358937258 0.6918548072363118
Ni 1.0815535375518932 7.797559570290588 3.1413357507331785 -0.6154354506353079 -1.3620460134562609 1.4040663237521043
Ni 4.851042046518857 4.894122334210762 8.854589424923399 -0.12882435256528138 -0.6035284147850767 0.22192734046955329
Ni 8.563508753415324 5.9019444176788936 2.2730773005532305 -0.637457977652986 0.0722675392161594 -0.24494539863128134
P 4.182637633950981 6.8494999284716505 9.503599458613126 -0.17174146364378168 0.927510810145867 0.31096952804089023
P 7.861694202839578 5.483341511593455 8.911430656426335 0.03879923225538479 1.2734198303764197 -0.2653105925511947
P 1.776942709048486 2.134353274574105 11.108268680191019 -0.6009264583858553 -1.054206289293604 -0.30718126464305157
P 2.449169351396687 6.012074131852984 3.5808105979044114 1.2671851623206178 0.10480356417065177 -0.8431827402207478
P 5.285584659050301 3.8946504937399316 6.649005186155395 -0.604620619407991 0.3344017909219015 0.2822348791103591
P 7.156497391379084 8.887930817791334 10.478831762743265 0.37514863382196034 -1.4392305303580633 -0.2524010835783782
P 1.39728621624026 7.839594931855497 8.879984796216844 -1.7966863748859507 -0.043870219020388956 -2.6772362429012473
P 2.6203080857574395 1.3448932535919784 4.099892317119088 2.7580452439295144 -0.8950748011043489 -3.267374352422347
Ni 4.049042912012789 2.7881287213640498 4.884531928889051 1.3115603460018832 0.09236868084140866 0.7608956119850573
Ni 7.911722332674134 7.704909453697021 8.626782696812342 -0.18848397320944313 0.8524513100068675 0.9503617466021117
Ni 5.259296517539581 9.236780321890521 7.580221352088664 2.1695438986808893 0.4103534638578675 -0.011907807181179493
Ni 3.9019099805169506 3.2579146756349338 12.637315498036033 0.31014934613244005 0.08975489736764541 0.8850765522410564
Ni 5.928947508644925 5.403102184262619 5.264710884760774 -2.644268015505343 -2.1373248907461835 -1.1229912692778015
Ni 3.1647604280151844 8.519466033764346 7.575646592176531 -1.7268618978936454 -0.6660208768923433 1.274438501448921
Ni 1.4705318713351545 2.9682684860468136 4.783795550635527 -0.883996174692684 4.747656915625713 2.3356081094342356
Ni 8.767498498645818 2.819430675080614 11.792856615301197 -0.8714885291439765 0.7354362913716883 0.7433648021901456
Ni 8.271928533890398 4.491917435504219 5.906033378602161 -0.10090654310909074 -0.6334619691197154 0.3439246428106722
Ni 2.1688725008395755 6.451795544926114 10.132593657359704 0.48334991082025147 -1.8728277952352197 1.8321675985116963
Ni 7.978056809701008 8.422104583580643 3.4992046171916904 0.26622102018060606 0.006217184554305422 0.31712397767806033
Ni 3.588019671578812 5.032950852802586 0.6794063847628962 0.15583996192217678 0.8991955081409417 -0.21994733392504703
Ni 4.254343397911356 0.2168899998895549 5.282634117644338 0.03069691486322455 0.5788818198809901 0.05762664937453302
Ni 5.9321739472124895 0.8653088253758512 0.7960815528605588 -1.3688123856458168 -0.9132584139919111 -0.2208968423225099
Ni 8.276447381088719 8.501793949792008 12.467342681248558 -1.1544286618514763 1.0215717910880342 2.1094559322500572
Ni 4.715329974270702 5.411415763185291 11.522482896543076 0.5620974013337997 -1.0121029323656505 -0.09317343613089114
Ni 3.4287234333240035 5.123978584093714 5.419376450389636 -0.7255138900516538 0.3171165214788925 0.05192985610007185
Ni 6.932159084728158 3.661494477140153 8.103797170251285 -0.18827314275021767 0.6253555379624972 -2.5301974242104683
Ni 6.245890101796128 3.450556889767007 12.632243939912643 1.2316085507675885 0.5352358010562652 0.3378244434502053
Ni 0.6491145263024273 4.673615423358818 8.87672535998211 1.5127509681447173 -0.2729639953313944 -1.304804001114656
Ni 7.002334123572672 7.646146108081533 1.4258154493128241 1.2691543702318464 2.6442549028792204 -2.5193833643141
Ni 6.55315337924464 0.9383253300042994 4.451496209824958 -0.6025405969505107 0.18904087415417767 -1.5721861314828989
Ni 6.229657082753073 1.1516919123217761 11.779212996528985 0.3861647824268059 0.4997291235092232 -0.11018745419038442
Ni 2.650326796861904 3.986439004579661 10.2894068211601 0.6136145953764852 0.2053288126809238 0.3654067239438481
P 0.08722841655744765 7.5308467593844135 0.9103341422269512 -0.8186230486035126 -0.026951845998495517 -0.5008179856980278
P 2.2167832803641674 5.5238369820238455 12.152818083819296 -0.014352669177246249 0.26691573225478543 0.5238144465932011
P 5.776654108644716 8.477723984796489 3.1361972806735863 0.002689116796388917 1.277353103992555 -0.5003299903180157
P 4.085477836177751 8.97652955413813 13.4339085147377 -0.4643697701733228 -1.5191949239978482 0.47407799860002225
P 5.263247071581115 3.4640126051567335 1.2468883488984943 -0.6056608877470473 0.09760010444367707 0.23805612771061585
P 4.842673471484239 7.337315441442528 6.418220418582402 -1.3904402483282376 0.8328322502243592 -1.1944206288633816
P 1.370493943703359 4.693065714950779 6.513482850493458 -0.20080752777180255 -0.29586018320327756 -0.08643791717927049
P 5.0125747933261815 3.1791510773080125 10.838539332544544 -0.37148712580997306 -0.7185785963844011 -1.0026111908251314
