# total energy = -340890.706964147 ev
CRYSTAL
PRIMVEC
9.08056755631024 0.00000000000000 0.00000000000000
0.00000000000000 9.08056755631024 0.00000000000000
0.00000000000000 0.00000000000000 13.29032849649769
PRIMCOORD
 96 1
Ni 6.104538731617026 1.9321631848700376 11.336862606668571 1.6061290640872468 0.24829117517506272 0.10703476749401566
Ni 4.173728551327051 0.588950180906365 6.46974554170583 1.0543155611779582 0.01989956713740444 -0.47451842857155047
Ni 2.5153626422827555 1.5758598713634555 4.70190521711273 0.6490598235579725 -0.050536575296971024 0.4136169651004877
Ni 3.3914739704274637 4.262972370205248 4.478575012123308 0.009444176132035347 0.17617301705257402 1.0894625413927366
Ni 5.087742168848804 4.577305300026947 2.4338709040085797 0.1460196333976453 0.021067619303576618 0.2945597192242992
Ni 7.26537125847214 6.038105298679207 2.5094530088552087 0.18778823269399916 0.18090898907566264 0.3477689562574269
Ni 5.020872868663716 4.472097843217547 11.50522450343686 0.8164142138776519 0.8810836290315793 0.5131263707517356
Ni 5.984393741021033 7.780838761772885 12.574258847733432 -2.0961373607642804 0.571545434120577 -0.7192352561317936
Ni 2.032803116150772 6.390948915910597 0.4936614281426151 -1.992682340201723 -0.5312230803524464 -1.0827843580416128
Ni 2.7664312572769827 1.6580208474735414 0.2834944140206978 0.6611697194476291 -0.04788216839325947 0.09206220534458338
Ni 0.3912644070213303 9.321747528246007 4.438982829106333 0.17422823462137738 -0.6480357531688324 0.5978861288976348
Ni 8.626030757064493 2.400330011274514 1.1167999462565923 -0.030625181085024676 -0.3414219309934765 0.5470536196267998
Ni 6.916586654980937 1.2088778102987985 4.950142511113242 -1.1382193990814655 -1.884283088260013 0.4114238141039108
Ni 0.6729526961361598 7.33136882416269 2.692514528537625 -0.19178218434474067 0.38867083667811125 -0.06600870279064117
Ni 7.593552053962261 4.041079619075047 3.832239275887003 0.3220633239612066 -0.7036309739356335 -0.22860860914447081
Ni 7.456035937449093 3.8700925301987295 12.622356798469497 1.2999780404809222 -0.6765623998536154 0.1273433971443807
Ni 7.9829358754229816 -0.4570349585205956 6.92795552568052 0.4243423219377918 1.3432360798386092 0.44544002314835546
Ni 7.043868971750949 0.47165558049615375 0.26692147000008354 -0.3886039879959179 1.677080455595144 0.020210156399287776
Ni 1.386802452860804 6.490099634096498 9.360883866766882 1.775474002474394 0.363493051860903 -0.004881239351701271
Ni 9.417547516968533 4.772192442961813 1.3625773144803346 -0.4329578315209447 -0.3876873897189194 2.1714218324298926
Ni 6.372306510522224 2.0499472278766606 7.1328930408919815 0.5493604133831055 -0.050721180503951364 0.03920675210644861
Ni 3.435877946242928 4.3646565667658965 0.4381837000762391 0.5755041616580089 -0.4885473958607909 -0.3829359910768631
Ni 6.04979198924659 5.720430719961783 4.797822345157958 -0.059719270237503605 -0.44004944826040343 0.4408405767031311
Ni 5.511123635596456 3.1590205191186556 9.191723788102031 0.3682069123968046 -0.14867558296325362 1.1924043697643012
P 0.21315906116306155 5.562437923394654 12.764297875599203 -0.03530330328698437 0.19206629124406274 -2.3696163480588806
P 4.191680833573917 6.264502011364516 12.55198421528449 -0.3538670987353647 -0.6921240017372983 0.4316519682253276
P 2.256984170329132 8.338885046791157 1.5935370124104828 0.04210464247953394 1.2409658236127723 -0.8817726846788039
P 6.148788337782417 8.171230526242914 5.922742135008455 -0.19845573971017436 -0.3017372108093449 -0.08262060031570932
P 4.825831356078776 0.9714391273493591 12.848345793667255 -0.7954239847792302 -1.7571659481938253 -1.0084594220757923
P 4.228847596971196 6.292615448813325 8.041711665660355 -0.43771900035501393 -0.2055221596386525 -0.41471534037098895
P 4.822762124212595 1.211865317056117 4.02787374953958 -0.32642648602590885 -1.28264983361512 0.6136130527145884
P 0.07679980896868516 5.56610647272583 3.631289945988046 0.5847848156289864 -0.16033476446873676 0.8007628804936403
Ni 1.6007406267283577 1.3038787090679984 2.407822387643704 -0.5363025517578829 -1.342877668057926 0.39510322256701635
Ni 1.9467193348152705 6.248011700509529 4.839580243559798 -0.6818110498470645 0.6357867605981502 -0.34556243552441135
Ni 6.033565014853496 5.63835146896056 9.334488472717721 0.3336348308488899 0.30716583802408387 -0.08846471780131215
Ni 8.565554176506009 2.211581332072011 10.210826815053714 0.0025942430897374674 -0.1600905096684146 -0.09491741540519137
Ni 2.268689022031818 5.270942621216286 7.225752741808976 1.7352760900992694 0.47243223546648305 -0.3948648813039651
Ni 0.3870537478013649 9.059428089931666 9.317544133480165 1.0554645871807369 0.8616394042640386 -0.6579080179772218
Ni 1.569276459816173 0.9830713345108334 11.53472908384987 0.05555022646147853 0.29905709287402044 -0.24805771900801799
Ni 3.9465236681207667 6.988214172615371 1.5316438632983758 2.914050270674646 -0.19594428614223028 0.5935463638717003
Ni 5.792230768381595 7.946858780143873 8.11694870893623 -1.9214877223347686 0.34064340095623913 -0.19848479317589685
Ni 5.457639092129567 3.2058217647940963 4.741018854214474 0.1436498476138881 -0.27703405163571 0.6066538477879359
Ni 0.8432505699277342 7.170352198567637 6.883592412419488 -0.6433609734009823 1.0301677602871615 -0.5865380508746674
Ni 5.174506992758162 4.368397760638283 7.208195464254947 0.031875508552358 1.2574419668909247 -0.8426857459796713
Ni 8.231307561824735 7.1841365002624995 9.077866182547885 -1.3557853772585295 -0.17440332674666092 0.3855284343943876
Ni 4.4231989864146275 0.28117160481546355 10.55311881267415 0.4410856028344017 -0.2455470367710223 0.3483042599356066
Ni 7.922186877834954 7.339922718890333 4.850651271640414 0.9700178302701424 -0.3700948734481368 -0.6036957936008764
Ni 7.037521654962604 6.2291332003622175 7.12216707438212 0.588704976618999 -1.1544631146338376 -1.100416726411395
Ni 2.5665225604308795 5.384749375591586 2.5672263044238646 -1.1644731905716719 -0.8445125147757648 0.1925897678477006
Ni 2.4674444867861904 5.139692096382602 11.464290212521007 -0.5038508589870806 0.032027203638873875 -0.07298667677037107
Ni 0.9853868792619466 3.413085721437853 3.757972945293065 0.1274981775546901 0.66604633081364 -0.24765045626727022
Ni 3.752599065356952 2.605487276223141 2.890433673011301 0.10122047480508374 0.1859331817631314 -1.694336157351798
Ni 0.9693051939512745 3.4655259996248278 7.846490357835916 0.11340364713483696 -1.0778858922987309 1.0406709738113302
Ni 3.497807417625641 2.739788871787704 7.598532745319067 -0.47312514776844966 0.46575713743915276 -0.5717552361385378
Ni 4.064489322480418 6.965984943004685 5.854216539283746 0.5130926893003227 0.7152194501041811 0.3794040666642047
Ni 0.9904538360114413 7.311527783844329 11.61412593516686 0.02164174663949176 -0.30998608108169834 0.0073065609637422545
P -0.011037429980306093 5.522056639048771 7.968694821175253 0.3073938948744899 -0.16722377827908622 0.9417176977738685
P 8.529023052844328 1.5353423785028009 7.779812657628274 -0.3386633944117329 0.06014607336227706 1.7625675788253712
P 1.9977793667192287 3.3656579165944644 10.018582117305415 0.46182412093333375 -0.067957856097212 0.7217359110664602
P 4.2313810753459435 6.148470517914617 3.7491348287979336 -0.9111053722046503 0.6930601403983225 -0.22272078290512612
P 7.056345671704007 4.076620960862721 10.565625478500458 -0.385197276307214 -0.4472333676033524 -1.1958180234315408
P 6.350313375670473 7.607536128145455 10.25540241359779 0.18164278191789363 0.9095236295398271 1.0007157735746313
P 2.2193633785492817 8.666166866083788 5.694507515430498 0.26442227640897037 -1.3596417748901424 -0.3448862353929931
P 6.961907768129195 3.8892162056726285 1.4839445494822097 0.20353418267434625 0.7254740379526537 0.6472500240427433
Ni 5.40894000781498 2.76022922957106 0.35222704668785776 -0.40238073006503605 1.3804294010594549 0.5360611251710381
Ni 1.4509748244534186 1.119379735526362 6.975734748492019 0.4379761106711425 -0.30655108725822044 0.49509728116416674
Ni 6.936518500975812 0.4894253433332257 9.423906638494827 -0.2552951172967216 0.7119256098442578 -0.5831153983463635
Ni 2.528838204677469 1.4143256534122708 9.289832965178313 0.10172081148026997 -0.5616513149353166 -0.23567451485231672
Ni 6.372388235631085 1.9711914646358586 2.588637374889158 0.5115402572115384 0.32139535135990455 -0.39420693600499207
Ni 4.140675285075867 6.956477588673644 10.359784446807678 -0.46578336269139786 -0.21768116359868964 -0.0871997350459595
Ni 8.168860498085891 7.286783236994198 0.48121378600604287 -0.4011139475374705 -1.0221670014698718 -0.11940537324422662
Ni 7.743926254269845 3.8295296344998175 8.369358523772572 -0.8149893085056673 -0.23847984551159573 -0.5722190631488339
Ni 3.1121375483343527 8.187993254127441 12.766915803253108 1.0550910058914023 1.6213705636273494 -1.0373879321846842
Ni 0.19940200117115392 4.4949717931314845 10.183661388867716 -0.20544528365413006 1.2374087023891334 0.9101741186396324
Ni 8.898720203636762 2.5006067198491917 5.826613429736947 -0.6376592950305148 0.09279985484155631 -0.5155025842933961
Ni 3.7905830798428592 2.5564158886348443 11.335480544272025 -1.6338085322803861 -0.16302362415480956 0.04256178462161057
Ni 0.9963925272554728 3.368018864183835 12.591376625813131 0.23479725445368596 -0.0326201000278664 -0.24262652069011764
Ni 2.8300406336752095 8.105904922558569 7.829784837527591 0.41544064857278773 -0.1744048694085577 1.1948332909207682
Ni 5.698737243842531 7.873151812517263 3.7759951479108462 -0.9846746609513686 1.0458617739836504 0.27980570084357614
Ni 3.018698507201198 8.328515038533231 3.5750185763089353 0.43436216806763905 -0.16684016968742235 1.1771610704519855
Ni 3.7065151845259745 4.6625173468679115 9.348749504214283 -1.0591446071354857 -0.23118948249776958 0.03467723966721124
Ni 7.379513993850542 6.177401206452054 11.549255267921852 1.1839528965628385 -1.1907442084530588 -0.4494758837806259
Ni 0.6372942150257822 -0.16406588021240182 0.26339185335397497 0.8309725713078011 1.1315504717017222 -0.17120384597275676
Ni 4.659675129193017 0.25910128513867703 1.77928274789066 -0.14567484846371687 0.4943575747846648 -0.20601889676941296
Ni 6.077633009665857 5.662451295507441 0.3761942969470267 -0.661487507798364 -0.14744659565215898 0.16354221566244093
Ni 8.194331490348135 8.714920433804284 11.387179848138643 -0.8592248812852751 0.014604894397368397 0.13908048307565082
Ni 0.023215379257631064 4.9438514938443365 5.857951376758777 0.002465945041989301 0.2303767567884871 -0.5703061623968372
Ni 8.32123242327679 9.193257495978356 2.236510214445466 -0.598254310870331 0.36581938600123454 1.05128371633017
P 8.340410582156597 1.9504696092553087 3.6147033811159544 1.517501595455825 -0.6256334742142322 -1.0988498961449074
P 1.9978156889898344 3.2557558063092777 1.7237423639074894 -0.39225238338178253 0.8054016648172323 -1.3972518719334326
P 4.878680259810065 1.2482874739059795 8.623974916548212 -0.4958794107458299 -0.9901840208053723 -0.7637685626574782
P 8.672278088113197 1.5302390994827004 12.28281530479068 -0.25516090571170247 0.4818108484679057 1.193881725640776
P 6.40199996674238 7.927880393752396 1.7815419931223344 0.8458397182276207 -0.13780315902512397 -1.7523281604855498
P 2.096067430978244 3.3762912613142824 5.909716968769251 -0.8374373530965383 -0.28578094459040454 0.7576015146148178
P 7.033181143625223 4.126618566351462 6.07612563543572 -0.5482165295866495 -0.5165693349950136 0.11285060284484437
P 2.38825285629812 8.47904360849089 10.263217150118606 -0.33865722376414575 -0.8946590537231688 -0.384147494886461
