# total energy = -381171.7905964958 ev
CRYSTAL
PRIMVEC
9.16514736900659 0.00000000000000 0.00000000000000

0.00000000000000 9.16514736900659 0.00000000000000

0.00000000000000 0.00000000000000 13.41411960183033

PRIMCOORD
 96 1
Ni 4.915671657805932 6.667946967279438 9.667046139099538 -2.1524298647084223 -0.4318525142719079 0.823674237874175
Ni 4.513770792192728 5.946869853804617 4.114955831609102 0.28726961332078915 1.425845624410725 0.6344901532739137
Ni 0.10351392092529707 5.381325286667531 4.977335684029556 -1.5208553424194067 -0.9218248155046834 0.38886649762868514
Ni 5.4104429590137295 5.539066633457087 12.138141186316398 0.9289187462369872 0.3526612513527217 -0.8310407055415752
Ni 2.167960556329606 1.1678230438629533 5.920951734312072 -0.050692641258861075 0.5253573656002888 -0.38405622072423534
Ni 0.5918476228079554 3.5817211575541856 9.220060998372018 0.5832241560100859 4.392797885290725 -0.29891465375888515
Ni 2.925084193360486 4.972339762343717 8.256283457492346 1.4272895559461032 -0.96066775651381 1.3332635420069296
Ni 0.5170957665212608 5.6928303064039465 10.564356200158906 1.7640786161532587 0.03428617487637966 -0.15668585486223982
Ni 0.006637399531985173 6.695946491679071 12.832912494576219 0.8180522637017072 0.6581193626570795 -0.6601621041187211
Ni 4.78483001776365 2.051792316799211 5.4377752607042655 -0.7604541535722645 -0.5577676636101943 -0.5776687734094955
Ni 0.7005920931849288 1.5832425014530664 9.171676353785914 0.780199711630308 -3.589048925585567 -0.029225215413704504
Ni 2.889486762012474 1.3936705987748266 3.5280069799276936 -1.567050095807914 -1.6080658760986435 -0.6897526732916444
Ni 6.710537405867031 1.9952800197621763 6.6695801964931904 1.6721030569852107 -0.2016030270899044 -0.26305599218906306
Ni 5.299911284951674 4.148411368079145 2.7381436044155145 0.29204080945718736 -0.03926177371410012 0.6074524324298313
Ni 4.617703560340631 7.741726436718613 13.245865611080916 0.7473834364312354 -0.07744162721793114 -0.519917168421324
Ni 8.437076982275341 0.0036688083853267947 0.17887892555318174 -0.00887519100244278 1.0586766663601315 -0.8667335309574945
Ni 4.334656322358999 4.760634029411757 6.012262261869737 2.1081922350462854 1.4850522166778681 0.29578819231476156
Ni 2.911703078590121 7.878681229878589 5.523598614691372 0.9788580542695915 0.10631948659454592 -0.03426560605108937
Ni 4.753466884377219 3.1169473828144727 12.024537354945421 -0.5549677322675538 0.9433506053916012 0.1913551241096511
Ni 4.391929326605582 8.83280053874113 3.989077118723089 -0.4820013672121569 -0.8637870467346608 -1.592447452835096
Ni 7.461786183604894 1.9566030989875596 1.7382819628766615 -0.24158985189548712 -0.13762986667205332 0.8519278334032295
Ni 1.077711317546358 4.0401068247631144 3.2856676593187006 -0.18177416528943532 -0.2923334009969417 -0.6029044080478326
Ni 4.883098725001906 4.361125267192434 9.963403920218841 0.6300290321787665 -0.8646817906347882 0.26096311421577634
Ni 8.383185917309762 8.579329230460845 11.142934522991155 1.9598624654582246 0.14056143849655148 0.5269151970057119
P 3.521368663880999 1.6102063642300621 8.698130616753929 -1.2881455666223687 -1.0858030902632785 0.05685351865393435
Ni 2.2884547452926123 8.797184777098913 7.820297409803124 0.6285318788079498 3.011862491129129 0.7095285703669909
P 6.804406842495852 3.719170868657723 11.280107446652181 -0.1850862603818038 0.6885499112327949 0.29767023982882285
Ni 8.308370821508058 7.587632818476046 5.0299592091507925 -1.4506763103011597 1.578253163612585 -2.795918107715888
P 6.4475801703351525 4.041683230064829 5.956902023823549 -0.1312062225338966 -0.421015571557404 0.5820419627765266
P 1.2334363319732569 3.323428981897729 5.339315918406267 -0.3308109882468496 -0.23280284973147647 1.2484019681758434
P 1.2401818802410571 8.919108729009984 4.395619214829246 -0.3495242483856368 -0.056940679051101936 -0.5738954224099923
Ni 1.9639627121112604 6.848298731972069 8.735475841654482 0.33502656899009403 -0.3576211664611583 1.6896762899822835
Ni 3.206866641041905 2.881073156971929 1.5283240234972415 -0.012799722867829568 0.3369268713366004 0.17069348199524154
Ni 3.205638511330105 3.2414009153259706 6.899606141969317 -2.5759113813078156 -2.842778519712853 0.3554637537985233
Ni 3.3518867636525123 0.08109872065551504 1.3084356472317322 0.5843502991947291 0.7731165795312815 0.8833518562404657
Ni 6.271279400662041 0.6892969658952042 12.690736317111668 -0.09943715765241584 0.2436817014275094 -0.8853462609626752
Ni 3.17739152795869 6.961359986634551 11.608941010016219 -1.0988321555330947 -1.0368526285065045 -0.7519970239438468
Ni 7.2754220824127005 3.1665674892300597 8.95747953387136 0.4919258254147205 0.887405200374233 0.5666389979578951
Ni 5.334848825708271 0.039938045015988105 8.292554527152427 -1.7300197267963366 0.4358333532965268 0.6578946482407831
Ni 1.444060577547064 5.145203601853207 1.1372261167743323 -1.535938462004774 -0.6156691639126688 -0.753917123784695
Ni 6.758865226541096 7.219789639497553 8.583654263378747 -0.8375828775354672 0.6435754034046336 0.06618662312940214
Ni 7.898982030711711 9.055092016577042 2.640542119886356 0.36939013407162835 -0.6906199063879461 1.7111342027457432
Ni 0.13686864077720765 3.5366469641016822 11.450010027132695 -1.2237749136557825 0.5401484078665343 0.0399063492766345
Ni 8.199443048189023 4.7180069302357515 0.11577413820496646 0.5433324620214708 0.995682582026098 -0.03648781051338878
Ni 5.359383924502973 1.8396008310707925 10.211659343282815 -0.12655432558418203 -1.6562496348927216 0.6644427337719461
Ni 3.87495087396724 7.051499208392455 7.520398215843223 1.4807577030675725 -0.22850910745212907 -0.42611329779528556
Ni 7.931389990867882 6.17848228624427 6.703840432878875 -1.5016219481110913 -0.9493693007818552 0.885347803624572
Ni 0.8720619138200536 7.586349697881627 6.369399632517228 -0.5452888144168931 -0.49417014136420695 1.460380167852485
Ni 6.0858409793272505 8.301891062506243 10.696861314400381 -1.2008041637922222 1.8358298778546316 -0.6418188257248431
Ni 0.7560274854373622 8.28927982009253 1.7302202994848717 0.8544243745728383 0.6708815474187543 -0.05493753257814409
Ni 6.401259516876642 0.3312614108316201 4.5902576108260185 1.5784012591546752 -0.7237179744934955 0.7675676246885942
Ni 5.824533470273909 7.177886586942684 6.012610537459652 -0.36287521577124604 -0.13447717997568454 -0.36216507707809886
Ni 4.968572886884388 1.7786067771003957 2.6387045078922067 1.1846414379894308 -0.32916831043710404 0.1207433753293598
Ni 6.927705566472373 2.4872101253680476 4.109965409011523 0.1797910734211355 1.1614228337811225 0.20138499754182737
Ni 2.2775023945045394 5.57910916115005 5.024982534273869 0.9558392247769151 0.14708432721673378 0.08804408532412578
Ni 7.856153298299439 2.518646579931303 13.008328827553889 1.258176016843472 -1.1610826768328841 -0.5954705774776067
P 8.029319587663329 5.366285280271525 8.817985994963857 0.28071278603887784 -1.7433753221676362 -0.18318338693213612
Ni 3.650643063768669 8.776114103909139 10.120389142372403 -0.42483057442812 0.5645240084974213 -1.101322011834484
P 0.10530295763980066 3.2831481603800894 1.4482957920233557 0.20452148628828004 -0.7161694727222763 -0.39448127271230127
Ni 6.03427786172583 5.85660231998727 1.0402542778511492 -1.2387009388379957 -0.10562965961637293 0.4893297825527702
P 0.07556572134944013 0.24741956164818024 7.634685767188085 0.10295185567389367 -0.148496377072912 -1.3990904678040679
P 6.408344175587254 7.510013187660826 3.0669102622057007 -0.5838736166686267 -0.7619394798685394 0.8474304597535082
P 2.375331174681852 7.014517839831892 0.8007937299472053 1.0079865962044319 -0.35219613879084505 0.01906601549251555
Ni 7.785132573398372 7.171800929266299 1.1935321980015499 -0.02664202806756057 0.10503342079327072 -0.21906647398199044
Ni 2.395723626986004 7.367916746976073 3.2148146566096183 -1.7751621276609302 0.09172050573444848 1.1178045828705394
Ni 7.179481322538604 8.881183350297812 7.088825186484091 1.6944024918133593 -0.22612106683592673 -2.692841296428356
Ni 7.674985835514641 4.36574450133234 2.645760754646798 1.0657268883386937 -0.4691386523168759 -1.3643589778601535
Ni 1.9909724006237712 3.3068950565239357 12.61612652060507 1.1676716429043117 0.9178956556536064 0.7933174799591886
Ni 8.74555750346777 1.0504358397678606 5.242278090423943 -0.12339598246085845 -0.17651008867701862 1.2083272116421448
Ni 3.8141584532331088 0.6829281051733366 12.169959827513848 -0.4314082276456377 0.4996550757381782 0.3329398616643943
Ni 5.194484597825982 2.702380283904938 8.161807288125306 -0.721579330883938 1.284031801564311 -1.732331919869281
Ni 9.108414842422237 6.455352215078487 2.9287713320400184 0.27981727080780194 -0.5895408422567331 0.5429912766319681
Ni 5.933626216240796 9.009779529299863 1.4650231020010223 -0.7457836960442834 -0.024749181920221894 0.0687348434725526
Ni 5.769863367804575 5.226535117245138 7.999992949963181 0.42350208542468354 -0.9712355047273273 -1.8258434560658814
Ni 7.7039843609485015 1.7566654149358383 10.823893002791952 0.727713983026766 1.406578548650997 2.7166599961145086
Ni 7.685241635122887 0.5471702802250114 9.19851740359173 -0.8734978462645215 -1.9017953861121633 -2.8334693264967843
Ni 7.5037258967481755 6.36529547964451 10.805730430777954 -0.7482460415418468 -1.3119696656251598 0.3138789883782014
Ni 2.7011521541931374 2.4338598040815445 10.60651679334737 1.1294128565334292 0.45732083374634136 -1.4821676960412216
Ni 0.9830536782666799 1.3032655877509356 11.551569022180923 -0.6729348304033571 -1.5240483954354074 0.9655559378440467
Ni 3.2134013909263373 3.418361575590497 4.297950824726236 0.3642664396918178 0.9374290977008437 0.3190013972064313
Ni 4.230567746710345 7.091495910349903 2.1022611158365345 2.3303712865153283 0.32232506226302554 -1.2809266802764263
Ni 6.809026076635758 5.436976059876884 4.397483405749994 0.41178376854649085 1.2313108170215117 0.5619696175066838
Ni 6.196730094126323 3.6138083375617533 0.6701931332737323 -1.8483218396740555 -0.37864841944510275 -0.37351161243916964
Ni 3.238477233400117 5.01572756872927 2.52988946588254 -1.0576202000711592 0.48519750555195157 0.282122779012527
Ni 1.8128935924126803 8.641863029144545 13.021005142512037 -0.5505575190150002 -0.21989179809676324 -1.9849433196862527
Ni 1.5705304424212196 1.5760203655359104 0.7172277516915655 -2.119772226574401 -0.2589738516998895 0.03584812004686084
Ni 0.38513964459125566 1.391397642293285 3.0518464264272267 0.9106454018490961 0.8338090123153318 -0.3471976571349891
Ni 8.777818821270294 3.2013400573388027 7.092165882603131 0.39634815071771096 -0.6964550250124845 -1.5073858471780621
P 2.9107407381443067 4.701234711037281 10.636564728124522 -1.2195359358737707 0.6535245441975455 0.613398365600621
Ni 8.956420042866256 7.303925689902998 8.883835743869419 0.5770784481236643 2.009475500499662 -0.09774151511754779
P 1.4893180739416274 8.267879201607048 10.334049801181429 -0.3747151458289676 0.14034186628657766 1.2904652158944807
Ni 0.7510517270751491 5.232547453744699 7.369999068397872 0.7784919849105818 0.005547926401422703 0.22557779273794698
P 4.719510014360641 1.9189985004239927 0.29139668699245597 0.1566406034466012 -1.145354210354034 2.2100644845027553
P 6.790457488605101 7.607851132985242 12.531309499769872 0.5607120909504989 -0.6631224722986256 1.9212905187222977
P 4.719271720535964 9.070883565035494 6.164873875825751 -0.013929979817530849 0.24362282316511594 0.14651919874188316
Ni 3.7485909908583204 4.878140380419188 0.20356158321624343 -0.33475917426132024 0.6855484054023098 0.0444173497731106
