# total energy = -381172.2158380433 ev
CRYSTAL
PRIMVEC
9.22346037632016 0.00000000000000 0.00000000000000

0.00000000000000 9.22346037632016 0.00000000000000

0.00000000000000 0.00000000000000 13.49946658240333

PRIMCOORD
 96 1
Ni 1.2821439948779962 9.055740912280031 7.00063404919382 -1.7910780275602378 1.9986704394643577 -1.6875831548986804
Ni 1.3493369032701594 7.531582542206157 4.345761533341703 -0.5177001061653471 -1.0268973170660058 1.0961188703669897
Ni 1.2494099342213336 5.357972660997433 2.431293993133146 -1.143102952426012 -0.42304648594450367 1.6806116086768539
Ni 2.6718612074056565 5.275348903498875 4.467014064984011 0.9826643153895593 0.6700863052109685 -0.10684681985292567
Ni 5.183575473368193 5.78239018737566 6.333693012610348 -1.00839514449676 0.3233046525674755 0.5003582724527899
Ni 2.909983282348755 6.316410092672772 8.667534691097085 -0.9139796084286518 -0.5691769338884004 -2.3502865373820168
Ni 5.125467673385952 7.438480933790166 2.459224475657943 0.0258526993970458 -0.12696621631062005 0.36612868971153717
Ni 0.6138775470473093 2.1421578815357964 11.181716232693788 -0.3224608165099414 0.5047111501048469 -0.18565241729791898
Ni 6.421068696863009 3.09957150911621 3.8570408086878896 1.6207923225263763 0.6187614296847472 -0.44479904713024687
Ni 7.125335232647773 3.5345406740943877 1.4913532887727887 1.963566396672373 -0.3763668224997776 -0.12328439658365865
Ni 2.1540653688019984 0.4245586453210414 10.280046432216972 0.48392455237679877 -0.4636652879071305 0.21229804490990534
Ni 2.537881222875174 7.511051119545765 2.2351607989264206 0.006336997961621344 0.41396354980662897 -0.6226826191160244
Ni 4.521220341253159 4.519578565317152 10.220176028968606 -2.994705005513236 -1.6525387617000378 0.21763385530052196
Ni 6.787046378687668 4.7676343070191205 12.884794975335204 0.8090487746515164 -0.47769451230668697 -1.3083881189214885
Ni 8.857196705547059 7.308531601417182 2.638093196847722 1.4588344206319197 -1.6926775387024526 1.1396887845381405
Ni 5.451553889349786 8.17229943642304 6.529246051163282 -0.9887123213558522 0.391949507429383 0.58008123950573
Ni 7.93051564773503 8.824434974509451 6.306559437056736 0.5528326882024222 1.2089501899381245 0.5382936140459826
Ni 3.7069455942956657 1.20294214115617 12.09724981636954 -0.02359578504206904 -0.29589155066184525 0.3061487096134792
Ni 1.382200092371227 4.35755926143016 8.81905308541586 0.6054053200928154 -1.7588451356684611 -0.6812739463966719
Ni 4.95069232388381 0.3243798758056259 3.7182932175207695 -0.3497605327661589 -0.8892381398179138 0.09473820951484975
Ni 0.4826064928112374 4.741439679725539 4.998447712008897 -1.1787489837643956 1.1122905950308457 0.8010986665665042
Ni 4.615622457573514 3.921575515817373 13.376716240718197 -0.06894695948335867 -1.2630042914700508 -0.7580267750776946
Ni 7.951867958363425 0.17348775444221728 13.17338690277399 -0.4211711232986617 1.0426885184619914 -0.9904395884596039
Ni 6.327256882002791 4.669874851144235 8.458388116732433 0.5858806197963264 -1.397563232526264 -0.19427281197707832
P 2.8614494341731116 9.114743387912792 0.5380348775720754 -0.0743205650904462 1.0136605066607576 0.8345057812720402
Ni 2.7827733176892195 0.5279619365624554 4.953427079867101 -0.6123820085209648 -0.38815815870775083 -0.04941685987023102
P 7.4285011497297235 2.1274095684926846 7.53303984893587 -0.7933485903074401 -0.03260338785731804 -0.11326043668875332
Ni 3.8670464184372126 7.349409977531673 10.294976447428283 0.3472809608774148 0.5736180003788895 1.2656101045240138
P 0.5298758045777435 1.078582225733859 4.941358182045393 0.23128255643220813 -0.3334988194916579 1.7220858166612407
P 8.411639008127672 9.098141159346438 1.7642450420639915 0.025063884947163287 1.101540555603193 -0.10439630142990408
P 6.154879632182456 5.575129810645351 10.430497672177342 2.8635288648863266 1.4411290329323567 1.2074034142762948
Ni 7.254103962100483 0.9531523889150496 10.324743320901726 0.5971081130810297 -0.12138306579588773 0.14452556535062208
Ni 4.959353153119258 5.1136339738022665 3.7789596053942924 -0.5147201976014167 -0.1363970227062167 0.23953862579341323
Ni 9.066615371990993 4.600846474149459 11.220418794520056 -0.5864730019646868 0.1744084689529835 -0.13751648102264058
Ni 5.379186619721109 0.015642066347600472 0.6314344037562293 0.6806787360148342 2.0442283305998146 0.34564291105335954
Ni 0.44444350341337685 2.425742392369763 7.072100186749758 -0.06436088277457302 0.1906637544695813 0.05085719186118338
Ni 4.196047247860474 7.544523057027599 0.24277069894167816 -1.740025946079429 -2.836628955171689 0.7945274411068898
Ni 0.8741534513201454 0.1780561343360592 3.073977329089112 2.172620223613368 0.5384645924062081 -0.7902846066701358
Ni 7.116333135380683 5.170183008991333 5.245420619469926 0.8666656538340364 0.19645130768563585 0.28094829908845165
Ni 5.923619811713451 1.9607047467658545 12.846619073092903 1.46819195058742 0.5108745986030814 0.20536583656644633
Ni 7.954754901441907 -0.1295121403540697 3.915898475993711 -0.5683480102292018 0.48747807405601207 1.737966492447239
Ni 4.233079441023759 1.0515574870119595 6.8713368154650825 0.8585000873041084 0.6599206775318763 -0.5518348430655271
Ni 2.1532444808339952 2.636055734464218 1.0185753152728332 1.2526949391242426 -0.38920459769439425 0.7415421471591099
Ni 5.126583712084022 2.5649520788986466 1.9734469571905318 -2.9083730177842106 0.6920970051541048 -0.7705755582769825
Ni 1.232217404194842 0.784176751258755 13.025918529879375 0.2586267527731159 0.004944488489468904 -0.46249106509337123
Ni 9.135025777144689 8.83323415564962 11.165340901251174 0.7998982185004998 0.25030769138445924 0.5048641307429433
Ni 4.335330722071874 2.5243873004348534 4.4925814969761975 -1.316386563745933 0.1348232504611936 -0.43573436582481734
Ni 0.7731408809922865 7.613809690911185 0.31546263437343053 -1.1776711773191846 0.3824989035394445 1.212168439765106
Ni 7.03151419432724 5.8301769352658175 3.09286236408334 1.3188957033210318 -0.33817668458330147 -1.6593624694900906
Ni 2.379975582288512 1.7701111628241033 8.196713935875898 0.7046727849365865 0.5568729197100667 1.678250050423213
Ni 3.1053453952731758 8.77572588058783 8.096777743366758 1.4122378038193033 -1.2527003384408812 2.163705180511925
Ni 5.690404617657741 3.4559014514517545 6.217232990947528 0.36090240831559134 -0.713019871349701 0.8462760344340908
Ni 8.36821495696634 2.9854773050240953 9.366510650045372 -0.6022531476170789 2.661093057482481 -0.6709967328403799
Ni 6.475588570782855 3.0126219487300854 10.711070723218578 -0.4523809732425629 2.3064553991296792 1.1239891144146965
Ni 3.85386609364759 4.053332646412026 7.998150359876265 -0.19676318249909983 -0.46558744463050783 -0.7071811531807369
Ni 1.337051254131057 2.8904664403229736 3.907663770624799 0.14101009599819586 -0.6428907186327831 -1.2077571980712878
P 1.1765261508150369 7.492161472821379 10.036529555335841 1.6708668705852643 -0.6245957769783372 -0.09379230066181266
Ni 0.0993560368553494 1.729703183185659 1.4044304764215758 -1.3744297318325942 1.4703375361755129 -0.22799694370240087
P 1.195323562936276 5.716036613872129 12.82695004397193 -0.5201367406312978 0.4659502272865652 -0.3422279718345397
Ni 0.20256655777618743 1.1693041813886724 8.987971537618202 0.5888417593071795 -1.4764511052724185 -0.13102290287849694
P 5.887260931153134 -0.04664765054129925 11.771197727208872 -0.6187855980544633 -0.14072496065760925 0.49746860960982064
P 8.615726514509745 7.034142880516913 5.545175700927523 -0.4202370415201666 -1.8017445061351487 -1.5741365703410504
P 2.4809540258132072 5.045629400902414 6.5606325642679755 -0.25723012953590535 0.23425655145886753 1.648320095633
Ni 3.692234175093813 5.8351022630738365 12.132807178228516 0.6809402172063369 -1.6264826880429342 1.9537460681478416
Ni 7.444337831089963 6.765325129646688 7.582393662733486 0.5338612893062418 0.10330795346173176 -2.090950160136386
Ni 8.390572624769032 4.6008833679907175 7.110749252506199 0.42637914986216247 -1.1130246449833927 0.3062510395192984
Ni 8.867545428020087 5.763555881413162 9.113543415725857 -0.47939529704787764 0.5947455263861241 1.4428385594242956
Ni 0.4467014064984011 3.7239905489571234 13.31621126340018 -0.5466327300392972 0.5874844739483367 1.886766259693183
Ni 4.771840204922597 0.15177111713139396 9.850560614395851 0.2840531632660205 0.6553194313144391 0.4663454058424549
Ni 6.608563198139041 -0.04753402507753629 8.23366219555032 -0.15687225984143305 0.969793115853846 -0.003272242993368558
Ni 5.596103959400846 6.841031291909265 8.686515650078587 -2.547730547998225 0.971938701441939 0.46281219587821587
Ni 2.3014009238680813 7.764853077023755 12.174818195269644 0.08190300542339443 0.6972916619811669 -1.4151158966980468
Ni 3.0807464266140268 7.5190109657973005 6.155243958864884 -0.0059302494415059154 -1.4459411096090196 0.4656231829644497
Ni 2.6730787041671884 4.873132246097989 0.7566152071465433 0.9805907206899822 1.6011799476120876 -0.2442632849625922
Ni 6.707263446966019 1.0939946279196249 2.378984060304688 0.8557490069215327 -0.15032237453805725 -0.5323872758638766
Ni 2.0534558636898894 5.590911151243703 10.789516253194604 -1.920893540394195 -0.22658309407400978 -1.3191312163706055
Ni 2.45321908064708 3.4682424413527446 12.40976278813435 1.4295053326504994 -0.37054070273630374 -3.013780019866816
Ni 3.034389315072639 1.3194713387713501 2.664119957163577 0.3093479332770672 -0.5736853632817152 -0.42111070237437154
Ni 8.001453281014937 6.8628355520930775 12.246783322028604 1.1058864912767148 -0.28410612799114293 0.5112353243766099
Ni 5.628598210089328 6.84296821857534 12.192583502181677 1.8175043400725666 1.0202350745544817 -0.764114118922355
Ni 8.148705824938189 2.5286577625605324 5.395048204424198 -0.19899335738119922 0.841181650630319 -1.0210187467980416
Ni 6.31235177013433 7.536387965030085 4.601131479073181 0.1866078392326528 -0.5791420155209123 -0.1750458454266663
Ni 5.470010033439383 2.1501546216285905 8.760950819509805 0.23806744056452547 0.6084981000855263 -1.0102867050925182
Ni 7.120474469061957 7.851913318933655 10.282813470311364 -1.6152803915692115 -1.547766564987954 0.702278573672797
Ni 6.20329357537401 1.1509956126641092 5.4853458809045375 0.15026041095187023 -0.1799427685076514 0.3283540420659248
Ni 5.614541656569815 5.2917943332398805 1.316984693870523 -0.7700011738307513 1.6105634457095166 0.3389845251965775
Ni 8.600286441943036 5.67152419439367 0.9431384780514435 -0.3186062186505416 -1.023370791969986 -0.42409292493114703
Ni 8.816512022099175 8.225426567835376 8.880380795393942 0.6983255025623198 0.020760886696435214 -1.4813575414351006
P 2.687015352702612 2.8256993019935615 10.144633121953596 -0.02785738853190041 0.12199421701732541 0.35257871894124443
Ni 2.580355257624098 2.6771185797850015 6.1273808076003835 0.24926408061129326 1.4544964553781985 -0.6215539048282199
P 8.58249438699609 3.877090766719857 3.201654923186599 -0.20008993287948765 0.4806127143947464 0.03725219948323907
Ni 7.206354108051584 7.627229825668989 1.002240567055603 -2.1852692798359463 -2.0482791036304207 -0.44219092008343847
P 3.6548791608195144 7.512683672021456 4.138464262770135 0.6828873136303788 0.32946938661729064 -0.7529053946907291
P 3.207089386003986 3.983870766782461 2.7542553007423796 0.3041118816891085 -1.12022527649689 -0.07865004570373552
P 8.250542050272145 2.3762954216229697 12.830392239361355 -1.939228077037325 -0.840513935139333 -0.6684757661907391
Ni 0.7684037117746866 6.855973297618983 7.153286006785263 0.7038114653775557 -1.8090600659599554 -0.07060300702954292
