# total energy = -381165.79205930745 ev
CRYSTAL
PRIMVEC
9.28653212256381 0.00000000000000 0.00000000000000

0.00000000000000 9.28653212256381 0.00000000000000

0.00000000000000 0.00000000000000 13.59177845842248

PRIMCOORD
 96 1
Ni 4.023594244069527 6.928356412834736 3.2642698204293246 0.7454782489887226 -3.834711919109164 -2.1809701382399598
Ni 8.073404367658174 4.696570636911046 11.091081477646544 0.24853902951981072 -1.5394063659487165 -0.2626397305872509
Ni 3.1320778963135707 1.9954249663166592 9.662191604327194 -1.3832864108922758 1.973775733105207 0.9231594751557068
Ni 0.9171239594364289 0.341679367746012 3.836782654002779 -1.1852253355173588 -0.1477543567005649 -1.0183008336462462
Ni 1.5217189747224953 2.1125374199530835 13.125511735198135 0.6136246226788142 -0.11820441095758996 -0.5086709060835434
Ni 9.164822600829854 2.866882405195074 0.9597862869287557 -0.8282423168608316 1.122254648222093 -1.0095940499008678
Ni 7.263303044962129 2.900963977223119 8.904884215413011 -0.6661586880217881 -0.08560667952722677 -0.5599106780951261
Ni 7.252762831269532 5.336412683977071 8.95806911218735 -1.2925686353907286 -1.0936506113321554 0.5700953319376117
Ni 8.510456417891387 6.667757755000675 12.631939994589695 -0.7651394748630759 1.6051124498972744 0.23424498149464174
Ni 0.40392234772366115 3.4192824680060374 8.919604297108286 -0.5326574988061278 0.34569767555069497 0.4463797613538054
Ni 5.048836651009093 0.9924145167163678 10.781827893292991 0.0030642407476205286 0.7719369574008834 -1.0538051972004432
Ni 3.6431250326283804 3.40197237256727 11.395387197810305 2.191517060517871 0.33119793927262314 1.2856698513883664
Ni 2.2372183970780246 6.957051796367886 10.126119806496746 -1.0180059281136467 -0.05850236711126699 -0.5050615914657303
Ni 7.395859001127882 8.554836753782947 0.37725792871436253 0.6885419408129948 -0.42773052168373427 -0.056628804237637956
Ni 8.783090421051972 8.087148434852047 10.620357391441537 0.3693772785558219 0.09536401602430673 -0.19897664521065084
Ni 2.9990297539577666 8.234386397932333 4.5205026355852365 -2.0166848737639076 2.415837326699633 3.3196299672929537
Ni 8.439377302822543 2.4950032357500964 12.140121551201661 1.2175834401330903 0.34773861724012367 0.2913777219518917
Ni 0.7420505456757973 5.663261460298345 8.480059741716401 -1.1134411636955213 0.20623461232464482 0.41059154801060255
Ni 4.249479845707175 8.016069319783202 11.03161702800971 -0.005067387220578369 0.747576526278648 0.41238463535528336
Ni 7.45140174834852 1.1799931743170446 10.398009029799935 0.1527934617863691 0.313906242071711 0.6793818715802816
Ni 3.3526144555838746 1.738429482855046 3.6261641107885927 2.440055832927366 -2.7999094882634683 -0.11988385554254193
Ni 5.558843695752476 3.0676200784806933 3.206830763397209 0.6498676641712485 -1.7779342910894282 -0.6269534785772364
Ni 8.529735258090358 1.9557529020921882 6.730389840664422 0.20786931971459038 1.0273955968586628 -0.23478799848230533
Ni 0.30064496929360796 0.47280241204148576 1.5147085718004323 0.46718229992145344 1.5623241510871544 -1.3783267528941552
P 7.540069554812764 1.394586353179188 0.3003635873774091 0.1491188411482593 0.48243099855040783 0.40291346264005445
Ni 7.941916362659512 7.344393041405969 8.622855027941588 1.9800906195796413 -0.9525361285456111 -1.2922680734311744
P 1.3021760743641808 4.526404226599902 1.450637073694085 -0.3699053831451501 0.13155872077730893 1.0085504391277018
Ni 5.881411380873496 7.680091882616269 2.0349066566374314 0.2331844014406113 0.3159929493974106 -1.301190572731785
P 0.45267942609391876 5.761429388883758 10.811213266145401 2.0354793807625917 1.5871136993270087 -1.1530595494180915
P 7.334382160030973 6.79523397822383 3.429844040721976 0.041402731316502885 -0.9844118942082853 0.6714734153664822
P 5.843940224706422 6.716084866944531 7.7774054502680094 2.9206839739410797 -1.3077975365253411 1.4172589111829785
Ni 8.162694371758898 8.687513434863241 2.83141249664981 -1.6888087997756658 0.04739520145451192 -0.7822735634402012
Ni 4.321914794431631 3.060005122332738 5.398831179407398 0.5197834710569371 0.8224542494241448 -0.284298189397291
Ni 3.1170801473148537 4.740365921293678 7.273762465827303 0.4266174911252137 -0.5994691571140386 0.6070402845930771
Ni 6.055023094514996 0.5746775241564887 7.121017589337579 -0.1477057628508166 0.8968977132457006 -0.8071176190670744
Ni 6.437748933204866 3.3887297780953376 12.037775611919951 -2.214330973088593 -0.3211940339823759 -1.1049616654696004
Ni 5.840857096119689 5.73173105990673 5.301446105460122 0.4436471929139908 -0.7024953176692934 -0.9721227924282869
Ni 8.095051273488522 5.417827709036981 5.008176499791766 -0.667929663879282 -0.4430645809376434 -1.5721293101030345
Ni 5.72322459669755 0.9462975993617978 1.7511371730902439 0.06637405654985988 -0.20317679933492747 -0.17489389322983429
Ni 3.4408086489218435 5.800079934600576 5.180397090956481 -1.21413199124938 -1.123394418253491 0.09894736250019087
Ni 7.650737155319089 4.131336587031211 2.5475612916220105 0.30230079662229875 0.8838349665244712 0.5109355337480039
Ni 1.4017927019240826 2.3915048378611146 2.6251428363186577 -0.3214927961697173 0.2902366663689131 -0.6567942160877527
Ni 1.3120662308246351 1.6921361213946085 7.847729570294379 -1.018626078196149 -0.6087387553414226 -0.2797218828805183
Ni 7.388420489085795 7.6238340724402756 6.118067502194559 -0.08043799084209373 0.028804840046834257 0.8019877540396768
Ni 1.8115330618754195 1.7241653698754607 5.167390374394497 0.20120887697527928 1.4750015173100854 3.0377085056579554
Ni 1.615076479790053 8.96343487031209 8.966034170587472 -1.478355521383983 -2.0219589776786533 -0.577471826907341
Ni 6.597988040928004 8.81807278667313 11.663893337546783 -0.07789799802905939 -1.6555549228185424 0.9103034451286451
Ni 2.713487471473208 0.7958464962483484 0.8708863171673181 -0.016390011322249192 -2.304916079667018 1.2359236332031747
Ni 4.198589650962302 7.022577565367855 9.016812926949694 0.5215225652352308 -0.6864902004902886 -0.8956862094361024
Ni 8.107170197602036 1.8407484911942833 2.7381998614797007 -0.9108243506291217 -0.1744326373226996 0.19878201270134155
Ni 6.4171421189459465 8.678886246739522 9.136121645377571 -3.3449301366206394 0.6790625405676499 1.4831547425448393
Ni 9.332871681870591 0.39948431413450514 12.44843812448774 -0.1801937081761929 -1.6324296496549886 0.3368618224266199
Ni 2.8753981549361414 4.079554885225114 0.03291239766337731 0.6743893034616967 -0.6491472410654562 -1.4090169828891606
Ni 3.530730137190934 5.873536401832684 12.076308218681794 0.5464134149396396 -0.11748784450653961 -0.1681969408256329
Ni 1.5239291693117798 7.402656742469717 12.24154348056054 0.07227576674627552 -0.020798681912906115 0.3396345000757505
Ni 8.641340798317346 6.126055776924401 1.6138200120256405 1.1175459298925141 1.6148844416823738 0.8440479164345206
P 5.111985067845799 3.6128695117380887 0.020327289649097538 -0.8689328526016583 0.9646138856457516 1.0691176591877976
Ni 1.407178890418978 5.654104939857022 3.3862688471450837 -0.2753332668945193 0.4296539639586923 -0.8199718493219234
P 2.37715714609454 0.10665489007762817 11.786083666819431 0.2625266020481543 0.7877255876937078 -0.23944889429308439
Ni 0.8085764741600772 5.022741496404514 12.830760927693682 0.544762509599778 -1.424023997820954 0.446260976387754
P 0.7224745364564188 8.065222933065066 0.45788917048294686 -0.5794490052383698 -1.6012722502155778 0.39550560021175757
P 4.7209384965845045 4.860440778602295 3.5677601830933394 -1.2348607391562991 0.8720328316832207 0.9472782225807816
P 2.8226506538137177 9.233635802118085 6.86696036456525 1.4099482364541782 -0.2501243717290596 -0.8894294298931135
Ni 2.872770066411908 6.099756318618291 1.0501256691327947 -0.17686104425853413 1.2333648713370629 0.5436253106715412
Ni 3.324197668007358 2.190850743362485 7.20493347743486 1.7355167453551659 0.07681710626005481 0.23567580040389735
Ni 5.405950234752547 4.303109567358936 7.1979342183510635 0.9151749142883335 -0.16277911224417127 1.1613217894268837
Ni 5.789344703738336 8.337058294483304 4.299351307903963 0.2521632565359593 0.8637109420810867 0.5804656194283422
Ni 4.402577610408634 1.7247597079162769 12.9295324808518 -0.2658106721160648 -0.7591850570518538 0.450929585508017
Ni 1.6657345112377333 7.897396728789635 2.548417509862061 0.12644402525856288 -0.1049927973633224 -1.5952193591532784
Ni 0.8754497189369588 5.7475924563710095 5.678658530168235 1.096633090999247 1.6587466902829626 0.5736709651040119
Ni 9.213985500643606 7.595760886543605 4.440475018389356 0.7598129204438399 -1.042635553736869 1.2541792369792528
Ni 1.2679459178259314 3.79163525057729 6.4008711864254195 -0.34326798306327977 -2.222515051561282 1.19066244737253
Ni 3.5839791110352963 8.226539278487184 13.30968037828963 0.8445785921270098 -0.5890577319727274 0.6320902855831695
Ni 2.503974025553664 3.7923688865964222 4.156148342928903 -0.08466796976304128 1.1531917041205817 0.09749828875849016
Ni 8.101588991937499 4.391275901101241 7.112523198619853 0.7849428827422482 -0.79526791881734 -0.7192064597763871
Ni 3.710944575004624 0.19246708798638865 8.724983662377127 3.6911710862693146 -1.9930497508434708 -0.493924343901988
Ni 6.840097213773554 3.087595408571245 5.353162801543006 0.12840269164683046 0.32155604530748494 -0.12462368422037247
Ni 7.815313073433806 0.8561123735870955 4.782647500978608 -0.6458534008055328 -0.66661017373691 0.714997306791046
Ni 1.4912498635987852 3.1877970876400754 11.14497307949754 -1.8764232258959619 0.9181489093149929 -0.7513228806949578
Ni 3.650897859818428 2.6086239533967266 1.5977134511195257 1.8163416872230331 1.4301951596286724 -0.10450917285868452
Ni 6.441732855384711 6.191683697775136 11.387218764361839 -1.529942135212023 1.3312555104379653 0.860232753724499
Ni 0.03122317751299545 3.1964057027000203 4.445448884868435 -0.9124081501764739 0.34222154407663646 0.14594121475122607
Ni 8.35074664248585 0.3305977492443591 8.373228407532906 0.9900523803235143 0.35343875294869453 -0.4014101386216506
Ni 7.738086274255272 4.760266959129129 0.12216711294292697 -1.5430956418748458 -1.4824453751826403 -0.6734192262389435
Ni 2.336482136426192 6.848055771601356 7.323793656372559 0.6829551907538367 2.184196872707374 -0.2209552063642711
Ni 0.4982410088416013 1.1951859404854048 10.125262659603505 0.1280581638232182 0.971272785723166 1.1129043173554445
Ni 5.019695513945332 4.7962615567260505 10.050726168712854 0.48825017633534623 -0.26122613806917594 -0.5657897625837224
Ni 4.65914591340341 7.358564289066676 6.3347882255121855 -1.8238341389453365 2.865287499448646 -0.2608199037696928
P 5.088025815575402 2.4373338727271645 8.652104817428437 0.12578942239369947 -0.05850313844221537 0.06414979520503145
Ni 5.524399948980808 5.315341543123764 1.5278378705833342 -0.187597971060064 -0.47437778922862817 -0.8660560452744955
P 0.23262762378815538 7.492958978546204 7.171918927920719 -1.434779436565245 -2.368073943272425 0.5259913996398619
Ni 2.7002541635331627 4.635539549344748 9.652160292582046 -0.46050643056317464 0.10788760241261419 -0.203765581958862
P 3.9239404703820746 8.868071474356778 2.6579948715247643 -0.15479892225217212 2.3334188150924007 -1.6082607657182688
P 5.6149250618226025 7.088660526281089 13.46549723952782 0.04325803935768679 -0.0164584026663394 -0.9605361160319522
P 5.443746419535693 1.2865561277289839 4.7878804616973545 1.1765350068322125 0.08163946734936262 0.17700811135935965
Ni 0.8822084568448638 9.121120181766099 6.230280381607005 -1.31398926715835 1.2631073927068184 -1.0135630618509446
