# total energy = -340866.66691169393 ev
CRYSTAL
PRIMVEC
9.26280691973319 0.00000000000000 0.00000000000000

0.00000000000000 9.26280691973319 0.00000000000000

0.00000000000000 0.00000000000000 13.55705422590247

PRIMCOORD
 96 1
Ni 6.124678981271549 3.090683679311556 10.506906373944826 0.5833408840936083 0.881162819008947 -0.8854768730032686
Ni 4.974034600329408 1.7116370093604538 12.067065925569441 -0.14968576939532285 0.01301826663653887 0.3338014383337412
Ni 7.738389597599204 2.186689316689257 8.823039259241233 -0.17590279411032286 2.176522129770935 1.7612609441988054
Ni 0.12060822793815365 2.1304548168687765 12.122256507068432 3.36522179699014 1.7274519660691603 -0.13456434037285211
Ni 7.624216241514993 5.106437160110985 11.470691227901536 -0.5785511760144488 0.325009293963408 -0.24367013146328353
Ni 1.6497244089980603 6.696036690450711 3.7805747477153515 -0.43191447785809484 0.8471512379501928 0.3660397295421567
Ni 7.914466291239051 8.808188201168068 12.09451903223522 -1.1435881195925466 1.7918123346231012 -0.29469701613311183
Ni 0.6678983863211458 5.936662529722197 6.144138285706216 -0.13105092790295497 1.6600790359411408 -0.07358471536568617
Ni 1.0919737629446233 6.871066686927041 8.930208080855957 -1.2576252865463244 -0.4017814059181403 1.7934416426964082
Ni 7.2063802915228905 0.9517904454873425 7.212772554465752 -0.9079143760711784 -2.3030070355697627 -1.5600950046463198
Ni 1.9449300603370017 9.288279475372567 8.743825588418503 -1.2585285150868841 -1.9635247448011603 -1.2522092577370758
Ni 3.5171340395874746 0.9380907542940481 2.8234192845544754 0.004001407849909238 -0.9889205807119162 -3.4615684886426896
Ni 3.697295631007067 5.670106739682011 3.2871107593960742 1.2709538853344304 0.06731688007910343 -0.025102194384266446
Ni 6.897039597073085 6.231988597548977 6.26583952484167 0.8940998387855892 -1.0615511596944494 1.2807441319519748
Ni 6.668174167726284 7.880777463064601 8.462190875258937 0.3625679689434723 -0.9218446129990252 -0.21141332831210685
Ni 1.7410278951997527 4.83225808010996 10.326516917479015 0.8761442827484329 0.48098115347775866 -0.4199004841163543
Ni -0.04361022049164954 8.255847034260599 4.943051438008617 0.1975327136752727 -0.20919009540854294 -0.8228733392394344
Ni 2.94271960417857 4.832378496597798 7.298304385777288 0.9638713510527724 -0.45755377569275396 0.24830505913213363
Ni 8.30347638660402 0.18722448157164598 2.2568698983627624 1.0893666392448205 -0.17569941985026516 -0.5645684885821116
Ni 8.598959922145665 9.148707503161233 9.410167823204507 0.6529208491752756 -0.9777126278112388 1.0815448292075567
Ni 3.0797720929520556 7.555189805563384 1.4910321510793587 -0.022971521194508824 1.1264956828866342 -0.005018279150197809
Ni 7.958066322643268 1.4968232578637046 0.20214408441480985 -0.996981760453496 -0.16321337156811247 1.1801533203110903
Ni 8.970500363967325 8.071535705413963 7.4552950660947666 -0.02883826438793098 -0.41075481306134426 -1.5404026684237149
Ni 4.0465312341583735 5.356255058341649 0.7939105357212116 0.8476713721197208 -0.10183034047494076 -0.5986895986355367
P 5.210180595787048 3.8958531566456474 3.3948214552060714 0.13638391008009415 0.6592892145954645 0.5010959219497628
P 0.49047210173683387 1.6430551881331705 9.572445713618762 1.9839997248260606 1.529555698406882 2.3304314503293027
P 1.7590811055687392 5.8728325283611476 0.7746911379815452 0.5571243735992405 -0.222302721531101 0.372438691089965
P 4.675892639248564 8.97859605707276 11.534165537483126 0.45274427011925256 -0.8678550461564474 -1.038214798961354
P 5.207179446397848 5.203289067559996 12.319674707475926 -0.6503615730885316 0.3652167194202291 0.09208920192777689
P 5.670866289836067 2.0882256808645647 0.520062137921404 1.3739121687662275 -0.436151655867894 1.7986360424131538
P 6.670795542038455 5.529469544693647 9.374364296247482 -2.137415136467145 -0.38739531239979735 1.087983642854365
P 8.869600609965595 3.444263538831797 1.7681243838053948 -1.445912570363929 -2.873163559762613 -0.08549277965718179
Ni 6.428063690976737 0.42223856204360577 9.991195902637763 -0.5375325675102419 -1.0924455352804605 1.8086461183509883
Ni 5.307227022177952 6.934183452167818 10.46512370522629 -1.0792115530886899 0.050144996285507185 1.212012888023848
Ni 4.0503011965083875 7.496352457044245 5.139424793813945 0.1496510595026455 -0.18359013545225156 0.6183366834425028
Ni 2.546391891475737 7.283215273570475 7.314640271773565 1.0802690478189265 0.9614550283017957 -1.5164042486265885
Ni 4.785277124239514 6.209442925902946 8.00576607231804 0.39457923174274623 1.106886907516771 0.15085562133370795
Ni 6.942140203171903 2.5463548402487097 2.7639038985807396 0.4709728773121373 -0.8970231830799712 0.1035558078064797
Ni 9.172466602492403 6.831069887351217 12.532750756425102 0.6655575641026795 -1.2597086514379143 0.5724036683558142
Ni 5.923036940982956 4.233565828191505 7.447025232222304 1.5741054599927986 -1.001503045362617 0.8409348247268356
Ni 5.198342728751869 0.12474221859370964 4.547863050536869 0.2689461324212529 0.8677018084080346 0.9223878870970049
Ni 9.186286710173537 1.9637242952465315 3.6602962756977395 0.34262366461106153 0.3844699112228862 0.29473326868768596
Ni 5.269434770610243 1.8520889482136815 8.73517597946901 -1.7301058587522398 0.6126710005162933 -1.452608751437182
Ni 6.979673096150421 8.226465411228055 5.467044711117603 1.711331149247898 1.4622264770326043 -1.7068456026727186
Ni 2.2613382763422387 0.7948812778693233 10.818962923335722 0.2833317117189636 1.1139900942204557 1.100780280398401
Ni 2.5937896736502384 3.9959655720730485 2.059939847871351 -1.7206562833035657 0.5127674447504201 1.238467482670951
Ni 0.3240768937191847 1.4732957287014545 7.532922944400733 -0.6842744237858924 1.304251985265928 -1.8595948414847137
Ni 1.1744683199206074 9.080088630706923 3.142158949020397 0.6072626850165282 -0.42129839290514537 -0.829548437266765
Ni 5.343296391688897 9.11950187345707 0.11765246630206153 -0.48590044515624703 0.2608083338054669 -1.4120956218144842
Ni 0.32295516782093725 4.107749124014007 4.769371958757428 0.31605594142486215 -0.38428813422938335 0.2757551849232864
Ni 4.238308385250982 8.677138011172984 9.241192923505093 -0.15686660341447822 0.35220333787969665 -0.55705932468926
Ni 8.482961793130366 5.201260512880259 0.5504784164686798 -0.1977898239914013 -1.0708986623476202 -1.7143025731713961
Ni 5.663909921961718 7.18406619004578 1.3927157938820993 -1.2821749508612306 -0.5141715241867983 0.6989410246591318
Ni 7.157982126218655 4.365264414659565 4.611676378845756 1.5564440381572937 0.9283944983024012 -0.6289548252779813
Ni 0.8027481796478663 4.098245484281539 7.4962375982404605 -0.5430298431793874 -1.154873719808695 0.9565830449214751
Ni 6.5863372700300316 3.5143922487874644 12.748931698199154 0.41103172087181467 -0.27494708719969424 1.38768196885681
P 7.40043609307767 0.7509903943329431 4.065340289558714 -0.773773753499306 -0.7756609432196899 1.2630652266149731
P 4.646084927105209 2.642178576147717 6.747942680673744 -0.9212509452790845 0.18902210510110026 -0.5225726037663
P 3.1637394362023694 6.686032859153377 9.508985298247309 0.1652589412432315 -0.7798567264685925 0.021018768343512188
P 7.6918069424193005 8.297798286062106 0.6038321833877982 -0.2101167209878704 -0.2864530309567647 0.179332131506846
P 5.626256612495361 8.671339494143233 6.844780693912619 -3.3908862916357796 0.6953376235785895 1.3442964027823237
P 0.6770046516437475 8.124732004618215 11.093588470622425 0.49168182772471447 0.0804971262148033 -2.8015349396820333
P 1.131201749559635 9.316438407913212 6.296180774654217 2.2024447631739683 -0.6464211003835448 0.5098430720147735
P 2.646976710047735 0.535815393372679 0.5600922836015536 -0.09898952859203597 -0.9502627591304023 -0.08517216309296945
Ni 2.5067100273296425 3.046407463014093 12.363436837998387 -0.17777044344668094 -0.06801647724928932 -0.3189515178051023
Ni 2.356439513314216 2.8219326040700103 5.95939623634539 0.3132017598055187 -0.49853536031143825 1.0510132362776028
Ni 6.59910141774089 6.909748167943403 12.887633892856025 -0.1679493435912011 -1.0588489302719377 -0.9523245267554373
Ni 8.278364917486357 5.551616915649135 8.18105820622559 1.1310118255894328 0.12743775663039986 -0.9667898102511479
Ni 1.14322487272995 1.6260023608939174 1.6263858410936485 -0.1386138278518774 1.0550172152306734 -0.6618562039916923
Ni 3.6630325088136955 2.516500814071571 0.9394987009210803 0.013037549910248514 -1.3427753381521066 -1.2761220597989311
Ni 0.46236967231740445 5.115699966867776 2.5421643464719375 0.5123144163734016 1.6741769087951037 0.8757940984978658
Ni 2.6981815057992775 5.491149313140801 12.381860560637646 -0.19197784529531453 -0.12153347533082294 0.015355399410147748
Ni 6.554454689173155 2.2711198002774102 5.358140965797332 0.1885168833299076 0.4295819730701763 0.7924574459517384
Ni 4.312484941759367 2.1878749559541264 4.4782067437257975 -0.5314028004634203 2.478200205207571 1.0225616658051293
Ni 5.929946994823523 0.31753735214889 2.315598872042847 -0.030310220947767152 0.6980305970297205 -0.34985412092122975
Ni 6.21171231355836 6.559326925527228 3.8268711821664705 -3.5185222803199143 -0.10639353436559096 -0.05007351961762344
Ni 3.5468491236632613 0.7715658669818037 7.0449777363471515 0.8355239381239093 -1.476604343020831 -0.7687025096239858
Ni 2.622050497065209 0.354673796998218 4.70094945780636 -0.2839366922928142 -0.37200288910412704 3.0764259768328115
Ni 6.424710554930778 4.414199822755694 1.6302493577919062 -0.8341383706302924 1.3610394265686172 -0.8703292187285527
Ni 7.677773790182761 6.597832413215209 2.0877319732644275 1.8217204350364433 0.6745224866054512 -0.20064143450758348
Ni 9.089397751497499 3.7198968794936382 10.193128795058517 -0.7936725493057621 -0.6655030567156602 -0.4061674508009779
Ni 7.586433252754041 7.217125147360768 10.59369887325596 1.5413043543023777 -0.12957151514395104 -1.3804373714792548
Ni 4.223423054792818 4.761128987024558 10.182066224948882 -0.01221402556768864 -0.07044385574385932 0.09978399946887331
Ni 5.125750112198895 5.066829398418945 5.379425043163087 -2.9557152545136 -0.7643398617799159 0.08845443338866701
Ni 0.6405518019330706 7.668788867628673 1.3596373846729213 -0.6047995681880164 -0.5073442168523198 -0.05510799671773735
Ni 2.38546914969 2.259522766217908 8.412273609646588 1.1290588156281198 1.854970969559457 1.5325548902445219
Ni 0.7666362012258394 9.177144319904583 12.872869905166375 1.909258527258428 1.1908457670279298 2.194565617536208
Ni 2.865940198971526 7.9382161277634635 11.929624398912171 -0.5566674885674799 -0.585525807560069 0.11954061327051026
P 1.9841580469520133 2.8661995575607166 3.9117925945127343 0.11739605612368169 -0.4558972139259374 -1.4420425458855617
P 2.8244520875078574 5.803676413114943 5.4306576273349 -0.5118457042670992 -0.1435547167969205 0.17907913495577546
P 8.172416933802179 6.557103851905597 4.1769691526268335 2.8866708502204284 -1.5924816485071414 1.0637697646123228
P 7.657432666544847 1.595027535099207 11.374815620284693 -2.9346435214449653 0.5800578424669622 -0.765677606754733
P 4.573510836165749 7.983715034552824 3.0277512439252394 -0.8838316240903618 -0.1221122306524284 0.40479782414696086
P 3.8189070209169813 2.59537361360565 10.517942081914866 -1.049303709785664 0.7611354959100053 -1.2679809187490354
P 0.25261804471324184 4.440154207288223 12.3189559136716 1.669804747869337 -0.6486119373872765 -1.1921727133694693
P 8.173130169922452 3.339686450547622 6.893327990405639 -1.0651087951387206 -0.07195643573364383 -1.0142829707361047
