# total energy = -340883.89343825664 ev
CRYSTAL
PRIMVEC
9.16202417050041 0.00000000000000 0.00000000000000
0.00000000000000 9.16202417050041 0.00000000000000
0.00000000000000 0.00000000000000 13.40954848512131
PRIMCOORD
 96 1
Ni 8.838934288327968 7.816324152853146 12.217881372699157 1.0275897151473399 -0.19924352571879236 -1.5152752772284679
Ni 4.852446069587938 5.4570571887138435 12.017288021452128 0.410516471798293 -0.3192639068391986 -1.4836249973130382
Ni 2.5263639560111977 2.2859616109225542 8.214876773476208 -1.9136656551871882 0.42489716599999733 0.03095556784124991
Ni 2.1251497674454445 2.6894296573674867 13.096099843928847 0.2087756335789437 1.622684911563399 -1.3595476725144393
Ni 3.0677021380898783 6.640295927187793 8.241119558530418 0.6723442480072098 0.4509239290810621 0.7961490358707127
Ni 8.66722879843482 5.0294288852469675 6.4832212732591294 -0.009733425237680011 0.28776532201028504 -1.0101807756422732
Ni 5.28707415931373 5.720245487239564 7.546277163236555 0.25881547174515424 1.4862668058112598 -0.04361979357247972
Ni 2.836012877729284 6.602447606460586 13.007248368560095 0.6067623483413421 -0.18513254023870698 0.28766839142110456
Ni 1.6826789852620174 8.564898153505705 9.323658492329292 -0.17337539970277882 0.4743083694432735 0.5470119677555869
Ni 5.575897800709148 0.7693681300939711 1.293231583989887 -0.3833975040943139 0.20776596136750672 0.2397198885662839
Ni 3.2379325421352685 1.0077035225909763 6.089208435478073 0.08692128457359223 0.8854231369471977 -0.4888446153862355
Ni 3.3529800762363426 4.503482903318786 1.0254512790859347 -0.10479430819927113 0.8619325100244252 -0.6569723935368298
Ni 0.7472335965561209 0.9718800091454717 6.885668670241701 0.08532488662074983 0.1659140583287272 1.1928532843762618
Ni 8.473772663805198 4.845253880827139 1.8544064640125217 -0.19799345536177515 0.44415550000897697 -1.5817097547026178
Ni 5.934151259211992 8.067446065903741 3.935823142780364 -0.1182836009349576 0.5304669189127121 -0.550975066168393
Ni 1.5507458411148904 8.586722094433377 0.3873978565259008 -0.7522024550864336 0.17121284483382126 1.1449379487522218
Ni 6.524634537485477 1.8787371346789876 3.9507746495813145 -0.09721341052821968 1.0102496812069957 -0.7608776142629283
Ni 4.6229923430587245 3.608866241714476 7.133316343829758 -1.09238048637048 -1.342891552014997 -1.0856994748058784
Ni 4.184131398291545 0.7837552562227375 3.4134402719465435 -0.6195042213880427 -1.2584426402412972 0.6541104986080025
Ni 7.2093675556090675 6.269838652851338 12.924645393490534 -0.18283834488789155 -1.5439785587004313 0.11387493034430066
Ni 5.970093878968186 4.088406572593686 0.6424915069367607 0.030968937577688604 0.538772353454614 0.033967358084380214
Ni 0.42126069685699674 5.317547050802156 12.803999862787109 0.6428729780209703 0.47213167350692886 0.3627746856376397
Ni 3.994413369412757 8.134612863108089 1.4903103828692172 -0.3658810924771054 0.0395106565001126 0.13901440572440577
Ni 6.607230182935918 1.9814250985401685 12.74430011506053 -0.3942125924319469 -0.20819199316133175 0.8163584209390522
P 4.818500771041749 6.387534011859255 9.751262058331639 0.03890310482310074 -0.02028137595685539 -0.4395637668732365
P 2.325110939043434 4.641041530139964 11.715023690996722 0.036097774163821705 -0.9407496774336442 2.113676655199624
P 0.3873392195729465 1.559843730846703 0.6258972492506999 0.20825755629194456 0.3472215683943891 -0.007395264022806618
P 7.072761779273396 4.145064528385757 7.6324331711741875 -0.9626271942330261 -0.23775865107485503 0.29355364655728794
P 4.283548519620745 2.554656285811637 0.46442207524329543 0.9061122898654331 0.8666247732937721 0.610045132857672
P 2.3713425116383235 8.43837060345905 11.781588543230896 0.8745057187037455 0.14248539499214172 -0.4769694612152044
P 2.6682195720410564 4.7749261853776 3.094923427296512 0.6745250577086125 1.327633597414662 -1.5141725310825922
P 7.137528126216177 0.09711745333052405 11.84889093838895 1.0025435708119894 0.09279214153207245 -1.5896547205813074
Ni 8.88173926398459 3.123865344591398 12.512382720304851 0.4027499404789967 -0.18554160275166756 1.097833281954935
Ni 1.9647593770676943 6.638912461579028 1.850959710621678 -0.9945060452194936 -0.6554585279954647 -0.1848296642863075
Ni 4.422609718361377 2.9792886074635048 2.6164440587848183 0.6691177706501121 1.0349662101170694 0.8043559971615373
Ni 1.27403439531409 3.392972310555941 6.2774385516756475 -0.7245296717615135 -0.3642463850871598 -1.2900152728412557
Ni 1.0988931464587788 3.3666773019655065 1.884269164709268 -0.2921765637041032 -0.2634015484539399 -1.174866617990854
Ni 7.628108695893809 2.2582648126755567 1.7421414365696055 0.39546369123022856 0.01236752042641741 -0.6643887406055591
Ni 1.2669429888161816 8.942346052077177 4.877441903189478 0.39276094758708485 -0.7614324583251338 0.355203301048285
Ni 2.748158230560757 1.3064771219408244 1.4240002348994374 -0.25949604275194665 -0.8086075733490397 1.6661373263200787
Ni 3.0396205348391176 1.1247850259976524 10.645920865245886 -1.114980483158183 1.017814895148763 -1.1682588828663492
Ni 1.0597987904812933 3.6743197404496892 10.000089800597902 0.32372322816213284 -1.556334766272939 1.5968898048771658
Ni 7.159947598697289 7.049810909406136 6.119125192115824 -0.7463891908387662 1.013255815023171 -0.25233217801365576
Ni 6.467197809661982 1.7193179188345424 8.251203282033774 -0.08504103683174387 0.4587760781356292 -0.030092705620322364
Ni 8.151965736372995 4.7604868357126096 10.039273028207207 -1.0971259714752655 -0.4387266156839218 0.7521397201692982
Ni 3.929372161753003 4.983811168253319 4.882229060676761 -0.8257964264235004 -1.5535901136482664 1.2186149667213981
Ni 3.2651620771634113 4.51543018248322 9.866075044620896 1.3194425769634373 0.5667415849740304 -1.4656432160236372
Ni 7.992583168624147 0.2463943087186588 4.835255364146044 0.46322177261180875 -1.5251904794596507 -0.08560513686532999
Ni 0.9219103307997474 0.9124917702314663 11.990898644015534 -0.7178147216351831 0.08191406116698796 -1.0989239439159526
Ni 6.756708602849835 6.966903755143124 1.761558513818981 -0.21553763489312558 0.38455475762720864 0.058229058845222295
Ni 7.7792729282051605 5.810289858119979 3.7989919806567745 -2.1107178296816165 0.04113147993298723 1.764637573980522
Ni 7.794408591686484 9.01702570887879 0.5626353066321526 0.7304987448607548 0.2800882650810015 0.7220287597165306
Ni 5.721748059159018 0.5495024615751739 5.8513100715210555 0.43017281257663975 0.060457948175741044 0.6174187996139238
Ni 4.3131785049104545 7.937097951891161 6.374818955092076 0.48187461182630553 0.10665167312298407 1.1144693478497194
Ni 2.0804665768895045 2.96662669043494 3.872556619149867 0.9774722296656585 -1.563394758443514 1.4646248020614518
Ni 8.122766366206546 2.1488061131529363 10.545268703095086 -0.1404915044905645 0.3442750841715555 -0.43271820470631284
P 6.613368738948321 3.9495102902832384 2.8844873137746747 0.153133104513975 0.42385946876410224 -0.09254865806269867
P 4.437342252791139 2.4550650860283545 8.838246220333145 -0.07734881039380873 -3.251694736903561 2.018565635726388
P 9.096881909183399 7.12960297554345 5.302966605969119 0.06271717652356296 -0.5170375328806837 -0.6275538311653965
P 4.9561235320302215 6.379251542254463 0.5220621999973514 0.06675612247962696 -0.6185313159518121 1.1940969269753758
P 9.016338557086357 6.869877922051591 0.9702455040818712 -0.3342236134728244 -0.19620988109879114 -1.0320212685561323
P 2.348354993675466 8.327052013084913 6.873948609269965 -1.696661720161181 0.14089285369404123 1.1984109809696974
P 2.1936450581151616 8.64447033106944 2.9742110138186204 1.0787785793163291 1.1057466232647408 -2.3147389792947104
P 5.251323942059417 6.590124684316288 5.1917478816554805 0.35501149675245314 -2.647266436012034 -0.6020723990648404
Ni 7.508379367580292 6.284314650611926 8.23831689541968 0.1652946795771734 -0.5245880915344321 1.023047347192296
Ni 6.113919330136352 8.24036094295157 8.56516110359161 -0.8744044172391908 0.2435696013296773 -0.9756405757735583
Ni 8.757300655386931 7.7369077296956945 3.035452730167415 0.7620317824720295 0.3663369490676014 -0.09914970831898408
Ni 0.993502385547362 5.479091856191194 4.269224611456883 -2.1565019778952665 -2.3993467852437775 -1.5933550522510302
Ni 2.650729268417663 6.9214143064840625 4.059512297823075 2.3993406145961904 1.0515230860344857 1.284197637718214
Ni 1.7786695096529517 6.153874916360354 6.203055744448365 0.5988379512879429 0.9504535349849697 1.7544693751982687
Ni 4.722418626411823 5.958274868138338 2.825150382194504 0.340535157513149 -0.32770586695896464 -0.49082359348947724
Ni 8.148887296342897 9.03875802956747 9.728855412683986 0.4707335076078216 -0.36503082866166814 0.07425962994552371
Ni 6.186088592389611 4.191351073124041 5.517921429677995 1.022626971825426 0.19420004975761393 -1.105649178454928
Ni 4.2895496452746595 3.0193724620220936 11.700353458329474 0.030132043498690038 1.1107386771626935 -0.2326766085662573
Ni 4.075158286035578 0.9025665497415647 12.682924633162811 -0.102420665760772 -2.294981594162125 -0.07334971653674464
Ni 3.909664648346026 0.24615426369250223 8.529210238013906 0.5411974179563389 -0.05168482996880131 -0.9082568470122616
Ni 8.487561509773352 3.559391312659303 3.986725515159017 0.7392232692179462 -0.9575837182718476 0.6179746721173938
Ni 0.12750422179429916 7.898928960327485 7.6547866770832265 -0.0601617570915609 -1.0199993043945916 -0.7295098985849243
Ni 7.69318655164916 2.1104996912307743 6.183383962934594 0.15535582319690663 1.4133271802287402 -0.46655417941915134
Ni 5.60150565750715 8.12239988525058 12.685861978024864 -0.9440867122266774 -0.26729651263297194 1.6401123630112269
Ni 0.3838136727765705 0.830504483167926 2.7368348852238515 0.33827747182722384 0.88015314679751 -0.10686738867821595
Ni 5.827541949121994 1.4172185048093189 10.486924018703188 -0.7219310577964019 -0.40273657074255803 0.12491858975297195
Ni 4.598319012698433 8.500424991327696 10.642554737665353 -0.7656500959509072 -1.2350162908975568 -0.24042951303879886
Ni 8.833638638514284 2.997740923596304 8.056375592426454 0.5194564267348214 -0.1477834101662874 1.4525807264127242
Ni 6.734939634065558 7.161331064306054 10.70564718284177 0.36545711756580934 -0.6755519563112301 -0.30729387896151594
Ni 1.7960132208939594 6.559551010564971 10.901278381945039 -1.2474887123329548 0.23790443262409997 -1.9585555737213431
Ni 1.0396606619510582 5.451642432589472 8.591739218720527 -1.0917276832778295 0.4210744498197974 -0.39452138192161734
Ni 5.644026610422901 3.8641751996869647 9.56934824141011 2.213942222290606 2.1746357113815002 1.0149352596081231
P 7.669777580586944 0.19139651165710506 7.303671351400176 -0.4022647733124621 -0.5535412842336724 -0.30806186747579206
P 2.5867691795780035 4.43528079741384 7.417974012958253 1.329477078381304 1.4958014847745724 0.827827083700284
P 7.15327764529874 0.16073671488113658 2.67740358479752 0.5508768500276319 0.1684702490916776 -0.24578794913723473
P 0.49124573261270815 1.871315895320712 4.905011349304278 -0.8142141209025396 -0.16386360355760168 -0.43500982895396695
P 8.844907927910185 6.8158219810468665 9.822842202448186 1.1239685455894062 1.0984362056462567 0.9832759808316293
P 0.7850700066522591 1.459116440099931 9.56861069848623 0.40836291579039996 0.27576135557087345 -0.3655802734072349
P 4.695161605311983 2.316993385868826 4.932889555624477 -1.057003906643399 0.7297767790930658 1.0281062497724422
P 6.993491948498331 3.829322860774765 11.795212472768867 -1.1110626361610156 1.812514085946827 -0.7272673824076508
