# total energy = -340869.35022489633 ev
CRYSTAL
PRIMVEC
9.20116900583007 0.00000000000000 0.00000000000000

0.00000000000000 9.20116900583007 0.00000000000000

0.00000000000000 0.00000000000000 13.46684090844676

PRIMCOORD
 96 1
Ni 1.943719289595062 8.781402206348234 13.105659829927262 -1.2783792312642241 0.4117398026824329 -2.7048812583120254
Ni 1.413952799099456 5.3648886436590075 2.514555196693543 -1.0857431835596205 -0.1615434400648573 -0.04022156652420815
Ni 4.405795620467052 0.8299132148809735 1.9693371835584819 -0.018551023529309988 0.3537933080746358 0.6425341066243129
Ni 8.610214462224455 4.6796039993778535 0.447144595931807 0.9571376318733646 1.159180574714165 0.9516506406168644
Ni 3.540683334629588 4.2131231473710065 1.381980578014731 1.686608192579921 -1.586106598218733 0.7917552776783912
Ni 1.6001200459071119 5.634731318849445 5.079921087318843 1.1121923788900845 0.6807550977787244 0.7496118115411219
Ni 3.1298971569135894 6.40782271627079 12.04476875643228 -0.5078214135990544 0.578515694790823 -0.31406925001213654
Ni 6.416048561110707 7.93131542903827 7.110249137886133 -3.1015934772373743 -0.8089996665811358 2.5173447366175163
Ni 6.594302802815086 8.591710911919003 10.072954618253098 -0.061455021981687716 1.1765884857779672 -0.34113653854257375
Ni 6.9748907447764905 6.864255892030221 0.7499854225197781 -0.15448061968080493 1.7462328462210892 -0.5173278104275929
Ni 0.5568795743767961 2.0989430059814187 8.465147915993338 -0.6988332954366738 -0.6830860599047461 -0.27525741935126147
Ni 4.220962543124484 8.763910784602505 13.44505137915739 0.9474918812534843 -0.557355258663124 -0.022869191288689646
Ni 8.555081059225815 5.041789603889777 11.61019387709534 1.1201838817359933 2.41793817509272 0.15243916377074393
Ni 3.7345519596598513 6.824672464176391 7.479146994982755 -1.730652475284329 1.2202226775281502 0.5710890633094486
Ni 8.377415692319818 3.0098771120680863 10.763789407509014 2.883176978134557 -2.391132624864101 -2.795541698213076
Ni 6.433926431942876 4.818596854133769 1.2181105233777363 -1.33589146654808 -0.6344091635243332 -0.90677794847389
Ni 5.301501792314277 6.581181936213608 9.241686991335843 0.1297599770056733 -0.9885459709813169 0.12741204559878702
Ni 6.882943465710167 0.9686070316533355 1.0641657694441184 1.3894861119450845 -2.958489731934944 -0.8659534582583602
Ni 4.484106767483311 7.8042104842747175 3.1205358878530394 -1.476723899317831 0.1339588455783693 -2.0547325725652485
Ni 9.210277881777072 7.128329434430246 1.794847139979393 -0.09076379824813402 0.8959065529770248 1.7822390891123692
Ni 2.775514143480245 6.145856241508729 0.7854724900573538 -0.2220859775346046 2.285676000490483 -0.20933639117842015
Ni 2.0178531060102887 0.9928429100742996 6.7339995469784455 -0.0054404542892809524 0.6327767701272328 0.13277845211702294
Ni 6.435361814263935 5.972589033253158 11.26495866560813 -0.41237383672200595 0.906895962108993 1.1828936020603886
Ni 7.355800727643259 3.3267009547670443 4.362031181544701 0.23296251523779238 0.0037155011783742468 -0.46235299685361014
P 7.533328077018385 3.3336662394916723 12.617904035595075 -1.6314893972289064 -1.2244027770477688 2.0533950847007474
P 8.128956533245676 7.11162011202612 10.396899245428132 0.3123838918899136 0.004515628482166417 1.324186776516642
P 7.620536754191466 5.818073806858606 7.25196093800021 -0.193050509534203 0.0403488361306918 0.284036193985156
P 8.444602626347868 8.028626989471116 3.981350307779178 1.6246682605420149 -1.5965352497512244 1.3523539829794773
P 5.018013783905051 8.868684492871115 4.817088782579784 -0.23557424182902653 -1.5946321191912407 0.5838116530824398
P 4.911114605661026 6.74536759093786 1.186848632518561 -0.9007870209977777 -0.5028951799420307 -0.37438321641084554
P 4.486361053820873 5.113678335136168 10.816876470583273 -0.8157758089627047 -0.09093117706393371 -0.9538504764816605
P 2.169359550231851 7.337011941107341 3.4891236655636373 0.021953364342639607 -1.6837455263201453 1.1932083537228353
Ni 3.7188087599718216 2.894402444572605 11.636656438347691 0.4371847251180987 0.05552143010607212 1.0362445626088606
Ni 0.1105676842145781 0.4608819408378432 5.119716142053342 1.006513611203331 0.3469626583060476 0.9919521684493884
Ni 1.0197011215818144 7.714701514920451 11.116769242711838 0.1162172053242321 -0.7050340249307471 -0.24367193123549646
Ni 6.929004516346214 8.382991600567012 2.7446230597206767 -1.5018458911964392 0.5233519051344858 -0.9066743330164901
Ni 2.311361187160757 8.69869290068155 9.209002599791821 0.20122481781487928 0.598498308560337 -0.330631782356508
Ni 9.034204317060455 0.4970986610552906 10.180837401433797 -0.26675812363099866 -0.36204423522951845 -0.78744585166976
Ni 1.8551856441256176 7.864735772146054 5.944654285004848 -0.09699486675951037 -0.17551404331233642 0.448498350358705
Ni 4.419201723298999 0.5589277545349232 6.6970329315099315 0.5432527578234708 -0.5256684690828044 0.5298292853287133
Ni 2.49018590132607 6.124215092668142 9.802216669345743 0.8113347424722156 1.3069243898917684 0.03092317194141771
Ni 4.743174874097079 1.4791246771767865 9.974699938025967 -0.5162091234421174 -2.510334366737954 0.13610263139424947
Ni 8.50488868383236 5.805790246611079 5.165502997861391 0.5667932641475723 -0.2678636979903516 0.42903072855239655
Ni 2.8759633024482265 0.12260741349089985 4.083159399484677 -0.24267357187796915 -0.1033434346853575 0.25272941345207445
Ni 0.9340658442606631 4.674708977616292 8.944096351622209 -0.8568124151890405 -2.1616423844456256 -0.2955277395645233
Ni 5.894737944673136 3.0270648952459 6.251832542529662 -2.219839304501332 0.7141858666333442 -0.24351200861886446
Ni 5.434495485061663 5.433879006757105 7.1159731849497945 1.4580515197193082 -1.5038168988798812 -0.7920627816164811
Ni 5.558297210253034 2.66032471221523 0.6901566631209041 -1.8434220883795929 1.857927995305252 -0.4332902751596989
Ni 5.392703776713895 3.7127727932883925 3.028100026727433 -0.7704639723997828 -1.034670276143205 -0.0905974478735988
Ni 1.4830259727160757 1.6815135844461582 1.1840882819011391 0.2857351789541337 -1.7080193112658455 -0.5696726425778963
Ni 5.3834197974706335 3.1337616477779804 8.574377750275339 0.18008006541646407 0.9986447499782157 -1.148340032455235
Ni 7.741789755646084 3.275211214583402 7.920279547269817 0.5293724002969529 -0.21894486080246162 -0.9456432580805197
Ni 7.507785632638507 0.5203601357083047 7.77672291282643 1.2261822375456948 2.1127754835415935 0.4425999825963991
Ni 0.27176939992139815 6.970409775607542 8.810478819635284 0.6095249986881437 0.11127657348950513 -1.013045755894894
Ni 7.698406245108937 2.976329650897686 1.8038155191353966 0.555317916518121 0.4895128450978537 0.8019013649734578
Ni 2.4521206663118225 2.4105497860134495 9.693310716202854 0.003454791317819857 0.21020131028187672 -1.1565467366357438
P 0.6721251327710318 3.4539715205676425 1.7765855804114024 -0.454048847863289 0.7917123402555979 1.3399553522048084
P 2.6743012875081096 0.8461348753426894 11.178851368331399 1.0498151022044437 -2.0972431922339494 -0.8900580646160479
P 7.71683618606459 2.076418544943256 5.998117675879948 1.917054626264079 -0.9988062152567444 0.8610529356329494
P 3.382349623214269 2.0441316438881447 0.39502825615800957 1.9072350690704962 0.40626155317668095 -0.49349651233595004
P 1.0105551598694233 5.7475652509209265 12.877249097387455 1.1470493386682696 1.8531729971187696 -0.09930063207455157
P 1.7887716082704475 5.856764721346136 7.382912891407576 0.3748177328451029 -0.0039780108111415365 -1.235596588881059
P 3.693073091048725 2.565948324605576 7.23163923675475 -0.34348935504546646 0.6529031085634627 0.3075335057761478
P 6.861670363618569 1.8988727932306813 9.450987816551239 1.9764442810763057 -2.198260806999608 -0.4008897473418064
Ni 2.80712935921845 2.645059973300887 2.91478947411601 0.0898382011100711 0.019271189524786164 0.36016681570114745
Ni 6.161010566398375 3.2284416739555506 10.853882651077301 -2.3432211458948036 2.7931950523577704 1.725699502154428
Ni 4.767668385242336 4.824688027829548 12.928274178550499 0.31777729499134305 0.0552684335550016 0.08436843624475146
Ni 8.590717185696732 7.734346010147769 6.610481217783796 1.3059645970816607 0.04925359481948937 -0.389488190373084
Ni 7.933376490832612 5.135595519038498 3.0786006412731663 1.6127285716816355 0.3883867297787892 -1.7891671836907703
Ni 4.130671474428615 6.7166691456853975 5.166000781089399 -1.4696831904209655 0.6921067753461176 0.48435264105315295
Ni 5.915992644427285 6.040640877141332 3.117290635643824 -0.40944972109667555 0.12074800331505012 -0.30123456014131345
Ni 2.3115544117039764 8.474313200160053 1.7135612551144261 0.29842614415824087 0.26801847840066095 1.9350886009476542
Ni 8.282744867310974 1.1238583515458664 12.344069893411843 -1.580392321442775 -0.678702843235386 1.2465384326045434
Ni 3.1675943451788475 3.4801580467582514 5.243422175089975 0.45354696852620596 -0.020699180220564353 0.5065116936486954
Ni 2.1036079985248617 3.83883800598605 13.154773828346178 -1.0630871367230013 0.9095444554754336 -0.5446154424989523
Ni 1.1862882813432243 1.8345474226760268 12.263174138100805 0.3156767037085725 0.5164374374028395 -1.0819839736275043
Ni 7.713192523249594 5.026699687181204 9.451701827244278 -0.3655571334787833 0.9633170212111989 -1.4557447259630025
Ni 6.427172774098917 6.861688765956019 5.235369312222083 0.6451034100133858 -0.7497231403080056 -1.3194392345293275
Ni 7.0327568948863775 0.06701671240664073 5.240930498599316 -0.28626996841168123 1.1579302472468316 -0.13831686543674887
Ni 4.679880034439596 1.6904755227840544 4.448352866052718 0.246012406443215 1.2569915096170674 -0.062765256152679
Ni 1.2524078797992033 3.5632538015113746 6.589203515107836 -0.5771383548273221 0.345457791625747 0.23981964736894185
Ni 0.5581695782320046 3.8631750972629852 4.095171525254824 -0.11573538059180713 -2.1000747481454733 0.07213384185177255
Ni 4.162654736915809 8.265879125038525 10.708239191567143 -0.33593905350203435 0.3752615052507408 0.7952239529532821
Ni 3.609296449809971 4.467121410017442 8.641133149490198 -0.9420763666648677 0.33645995900251086 -0.3139329815445884
Ni 3.4292387790355425 5.085191516764374 3.547893370442294 0.5749593448981324 0.7315837503948174 -0.2854055635288568
Ni 5.757677335349415 1.3499494694501675 12.286795378450957 -0.21571658367315108 -0.8906141942298339 -0.2613246113202532
Ni 8.832689520819933 7.481479491254476 13.067818183313026 0.08248073230373536 0.40939187127554655 -1.9089831621098543
Ni 9.00190821483662 1.1982037948417623 2.8009415732510625 -0.5764058475366718 -0.4471369512348042 0.1733401755894692
P 4.745107119529274 8.547214059966162 8.494829046065604 -0.3615405561202225 0.48968048102396955 1.1056000703845474
P 9.130558955945927 9.378199211003569 0.7666110142885101 -0.4254540669447318 -0.6669888972325675 -0.12167848554911949
P 6.3005646924465 1.6811271353597192 3.0156563661440954 0.50496928886224 -0.3489992291201022 -0.4221319445500343
P 1.314911418946359 3.872992744292283 10.884196821557829 0.22922490257223105 -0.5252671198793276 0.9845391638147688
P 5.168627714760312 4.840311612324155 4.861879151814945 0.6392140411121443 -0.5791800678476993 1.1845293378915986
P 0.4901388970318976 -0.1726286471460741 8.008838035894819 0.13997959785115247 1.0842100347445456 -0.6192090587451271
P 1.7077461164803907 1.8409974419520694 4.581257307463474 -0.8026063614602823 0.9230610019046296 0.5512923402984957
P 5.949843744165602 8.376569184797143 12.155250869777717 0.1637327344066922 -0.5187881970232032 0.47981850062822523
