# total energy = -381175.1400824712 ev
CRYSTAL
PRIMVEC
9.18615931512177 0.00000000000000 0.00000000000000

0.00000000000000 9.18615931512177 0.00000000000000

0.00000000000000 0.00000000000000 13.44487270889263

PRIMCOORD
 96 1
Ni 5.908960123713412 2.3787559099249562 2.4014025480587193 -1.3954754967593 0.5238303874328011 1.3730449356699255
Ni 8.711804256606491 6.646819984508555 3.1460601666192396 -0.7053749532099336 -1.0373437092103104 -0.09784950145032181
Ni 1.7637517415002952 3.6759334424235197 6.116018906630893 0.5084256228419567 0.3820623302226582 0.08096918075521539
Ni 4.602458639685311 3.1637315809614774 5.153204706292957 -0.36578339055697645 1.1732877035395084 -0.5473737219703799
Ni 6.791887809685366 5.364064721863563 13.071737271541425 -0.5339322517534933 -4.122228872554069 -1.6552875280897685
Ni 8.168112241604296 8.181046353676798 1.5128033274322477 0.15216225596027344 -1.890027446942958 -0.5801820267496525
Ni 1.5134748356655574 7.226852445078093 1.9479333136895378 0.5069724353351979 -1.6693044111941506 1.317748734200782
Ni 8.08697089789946 7.805745821913971 5.205357287592115 0.998953539467886 0.12319080842858784 0.43623367405873903
Ni 8.648814763367042 4.1343135974702285 12.249690855285738 0.36913842307213846 -0.7029159501464798 -0.649718540187894
Ni 5.919671185273453 7.258884582007647 4.289626745938559 1.2172962479099745 -0.28022170533507224 -0.6528835681794369
Ni 2.8688283140129514 2.101416579256702 10.12966311760653 -1.065915350200416 -0.049540787042605006 -0.44126558005569166
Ni 6.586788434512959 7.4200006272062335 12.590786723481832 1.4838810791879025 0.7936008155275622 -0.539090141805349
Ni 0.748504782009358 2.687677255724787 4.138385821818056 0.89176604844609 -0.040617516411046176 0.44731281469103606
Ni 4.2003712678632406 5.842507448477278 4.9704479073867 -1.3233377982527854 -1.2077348294737846 -0.5057105379036387
Ni 1.6461597183184093 8.403672920492907 5.3282295150490535 -0.858143218185322 0.2986755411648856 -0.37922794609765653
Ni 4.938626133501506 -0.0921408506619474 3.114034460001084 -0.31185450174900486 1.0214663758584217 -0.8153006690984991
Ni 5.148731965406522 4.7316803403414776 3.1124342310784776 -1.2570969248466801 -0.9670800877980571 -1.2753149905166035
Ni 8.0141430282185 1.1100830292452653 5.094597929580347 1.6349141066397392 0.534617450745976 -0.7428292414016497
Ni 6.864678934729757 0.6640205949926026 1.4845016897304217 -1.5199613698502272 -0.2014600737541369 -1.0842455159681714
Ni 1.1433920422956143 4.679411094821211 8.257262078849479 1.2189443250363587 -0.7181034565201956 -0.16473186509516793
Ni -0.151555090763174 4.851798557287524 4.5598422101918805 -0.41118367306864667 -0.23438664927882857 1.0399418089547896
Ni 3.0242764990206754 3.9064784784203783 1.3319030512886711 0.8881690751234509 -0.21889678117334563 0.5904965213017831
Ni 7.012236209034159 1.280954775453082 10.975761654344767 -0.31004418801314343 0.5327688275730115 1.412926602356212
Ni 3.196268956643865 -0.2825607435247951 9.830756522503744 0.6289021176631749 0.18586684730157021 0.851297141797766
P 7.091843464162213 9.169697545218654 3.55581889994113 0.6603909323000755 -0.58646348888299 0.009366528816564513
Ni 1.1983803909220316 8.55032076504221 11.156904445089701 0.5446645505693329 0.9330044862705866 0.7911461833394826
P 5.118592177260301 7.951851683073873 0.6670180387207684 0.5019708683555483 -0.5954574648514842 1.8225802119335772
Ni 0.671468732825262 0.5073956629987371 9.045239786693736 -0.012433597777662456 -0.3378100452725021 -1.0843023373480356
P 4.489331089846632 0.5864067363984495 7.073764184354051 1.3523143879907937 0.9498143587390739 0.0713116030607933
P 6.92852274076945 5.398503632488428 3.852533677472538 2.117226063113779 0.21811362315041788 1.0551753380750923
P -0.021948490038940713 3.3883239858340604 0.8019599606749086 -0.18447150961594036 -0.04520205045793505 -0.1282273424112308
Ni 2.6630859077005775 8.870559458905479 7.590396530370473 -1.0792807157637285 -1.3508519445126541 -0.5447745937846359
Ni 6.70156949299727 2.7129851241621044 13.417835003390554 -0.6884840909918658 0.4006943435015486 -0.7230787982475998
Ni 3.4867444948857536 1.9475759720988985 2.9422624701973117 -0.036837480543323656 0.1532014958580652 1.996119648018046
Ni 3.47231303887304 3.8411005838039047 12.361296258554523 1.2926352269626062 0.18688963213912976 0.13606612172935922
Ni 0.8689518634527025 1.442511756290503 6.24970140616661 -0.3186252448139351 -0.837706547597525 0.4108800257852988
Ni 1.5710353088518472 2.5374743675873748 12.723299824958723 0.8991731395434385 0.43091586139025145 0.8216191551173593
Ni 0.5933193211531069 7.252674738427383 9.055080918982991 1.3132565027573833 -0.38730892333357814 -1.314655439987439
Ni 8.435346797215908 4.801513522142017 9.463912768847415 0.20817990897647373 -1.4503065856665667 -0.33316226208784555
Ni 3.177308724173948 8.809085681924527 0.9423768334779203 0.21656581904732378 0.974825793181747 1.7253621734196674
Ni 6.0507760485538125 8.189185290676967 6.610964568143933 -0.19212954038183042 -0.1103329786293132 0.7009246307480638
Ni 5.758885841803994 1.1492987426241787 5.122725030258468 -1.4191291316224979 -0.9155736923886489 0.2900384343151779
Ni 1.9355237313040672 7.196143115065042 13.185117440756517 -0.8246731114523346 -0.5856276232452559 -1.7465210668854694
Ni 5.865840292698978 5.161289444954185 6.375491157767176 1.8375892837478998 0.4953631332310436 0.39808184557936604
Ni 1.7161582509835114 2.042551671472191 1.5321640764407738 -1.373165777518506 -0.8851403155994563 0.6331956028322063
Ni 4.345880028678885 5.709666401119004 0.5736177656403976 -0.8331482388028811 1.6462650128761844 -1.6811703093938017
Ni 8.615643542703829 6.0530266575437 7.067955775928311 0.39948823900858943 -0.5532461215907569 -0.701013076696812
Ni 4.03242990642185 8.123825768378778 5.396368769103733 -0.9694259623224144 0.8396459307120829 -0.2860203142947203
Ni 3.1948818466133626 6.648620471700466 8.949270144901236 -0.8666196310874494 -0.22621414077036525 0.3528080613432311
Ni 7.624980582309788 7.686555407041308 8.315599701099215 -0.4605257138368843 0.9005731052147586 0.28059400107282645
Ni 7.4296001635100435 4.104182995483151 2.0533812344851685 0.6981465537822944 1.2099146107339227 -0.515150600270616
Ni 7.760173286408516 0.818132193845107 7.3854569943671455 0.44040811715140277 -1.2174674833805161 -0.7365819749403573
Ni 0.8881674711467787 9.103355103892229 0.8505896499429555 -0.015881190006630713 1.4695502643875271 -1.2040308982596362
Ni 7.451490780746387 2.2649210258323125 9.028191193941353 1.6727378623557319 0.8110856025758869 0.08856756192776359
Ni 5.851160810389421 0.2690414731149223 8.970902631065679 0.3537781385659843 -0.40421495506029737 -1.0044526149092443
Ni 4.025595404019903 4.100609579576757 7.544953519708926 -0.8061200310404955 0.9683599829517453 -0.15991747442566007
P 4.095557192048435 6.539314364065027 6.9777274835998115 0.6669174205646837 0.07397732281841453 0.8403234163950818
Ni 1.5795784368542807 3.9438294014933843 10.632164395014195 -1.2804337998004076 1.23047546560441 0.553314512934847
P 2.8743124510209657 4.144418372526871 4.3227281517922895 -0.9637163135321467 -0.20256359123096082 -1.39587530330088
Ni 1.0992892922529431 4.483681601974055 2.292875426718555 -0.8166396996248969 0.8968493765062683 1.2057710208791943
P 2.655819655818938 6.344870933497806 11.121598361041796 0.31532909056116665 -0.37642595787248717 0.14313562698163093
P 6.537302595212841 4.140936818211901 8.551073111475972 -1.0568018179349221 1.381569942421801 -0.16348950804763457
P 0.5473609669636704 2.628160130641166 9.132886768303221 0.4038069209886013 1.359923053575987 -0.34792450799868463
Ni 8.648566737070198 1.4694455748960251 13.177789641608625 -0.9672893755953857 -0.7846569760707133 0.9835161218668933
Ni 5.032187164366869 2.3840746960684065 8.759575958610638 -0.9381369224011457 0.3415695123149343 0.027692580819261986
Ni 3.177657798221359 1.2397732240176944 5.39603255567912 -0.08415709156489377 0.13305484570686116 0.04959195199551459
Ni 4.937781006860406 5.898983954884764 11.473074589068803 -0.11327766307993394 -0.39935197054104127 0.3129202240093578
Ni 4.836944537954261 2.243407041120807 11.094694856761443 0.8153232948063184 -0.7968591745638598 1.7368056393699185
Ni 0.4049268136129872 6.398453799775437 11.094049988389646 0.21371600830335452 -1.8763563772137688 2.147559681100314
Ni 3.941854377277768 8.045440272416663 12.298723816940138 -1.0889724891301957 -0.011090710596522835 -1.2667287915094894
Ni 6.640233508403454 3.786599101612034 10.970007444257966 -0.3940413569614053 0.6160959670374422 -0.5195227611963827
Ni 8.93500036528943 5.97209659549914 0.45219143963247316 -0.7671996998262142 1.4496820647086903 0.8914634296040066
Ni 8.56122473594424 3.5027651564301023 6.619596801890047 0.336068379991047 -0.158721654345346 0.13120185165852244
Ni 4.0132216476550875 6.901010194137957 2.555883430508748 -0.4930285715605961 0.41064374140477666 0.4618380048904046
Ni 5.469062520861216 7.9428676194326036 10.559562504848136 0.17068139781038347 0.7070765092820726 -0.4452253360343881
Ni 6.543797209726519 6.405977264113065 1.4597100834369077 -0.4768180232390046 1.2351407322905632 2.9526967794022503
Ni 0.3422165796114669 1.6526818913095145 11.155815885231327 -0.7108632300180145 -0.06580070054489312 -2.387418409237308
Ni 7.057294319627639 3.18787280718771 4.465606915245465 0.2781848774107016 0.9450418770510952 -0.08423756709384203
Ni 5.6221498629693425 6.402918273118645 8.6882785030428 -0.13493740744155472 -0.9931071079894381 -0.639185501867054
Ni 7.321828144451385 6.3806326510391775 10.412031870405249 -1.955602147519974 -1.2193395035922485 0.9020700014752594
Ni 4.14793667147841 1.810748131672823 0.7499231249809449 0.40097947884213525 0.31408673351363325 -1.739619968890262
Ni 3.8331729284640117 4.409595228490585 10.115074578272482 0.32953443552727113 -0.2483315414946949 -1.3005938196880504
Ni 7.918551856182666 8.44621402348137 10.569579092777012 1.182789986602989 1.169196049968638 0.6813212546948395
Ni 8.511867502872116 1.9730491914007788 2.5014049137147336 -0.07920874642068293 -0.3899491891699026 -0.38309205703875315
Ni 1.5715221752863944 4.904545483083195 13.244920255389468 0.9157703817804873 -0.25639272123627455 -0.525667697751856
Ni 2.5444007315807458 2.0592521087930775 7.818193067551925 0.20978479156974839 0.7333459845015629 -0.017909533290569154
Ni 1.87770604566179 6.194769093110962 4.328765295580677 -0.29550819918049753 -0.33783704185569563 -2.0915507698348623
Ni 0.417183905756694 -0.32645129329127687 3.264872111735236 0.14983103672393552 1.2596785695309274 0.7401262406481899
P 9.49297685775806 8.370464955193125 7.089884975033052 -0.6238049056459256 0.011494888013476976 -0.2058479184091874
Ni 1.9244819680149001 6.239129055609619 6.567537919414142 0.3630284535196587 0.2342048722853257 1.3389171407482812
P 5.143064105215659 3.8786168577414735 0.9056441389151982 1.293607103957572 -1.2138193451049675 0.1275107759601804
Ni 6.333195325227814 2.8534598697677134 6.764411089074527 -0.29479574649450524 -0.758091823987675 0.2856709013751016
P 2.7485906769980537 8.70904840886377 3.2115767722387636 -0.5241173225456005 0.24951990537584126 0.8704788569325397
P 2.794154026344367 0.9457150837102692 11.944209726084736 0.9273341753586867 -1.1210012354309662 0.11377414310037826
P 8.77663098167442 8.096515317248416 12.759170857793888 0.42384661324829587 -0.3028345576385817 -0.5595455814462234
Ni 5.793131843086868 0.3099952078035782 12.769805674233044 -0.20618087626857393 2.431105051491981 -0.2640019010421002
