# total energy = -340856.422758883 ev
CRYSTAL
PRIMVEC
9.36359163069576 0.00000000000000 0.00000000000000
0.00000000000000 9.36359163069576 0.00000000000000
0.00000000000000 0.00000000000000 13.70456283787232
PRIMCOORD
 96 1
Ni 1.6035712655159167 1.1699995139950998 10.993279926758113 -1.446857964996334 0.4704643131068349 0.055301600785782175
Ni 8.71143629429196 8.114947410240246 6.171328883773767 0.38418760409577707 1.6058835237353442 0.05739576431064954
Ni 3.8766767941785263 4.358564679032261 0.14287810986698757 -0.39562438517780896 0.3638658618192895 0.7234487799925089
Ni 6.387402190203433 4.373977151021792 7.613090729660586 -0.46619833874162936 2.2303743997047007 -0.7718557105409869
Ni 6.299618517723568 9.016202477958588 13.357412676076272 -2.2332128975947607 -1.0738729144845958 -0.13600338681222382
Ni 1.843972119622375 1.827276835565671 2.4121810839275626 0.09977731460065396 0.11420274599736462 -1.7628128620669574
Ni 0.44237914590316996 6.196366191703785 7.055752895355305 -0.3351597521338486 0.13466512761677454 0.8611282689555749
Ni 7.688763532595336 0.2948885307494004 11.55102788638122 -0.5616680271058649 0.06683608378794297 -0.08892391682591781
Ni 4.431956511021293 8.792000637547082 4.175095399010584 0.09059847631486333 -0.9553777117594644 -1.1992329626503604
Ni 0.7706750992310942 4.650118834766186 10.5825132028986 0.6104325981040778 -0.16816120249169103 2.573568334996936
Ni 7.452698021460416 6.857370222783368 0.27503584356094074 0.6506333386926794 -0.38191937688689065 0.1581272152944567
Ni 1.2705925799632265 8.460679307730812 7.924964815810357 -1.7210897712965583 -0.057500408209313875 -0.26665630794581174
Ni 8.455669786154626 7.151536820610294 3.7665075829469163 -0.23565137492386515 -0.8503291214575419 1.1467747448506445
Ni 7.31562440210759 9.001389275839854 4.28786956146181 -1.06518387135103 1.1608757030284007 -0.2801959943034594
Ni 1.0722061619545977 3.233519768938583 8.720734340881029 0.10286778060051961 -1.0344365628658443 0.8810211512247602
Ni 2.5962618064892866 9.037710648165122 1.6178507429059745 -0.9257046101750638 0.5775561590910312 -0.34432779178636186
Ni 3.056042251265692 1.7172078147655847 6.472980736830603 -0.47474108610531784 -0.46422913083040057 1.2702823131887024
Ni 0.06690660835601339 2.799067839795035 5.767263682516263 0.25407975683238176 -0.3991570809214158 -0.3521447167276194
Ni 4.143042888155563 4.982198615512683 11.518123288678662 -1.6309252971953203 -1.8461981084628334 0.9138801067363099
Ni 2.5995484271869325 1.1807676444859632 4.314511789014552 -0.03483870494574 -1.415350638416672 0.8011912262803105
Ni 8.06562000900036 3.8651689399408995 0.7722313281768173 1.106374743767043 0.36757364968817985 0.11713791736628858
Ni 2.181286148146604 6.999612544771807 11.736916718506237 -0.5924143071497862 0.043417190643370386 -0.3679276905934889
Ni 8.66230552847843 1.9956529420758502 12.685669541640191 0.5356929431983419 0.7547751009096162 1.190142570313318
Ni 3.8882689207417345 1.600659188487518 10.101181515393696 0.4501875651356698 1.2031826913267278 0.3810459731430018
P 8.84956799951041 1.8921852534462498 3.7064813417949782 -0.28274961396324855 -0.291336327190995 0.12297355021145917
P 1.3001908934255042 1.7182565370394776 13.67231588415108 1.0576842205398753 -0.38299024135356624 -0.23321628311981124
P 5.797570819872591 5.464095863958148 1.6245663108955808 0.5068973591228884 0.14273144956467676 -0.5726386671847558
P 4.7268815597784455 0.0618455870253076 1.4416382464759663 0.8163612491525295 0.4150107601242207 0.6401861752174265
P 1.0079625590869334 7.949249290965186 4.001608644133524 1.4662122011532297 -0.12614577729185372 0.520745063639258
P 8.047183096881655 3.9785526722138256 11.951790548835136 0.9187718876109726 0.2911748619124663 1.036597575072905
P 0.35753002307185877 5.4765400773688935 1.5536174399892146 -1.1412869822631957 0.27897394897090017 -0.05004446615190091
P 1.1933523117726768 0.4443492456034114 6.253912953765305 0.2941028341925387 0.5942603592195894 -0.26250526189191564
Ni 2.8256698039033328 6.9644803485964 5.261236458179532 0.8370465454160229 1.4002508066607562 -2.3607892366855534
Ni 4.67471699024401 0.01953994322463806 6.357368469725655 0.9400063715097166 -0.36031079747817946 -1.4101924912545005
Ni 7.200133861695147 7.312721688670922 11.41300948062272 1.5651495363510914 0.3500184144132359 1.6017137086283704
Ni 0.12486349573535963 8.155791397371678 1.8872412770121836 0.4797987031338834 -1.299199510443685 -0.1086998139012644
Ni 4.763605566548155 4.820686021741462 3.6133042404779503 0.39201352789809907 0.5570444122909246 -1.7705950771155379
Ni 5.248939253158966 3.175016047802136 2.0354837885819674 1.6176208667769303 1.0594076309888851 -0.4625792539318033
Ni 5.1879541802137545 3.9366599628085015 9.555602479584438 -1.2646667667741383 -0.4270826036870902 1.061038995944721
Ni 1.4369461506594692 5.258742933701518 5.147762835425986 -1.3218714981199042 -0.6843919232003634 -0.6463557943632481
Ni 8.951191060568966 9.148987572298532 9.670131379126088 0.5756352879192344 -0.10020977415238226 1.5722138993970407
Ni 6.6890783885987695 0.8307696946026701 2.033907896093609 -0.1203610522892766 0.6148286702892444 0.1582308307518565
Ni 2.785415723050966 6.984799342653072 7.400340561936319 0.44186207598911004 -2.2635670844065854 0.4145986122874666
Ni 5.8773111670553675 1.9534231433682032 13.633436378564852 0.7270537237349479 -0.18457461085270793 0.7209918338115842
Ni 1.6187028297535124 3.771252114877108 0.8059159130705842 -0.32460434521550546 0.25965905069237216 0.05451227211526741
Ni 5.0932320862610805 2.4720350349916473 7.661850697241562 0.41921837044766513 -1.5042832969933382 -0.8321344528263862
Ni 7.332141777921401 3.781935973042391 9.766063249130431 4.179500709692344 -0.9858432273381731 -0.8513354512348692
Ni 9.043469257079801 1.1097822555718455 1.6481522621072644 0.8754464853504601 1.6405427656804261 -0.0006502319894892027
Ni 7.095860904176664 3.1248927412650995 3.936320064428659 -0.6875271263952353 1.16894022520409 -1.009366507271094
Ni 6.102337003539219 4.11956836368548 13.229809393400366 0.8052294009054263 -1.0031601213500658 0.03446949453177935
Ni 7.8216235356691275 2.7880468923274297 7.5590534417799145 -0.25823517376165206 0.6831773340669719 0.2249977518647609
Ni 9.107375770645143 1.131355970920497 7.964132720021905 1.6367910119474778 -1.3081361508116824 -2.946570097679222
Ni 4.5465762374027365 7.263394287431037 11.227339756544213 0.43616425427338434 2.1151501544213573 0.31015654522129166
Ni 2.2470466528747206 5.842403697081507 2.819138698670831 -0.6834568129806036 0.0003237018880058941 0.905866235292898
Ni 2.0513850400598668 6.743040767745592 0.6657813355808342 -1.2644294539523513 -0.9682365700000035 -0.19520509398336058
Ni 4.0104263384667815 7.336065122856768 2.1080497517803094 1.625116146712711 -0.9237261462924543 -0.3329357478993363
P 5.5387049628722345 1.365782853502459 11.705916675361799 -0.7122901922725281 -1.031202629309579 -1.636161348783279
P 6.091877871575484 6.169754864003755 9.318883389746683 0.07185616271035367 0.668759615979745 -1.3877850700935777
P 3.1592664865102815 3.9215096713874433 2.587736256218042 -0.8991888232727223 -1.7231201714630258 -0.44307178002649505
P 3.0600405049349075 3.952821522136528 9.493904837308483 -0.9726830358071312 -1.1127243401341547 0.7637094272847685
P 8.920600206383185 2.0706084938839906 9.84974379571369 -0.1873136070504258 -0.30738129646899964 1.9227979565057596
P 5.29714302339111 3.2484921521167487 5.534203884327054 0.5756782253420278 -0.41616030034763163 0.13738766875426014
P 3.3548250998160922 8.159106108844517 9.04013300934598 -0.06831626787789526 0.7679802867459805 0.729081295687938
P 8.465894828325082 5.117493152436583 5.210899661751025 0.8279664374916257 -0.3532235516140949 0.6505070975274603
Ni 6.547819243742104 5.261065104450852 11.141083285875704 -1.2966723731464573 0.024863853121215244 1.6924188857244273
Ni 6.716841438081735 1.4637822045610471 9.447583149014308 0.22183992296206956 0.2816844059235278 0.6911868346350096
Ni 3.173976689119974 3.460156143200199 5.111527608144645 -0.12062844701805032 1.3437505575811826 -1.0930137490791048
Ni 0.888336120206826 8.751858919795488 13.245473746007468 1.3892721961620653 1.0278949050925847 0.6095052011938019
Ni 0.9214410987724325 3.5879972611060755 3.4819461575178408 0.2231918090042737 0.6908420497010812 -0.07445143424135564
Ni 3.3799663436143255 0.13599961538125863 12.165978964249314 1.078636140201194 -1.8771467343255475 0.248079830495205
Ni 3.4144243611850884 2.3340250564657032 12.273052572054594 -0.03761961012498682 2.0836235445679856 0.438836916009541
Ni 4.045755170068544 4.537568462157336 7.575306764306905 -2.1442740683705073 0.34704827604131844 -1.0017156755940555
Ni 5.291655958636635 1.6013895486425505 3.812431318592516 -0.8010061068526979 -0.019885426070017368 0.9686744288683704
Ni 5.128813734839587 7.103773139189516 7.4537607891219055 0.6458078922795781 0.32323394723054005 0.5510282880038316
Ni 6.2049806960964755 8.509922436645116 9.881387117610059 -0.5269558204356602 0.13622141636030086 -0.5611013559691176
Ni 5.012480471171337 5.4510242899014125 5.614772909378041 0.2757328163257832 1.452046708286125 2.0886652207569507
Ni 7.93766652799371 7.3855610687478155 8.690241804408423 -0.6964208293404394 -1.127173682790265 -1.4328151137500227
Ni 3.7463824152390792 2.014970031817286 0.8895318508708984 -1.8552141959185144 -1.3000544022448126 0.21255438389508555
Ni 2.179216794374012 1.0247140246940245 8.551798291585325 0.7677146917894198 0.15136212865648127 0.8015151852786325
Ni 7.25608132228898 6.196178919869161 6.5838362993361095 0.21397054751632186 0.8434290519035991 -0.7150068198727427
Ni 5.483225681864961 6.15581247591602 13.05103314555436 -1.3153756059829154 2.8742107700802046 1.4605136081065555
Ni 9.335781863743952 6.1645767977764105 12.858662835233018 0.4550379512494357 -0.9917703914558855 -0.804215357818615
Ni 3.8387167933003004 5.9994966755556085 9.532633589067839 -0.8458376613450916 0.9263378728836885 -1.9064375128698652
Ni 8.291188933804621 4.9351933850221315 3.167823872993412 -0.19526860023144435 -0.07805586376316233 -2.1568318504308595
Ni 0.6883269917511828 6.957083111128763 9.643064980867925 0.9311530348841447 0.08636206963601255 0.5249210493938185
Ni 4.835948676263295 0.2998727706279105 8.495993157585804 -0.4241338054714115 -0.853852304119452 0.45431649970237886
Ni 6.764474029218277 7.851867936960857 2.152479994544785 -0.9440067509183613 -0.5166552098406005 0.8731173229966512
Ni 7.203139574640858 1.6403608174277449 5.5972583110448575 -0.5136297927507155 -1.0155541241390447 0.8886069339918179
P 2.048229509646457 4.988369222463534 12.569290396372459 0.33356489684290297 -0.5313863454031881 0.1988473187216382
P 5.997586502842447 7.366871339652369 4.93249105244851 -0.4589647971076677 0.26898675585120124 0.5768668463334903
P 1.375174536008838 4.099193188078421 6.91566513582421 1.5681662116902284 0.7070533693536211 -1.486147763734892
P 7.011307670844059 0.43846797363705375 7.4764010175687385 -0.8614293451357616 -0.4395462833717398 -0.29557787607616837
P 9.096682548888129 5.189770717009605 8.85602606872741 -1.1295534958763516 -0.004513828709953517 -0.9679437213499331
P 8.26709641228028 9.105549870257562 0.27578212182191625 -1.2317023960329754 -0.5714929836160867 -0.057914098707964774
P 0.021333071041160095 8.003642395331644 11.523152473797483 -0.5435144961252898 -0.9352295189463635 -1.514916094116836
P 3.6098987021653186 7.578226332208689 13.353726230011704 1.7723557685603863 0.9949971259232994 -0.8418745629322857
