# total energy = -381169.5772513762 ev
CRYSTAL
PRIMVEC
9.17926680704365 0.00000000000000 0.00000000000000
0.00000000000000 9.17926680704365 0.00000000000000
0.00000000000000 0.00000000000000 13.43478482661493
PRIMCOORD
 96 1
Ni 6.298500652211579 3.7704847316874925 8.626931778850457 -2.0423822785300114 0.7384434536291283 0.5412326420696485
Ni 7.467957576764907 5.30316523596936 12.776466981754181 -0.021593667010375715 -0.056403575600709306 0.5108391173794558
Ni 1.7273819283309453 8.388950112738705 12.763998783918817 -0.6326459009763234 -0.7354509466597076 -0.15463925674585624
Ni 7.421519666988646 5.8137711203762255 7.923137213531721 -0.5633251030933136 -0.33354175691445137 1.009884584558093
Ni 6.036974167247065 6.80217619032845 5.140632551752444 0.12014842205783824 -0.9627063842103936 -0.6957937372794017
Ni 8.278037034298979 7.188494804845894 6.328347955518257 0.4618264349261788 1.41646649718867 -0.04056223769307853
Ni 7.214279364751314 5.165825048961566 10.358689463574038 1.171557865332595 0.2689790425417174 -0.4738268018211646
Ni 2.310843651815532 6.00466314878246 7.9751570353330745 -1.1364761911381136 -2.7742336807639187 -0.5599708419091001
Ni 6.399968265310371 2.8949479239627665 11.413991192721252 -0.21828100196621764 0.1331198946168417 -1.9698956813245108
Ni 3.7094426087358934 3.7399085946120376 12.275792145891876 -1.274882016744243 -1.7870318825153222 0.3524234243103027
Ni 1.3886119148494838 1.6694515767598863 13.076559237450851 0.002319135051479877 0.16188333990277928 -0.16547568523972792
Ni 1.5994504895976465 0.23672594243960624 1.8709015976200947 -1.4274137402287932 0.4451939685758204 -0.967757830591372
Ni 1.9281875646751834 5.537640422236374 12.053460211422255 0.539340310142942 0.2991331975275945 2.015012114047175
Ni 2.0939100440388185 2.683182243287068 2.5748705690044082 0.23316486105658552 -0.7566422360253421 -0.6961611479211495
Ni 5.147374723076947 5.182926022654623 11.40412990660292 1.0934338673356587 -0.664870565337984 0.21469765549033348
Ni 0.8621277350619152 4.061320614935383 0.1937486161750367 0.7322319255017776 0.8716219693980473 1.4604992099288525
Ni 7.8346325607385285 8.673094310628441 9.953361505835472 -1.6924769926558725 1.5971091199768237 1.2577011340895823
Ni 4.2232887742558285 3.096662307701321 4.407616709109779 1.1520755882382674 2.647783999078401 -1.6145797659577614
Ni 3.5484474516760294 6.598791180067009 5.835707731719042 -0.6782493006377351 1.445902285951284 1.1473049063225016
Ni 5.817764101351255 0.20623609047027813 11.204731451829883 -0.10960921308941121 0.11173885783790435 0.9821051004519794
Ni 2.3328371746113254 4.949019950917383 1.9473180742155485 0.7200423254141213 1.4543519593805339 0.06237290581026677
Ni 0.2887292415610641 3.4271709812344464 5.095048313770843 0.6289175442821426 1.033945739272355 -0.23693589806324358
Ni 1.492475316533295 7.145976441911788 2.336322542142863 -0.38138613009123995 -0.3053413832208354 -0.3358806894602731
Ni 1.7454650835511933 6.715064950206544 10.229997063638832 0.9061387722279943 0.5475503567575603 -0.7620898894034747
P 2.1197221417440657 4.2432628583975855 4.1606724070807415 0.40050253920571666 0.2343005173229255 -0.5691319395830778
Ni 6.741813333105937 1.5689294281218469 8.97694822978159 -0.2573694833272471 -1.742238894570348 1.3795953351939336
P 4.535714292568706 1.3676923662469733 8.25818778818311 -0.0031318607607623483 0.3147166537881483 0.8810206370041278
Ni 0.35001369715114783 1.2324542312927012 8.751660571463784 -2.418474507212164 -0.6751053556921147 -1.9389701953902478
P 1.2581102814655911 3.1546752726718634 7.893580892976554 0.10333340738302849 -0.02480831729293147 -0.5644170506059117
P 0.597812588901508 8.34066717037398 4.486317905164278 -1.0629292709888984 -1.8642701354731956 0.4743916731856991
P 5.436365573736376 4.767756973184266 2.0148279084200342 -0.42826453981033336 -0.22211477389001102 -0.0951956087672425
Ni 8.203152577300612 3.338921512052991 7.57591493135645 1.4081060410391169 -0.410340608342061 -2.5050065267671373
Ni 0.731645378137902 3.7215775991933393 11.403042163509722 0.5927675767241469 0.05482029027398946 -0.9595948351646054
Ni 2.4991563063045623 4.29987139557691 6.423573667322752 -0.30062546580240485 -0.7097316875167325 -2.612718522833836
Ni 9.130570599900892 7.301555831672188 9.03979591447523 0.6387008489211516 -1.8000244381202486 -2.786140973724466
Ni 1.7172296594611003 7.9979133551840995 7.127784971345551 -1.603225774397523 0.40198169485440444 -1.1273600877694583
Ni 3.8962590427676145 2.109790175272843 6.264787959735738 -0.7530434629304902 -0.17587528330649707 2.8584727905196576
Ni 7.373227545357312 4.765443797998731 5.791534347015285 -0.6748035081809798 -0.44491551810345314 -0.23575499038126493
Ni 7.66696407685373 3.5108767134443157 1.414615859226865 -0.6584314945808595 -0.7210108599749776 -0.22779408366297543
Ni 8.574710931110362 5.918194457323201 1.479572939387315 -0.110828430208493 0.4403968042974931 0.13767794630116933
Ni 1.0799315373131866 8.970511728035174 10.35764119132726 0.18048347150246982 -0.884377983512135 1.172343080238052
Ni 8.350259503980661 1.4990017750924811 5.349946450316809 -2.678834183515986 -1.402312060065159 2.3598875508068904
Ni 7.096518553421078 4.450062555837672 3.420603215975518 -0.40587357370964294 0.05255489127858045 0.7463575662698824
Ni 5.004802354101874 5.0189843210131855 6.540093441807416 1.0483655142421107 -1.1706199268993582 0.5890250789625792
Ni 6.14166370292571 1.858553648177314 6.827262208044905 0.6852439867880133 0.9457766983345907 -0.9928044891473546
Ni 6.330104867147271 6.704637303338422 2.5226359523643964 2.6324016030850603 -1.0549951037434862 -0.5523871160245714
Ni 4.188425919673848 7.169493722964719 1.9849493956068833 -2.9497860335133583 -0.4580795662892369 -0.7268601196669031
Ni 5.834341856847584 3.725864316699865 0.04164725053288731 0.17253542029998672 0.045126974245625506 -0.32544201062545236
Ni 3.6944895834294043 0.8817566787791632 2.2220728002906704 0.7385205867239668 0.02766969800112654 -1.0046073953195536
Ni 2.684825332010126 8.498174206122325 3.9816537600335886 1.2179768189167668 -0.9098275339334911 -0.13412776705606577
Ni 4.989821790995557 0.9247743938168136 4.2228885582316655 1.3322870370262732 -1.0815247746028986 0.8267857869199633
Ni 2.045259931009724 2.4013879376493024 9.83642499264675 -0.2054573678389881 1.416296033049077 0.7615077916477594
Ni 0.6689363003700608 4.889382255757001 9.162267525429339 -0.7281410432618556 -0.16669387391754517 0.12483965688592048
Ni 3.9515641240884243 7.340687045227476 11.009228677805815 -0.10279964636674553 -0.0782695224358652 0.7792494319018968
Ni 5.464197110095662 2.4368749823607128 2.35171892602658 0.2786186225140105 0.9737742119887809 0.1654360902510441
Ni 8.465431762127084 3.0412195373813726 9.734253329799024 -1.0497330840135985 0.3453096960836569 2.2043424944173133
P 9.161330322308533 1.4393181835990527 11.077651849037922 -0.2008090704336993 1.1154371110796273 0.03877043589997839
Ni 4.189876243798111 5.458698729396713 4.121281420280411 0.2466898921262138 -0.6074326349354893 -2.483444741435962
P 6.679027149498577 2.7756266373089558 4.935026158971562 -0.33401638255802474 0.654419288097673 -0.7075840450461104
Ni 0.3778929656968015 5.362353147065887 6.55672535497674 -0.35557996766141337 -0.8317986667535223 1.6241046747290608
P 6.165392107110654 7.145774498046384 11.027567016637802 0.7453946881359809 0.3166843190374804 -0.17882356730154364
P 5.1651549624990905 7.162728603473693 7.146579519728016 0.29698272684349497 0.1231589267493879 1.292013534218207
P 2.808855582434488 6.623180491447821 0.2550606095649482 -0.059525923279774906 0.02400021956933931 0.9039967861843269
Ni 2.646676299982029 1.5484872013830182 4.4922697416337245 0.8966452309152623 -0.5861475003044679 0.6852164759841877
Ni 3.4711855646258623 7.498919243037951 8.738266185627548 -0.10142462039608985 2.3232796697758697 -0.10373244259366005
Ni 1.544888928872187 6.328351627224902 4.917144947616717 -0.11284314664567663 0.24231233188380844 -1.1954241304272315
Ni 8.915197467447754 6.536151864725398 11.458931046186882 0.08110982009813773 0.4455762916159036 -0.839335855670832
Ni 8.272226558535316 8.413302707053079 1.9964087920418871 1.5419551005124992 0.7313785763625469 -1.3636308414448775
Ni 1.288383502742941 1.3002063981356715 6.4617282069108155 0.35744813121840374 0.4372204634520406 0.35148111500169144
Ni 3.173180674156138 0.48089994180596846 11.010880945795483 1.3204237099297842 0.7273913095800246 1.2569362308991
Ni 4.1845614484313485 8.300994380088746 13.258251804861281 0.3704327164035298 1.562043129511626 -0.25282531559999033
Ni 7.3212545378156655 1.5963570767503248 3.0980208391594926 2.038379328018206 -0.08607796273669047 0.20362519972625576
Ni 8.271703340338588 2.947370715568267 12.787657425677533 -0.6065831424510005 -1.893118941384088 -0.8041719061751893
Ni 5.9735454349770585 0.1553260420019835 1.547915333073261 -0.5203707110189748 -1.3060057347322411 2.662609237016692
Ni 7.2978290494288265 8.573783825182826 3.948254998475785 -0.5739177910074955 0.0336678245660904 1.650015995278184
Ni 0.6682148100145727 1.1229180428443652 3.8842516441160377 -1.4715716656929303 0.0715723129213477 -2.482821506029666
Ni 8.410760050202313 6.365353250926841 4.2464260336711375 0.24187601567733827 -0.16958713630494018 -1.8841877003327292
Ni 6.3848408339383065 8.80213644062146 6.242190441197055 0.48162907147440287 0.6801413754541255 0.9796522680361129
Ni 0.29961676968631096 4.014267694296301 2.5183767726576987 -0.15122020376197828 0.5200354391667431 1.9128125631582733
Ni 4.34932010480101 2.7684209130206843 10.100472104222165 1.488451215057088 -1.3238761872547589 0.22899401750834755
Ni 5.0135501951805015 5.924638302482904 0.061602976141425146 -0.3300162602596961 0.7173773769874483 1.2046798446975449
Ni 6.878134621520101 7.773682230453022 0.1665109783653705 -2.0034256947611557 -1.3187468364479933 -1.3151683750681156
Ni 3.139887474164341 4.76508580660097 10.258640047166375 -0.7725231689216566 0.4418947289992583 -0.8981480407130339
Ni 5.440055638913299 8.385085641496204 9.117717790794602 1.5226111487682488 0.8710943790293515 -0.7433465473577004
Ni 6.1028078673687 1.4106513339783244 13.265143598231516 -1.0128251552436556 0.7293918849498212 -0.8565545335419635
Ni 3.7237806231795623 3.8424318233708963 8.16536612630358 0.5504796145892131 -0.7905365747799418 0.9133360613073819
Ni 5.093327201281607 5.906325665597424 9.283946965675069 0.6805468384226602 -0.013127795631209648 -1.9697275311777624
Ni 3.774817345527065 8.879591092270424 6.279646438596153 0.2571249714166088 0.7674310991107299 0.3720712804482173
P 5.127171157269959 8.050060768791322 3.535444102597347 -0.32603310724223206 1.9888205432534711 2.0786710856587174
Ni 8.146791880319736 0.3592682337466068 12.697120483257049 1.1115544881957695 0.3316712793646159 -0.006677669130491726
P 8.886034937430125 1.5455957324011003 1.2544945683482027 0.2240346166205432 0.02274269301315438 0.33826924429710775
Ni 3.8860333397648956 3.3881774566782967 1.1624200987706679 -1.6875533301020096 -0.23113420377980196 -0.2299088160131331
P 8.925386453384036 7.472547210069539 13.364278759684895 1.1393334580812509 -0.44325535679221084 0.7537376607840374
P 8.237382062486553 8.889651568474175 7.591338853039994 0.0274552679974753 0.8098792409726117 0.8088461717224069
P 3.6629588026265854 1.517911064307563 13.167553307348474 0.3706923978228197 -0.6017227290349056 -0.03364211353447755
Ni 2.522260520360078 0.5339193857410717 8.597093654810388 2.008422376644799 -0.5386419985243368 -0.8938067330252025
