# total energy = -340868.10462638503 ev
CRYSTAL
PRIMVEC
9.25755664354501 0.00000000000000 0.00000000000000

0.00000000000000 9.25755664354501 0.00000000000000

0.00000000000000 0.00000000000000 13.54936991599166

PRIMCOORD
 96 1
Ni 5.21671656901118 7.326300837579314 4.201253313236826 1.4312973915539156 -0.38532351747243315 0.2207865419968907
Ni 2.994051244256771 7.496445473817344 0.21874958665103106 -0.23693461251166292 0.02144634279923403 -1.1069054194595325
Ni 1.746475118605444 5.368123910306843 1.6774118934428692 2.15420983942698 1.3148739837561483 -0.6330549634892839
Ni 8.905408586983638 8.798983714129164 2.067606803060885 1.1479605376286293 0.23778179100330663 -0.5053901784497424
Ni 0.2928637347980699 4.100236705058898 9.080069985179367 -0.6228674814333209 -0.19524160364825086 0.3554061610877105
Ni 5.510431073278224 1.5222385780451533 2.3099640852813486 -0.40504567849170886 -0.07534103593516057 0.5286905437385798
Ni 7.675227410540172 3.799162443144037 10.452282449401883 0.849885349051904 -0.6879382457907248 0.039939259397098956
Ni 3.125721474476778 0.40072167744359194 10.017631826324013 0.8479408237310234 0.08542078876866578 0.01643603406883621
Ni 3.0146215354435006 8.10799967534541 8.119866937394136 -0.9277566076080862 -0.8283207355072507 0.32924595775257487
Ni 0.6614876113403886 8.586143225977002 7.530428113281002 1.0924673896573314 1.3112710968962387 1.1540198564488318
Ni 6.659367931335219 6.171457658290485 2.6308948807544534 -1.4218796977844415 -1.333642779723219 -0.9930726552070769
Ni 0.16072322069314562 5.804793606520547 11.092150888371267 -0.5476094921302698 -0.5000970483716033 -1.081443270632686
Ni 7.870839585506688 2.2416896039572576 5.840347253371418 0.1972645476155506 0.47515786192776227 -0.9342776965560555
Ni 1.681820341986128 6.179085885085203 8.970834518083537 -1.1199455404729421 1.9626924787078521 -2.3658401688458994
Ni 8.12602413841497 7.724366521979939 10.984704907002888 -1.246821511062601 0.7099180924959257 -1.247469171948929
Ni 2.3261648096633367 4.480851894910924 10.1433290809033 1.1611127587398713 -1.4463252324213156 1.6446899550795804
Ni 0.5049876880547074 2.2042057565157327 4.43831342146222 0.6522194522328767 1.3031901196603168 -1.1141615868013135
Ni 7.814535125111688 8.160980672852904 8.523177027716129 -0.617785181814407 -0.33772494175786355 -0.8087027041660073
Ni 6.773939454164637 5.129788110755828 12.1339491159453 -0.6261142705053927 1.0925416945386925 -0.8110159256802163
Ni 3.4888306244394682 4.14603383849758 5.649261097919391 -0.5679906268897832 -0.0684111415845467 -0.22876390377541245
Ni 7.273819748138463 3.8117619779348284 3.5982521684267716 1.1073761884483637 -0.4555616849633896 1.3253486580352272
Ni 1.5868748395508898 5.752960546054976 4.479015195643846 -0.10108369211690334 -0.4727091432769537 0.538724016715182
Ni 2.8007442009308927 1.7920130404540142 2.612900967622299 -0.5195885814373116 -2.5459757700906476 0.7397853123690034
Ni 7.931856142307648 6.7267073994235504 13.290902092426505 1.5172516842285484 -0.31008378300182726 1.5533977951318023
P 7.223486411872824 1.4328846399108983 12.147741949806287 1.3481134625355684 0.5739015930575793 -1.0526728833682129
P 6.5267256576522925 7.681679927622598 6.23566436916118 -0.8220621561920488 -0.816100282181659 0.2007288520150672
P 5.742906839381354 3.8056149602264626 7.42972903930096 -0.5188918124806031 0.5023902152811541 -0.6729515425739055
P 8.234717112682924 0.9838653629397244 7.739725734449742 0.016504939633558674 0.22589352420615288 -0.1899523302248535
P 2.1743779085392956 0.9956317176194425 4.84021451164082 1.1677194654231116 -0.6355291360613894 0.06610023406318294
P 7.407795109999108 8.32372852121596 3.5186631011943 0.1884700892523722 -1.5181615976373273 -0.6498823194592679
P 3.979925497019862 6.127910111151701 9.548132982222649 -1.6285051177896017 2.2083708988504163 1.9193691333298686
P 4.146922563949392 0.08598326170712257 1.0717334632092312 0.0823326367616453 -0.4948504552606832 1.684234807251738
Ni 8.299214510836816 1.0769963842441799 10.23400222088009 -1.0722749738698567 -0.6021631590064339 -0.43131926747625715
Ni 8.380810616381295 2.47092522518399 0.6955554203265115 -3.146341985097659 -1.0705050264536273 -0.9485478333218245
Ni 3.6741761689261985 6.848981209502004 5.788344779616596 -0.6914665706589576 -1.3188854189083867 0.9810072394021104
Ni 5.559079534208136 3.4644369622985893 13.352349125618188 1.255309236818638 -0.2054987625998848 0.35813333021088645
Ni 5.234463305377049 7.160738691952188 8.163969937940301 1.0095469987130161 0.6608221063002232 -1.2093368838535818
Ni 4.426380430760287 5.7652638390284965 11.673866132854748 -0.4070832777470279 -0.9267916725916555 0.04837916263433604
Ni 6.000063251885844 0.21819783626636452 4.597084223428416 -0.19745275236695672 0.6641357440544885 0.3768869566693057
Ni 0.15732477159564406 3.8993199500518805 2.285548205004175 -0.8848294692272568 -0.02062487533920319 1.8742966664712624
Ni 7.973681783883546 1.1718400535547315 3.428166780552195 -0.8538960128731939 1.3305620839153665 -0.18699504736874248
Ni 8.86646204556934 6.334881308299188 2.368294099101937 0.9057420510102078 -0.09210719964990588 0.005139892329726632
Ni 0.6232409412193918 8.069562299554546 12.219174183751347 2.667253163546606 -0.07842224596364558 1.0198686923539984
Ni 7.603879420361898 5.474539525604528 7.4041346720444565 -0.86322191825981 -0.682197743762522 0.3974586101730704
Ni 5.492295519527188 5.99765628712052 0.4439155859130083 0.8380371914640664 -0.5189560900596353 -0.7695332330553973
Ni 5.948378312328908 0.8560851580827523 0.08755519485001488 -0.40871489981318 -0.6616618285926992 1.1739860151581136
Ni 0.8493836127226831 1.4982615059598114 8.80173876302978 0.5627874854222888 0.009778676653318644 0.5186624700786164
Ni 0.2758603802424145 1.3297091694896104 12.213944589920843 1.456069713402589 1.1772250909207016 0.15968607514114433
Ni 6.1091172708685955 2.1238871938082315 9.475182508964076 0.24477981958769454 -1.4257782615078993 0.5393655069539227
Ni 3.974852355899102 2.384237463405171 7.136100630312061 0.650024501464087 -0.4265866378872783 -0.06648641375800807
Ni 8.21839604006267 8.971794526722631 5.744702805398558 -0.52691134035097 2.0961720706569573 -0.950380258544873
Ni 2.348605127321587 7.172153259473896 10.89689142631844 0.2981471794652414 -0.09772094629225751 0.22288379084555163
Ni 1.8423186040492836 5.155098271018888 12.520851112613217 0.25241573886639757 1.4181821943281963 0.16785601254644641
Ni 1.6440495102841222 7.638789667015884 3.0704094241696347 0.7900084701906136 -0.430095165261169 -3.4509287495406564
Ni 2.696541141705947 3.6730560045546436 3.5008589679763347 -0.14745559451322346 2.596857387431863 0.11741328251486231
Ni 7.605842022401316 3.0692688931731427 8.090247384445467 1.3123435040248106 0.2269636173418801 -0.3651570698268873
P 4.493701383735038 0.3314242360942378 8.082198864572495 0.3981389240695466 0.6144111231358516 1.6482609602602902
P 3.5699083068037245 5.084481627827 0.14355693313799134 0.6328603309799746 -0.9268472084199394 1.2080988976814226
P 8.993244285804382 4.652190755974828 4.839022138326306 -0.20362699949846863 -0.8858324565704745 0.06983244741210554
P 6.355488629713077 7.727097501232902 12.32259683093892 -0.4684020312611675 0.1464538927215865 0.29880872430864025
P 1.8154994620295017 6.7750225883090325 6.771880573534606 -0.723844986989663 -0.389218224541149 0.5924091649434636
P 0.7118403884752856 1.8515021003846734 1.7768778608585216 0.1248864509634559 -1.177869666483236 3.0375048742875816
P 1.2056949387346911 8.752001613421399 9.7875500644067 -0.9554430177797609 -0.6343595412333204 -0.26673781191602447
P 5.595470989948475 2.301317527239762 4.418653148107918 0.6870561002960877 1.3379856300729474 -0.5041606769180156
Ni 4.265086018813216 6.998185252281718 2.094881416874721 -1.0124189209441725 -0.23376649919632647 0.8361895967323663
Ni 3.6086419244118604 2.8948935534822158 0.8668859495893038 0.8410700647531192 0.5919324824173612 0.26850981621478276
Ni 3.9505790419964892 2.530988253635611 9.622952556197063 -1.4428946094732118 1.1821549241221512 -0.11149717414074346
Ni 3.7050964086038207 8.993012846884639 3.3876945937789524 -0.18286482725045283 0.4409848155904792 0.22916756697173432
Ni 8.289707000013786 9.12680305760949 13.421437346184094 -1.8651345403560202 0.15552988688092567 0.1528317712234723
Ni 4.078444416375927 9.068193465573852 6.007763687623522 -0.766257647627919 1.266930108887018 -0.5993156622553099
Ni 3.6987457246460815 4.77801021030374 8.029952917074104 1.0804654801004487 -0.4627474040785514 -1.6070502903499355
Ni 4.392831044954388 8.066997956323796 11.60082123251692 -0.08278695069024453 1.555393228295276 0.49939230899509474
Ni 1.5919387231148598 8.122941372003996 5.09911597360017 -0.10760195285139533 1.9991391515706602 2.0572918486519924
Ni 8.738661474087431 4.213984305334032 12.764712747812009 -0.25613715358204275 0.510405886496779 0.66373516618196
Ni 1.1496682050433824 4.720567070423606 7.0169753152977865 -0.357538634049681 0.5057694161660321 -1.8578169236486843
Ni 5.908987408188703 5.214892830323608 9.521522135230637 -0.14267385685386397 -1.1535565436591682 -0.754166777901656
Ni 6.16120028536749 8.675247210077936 10.117057060489792 -1.1384124889288783 1.1692269032065734 -0.031558234422255325
Ni 6.386029309562321 8.066729487176895 1.4168848045112472 0.08739282489337206 1.681442074997949 -0.07197391923514056
Ni 1.4200258935299948 3.2783415557118927 0.34359422024998704 0.3500196999648166 -0.6284295489021307 -0.9452100271978432
Ni 3.490441439320877 3.303225868362626 12.014023022268717 -0.838973844345723 0.5632713670372428 -0.009858123741002377
Ni 5.369660664733935 3.9898588554552177 2.4696569399038 -1.5657084941783552 0.40122604763530256 -0.6354915979552346
Ni 1.5157490307355683 2.312954276124424 6.668363499267778 -0.7089526432588629 -1.438995788639438 -2.7920473119065723
Ni 4.869141599341618 1.46477692305144 11.697293306066783 -0.03470757868451442 -0.7686348896108439 -1.0417384958438962
Ni 5.579057341760324 5.241128746265638 5.717332838749788 -0.6996305945269886 -0.5053755231617232 0.8078380421728668
Ni 8.869702190445738 7.0085444583294 6.330496003647904 1.5439605609783023 -2.6891566484879172 -0.3355467031596221
Ni 6.088889509283085 1.0767371726540682 6.901412308136191 0.609215437867525 0.24066939696374684 0.6308744108981974
Ni 2.006408798146846 0.607197595302829 0.7005128419873997 0.10816990953972339 -1.2978491670633776 -1.6154207738018178
Ni 7.36943179466256 6.116689952322576 4.756519717972113 1.2415394367280554 0.649496653985075 0.19345597250273777
P 0.9855409807186614 3.3630574578945045 11.528535451835848 0.6898742864711731 -0.2351163283560015 -0.7986172949055471
P 7.846501468706547 6.097332401075299 9.46577960853277 1.2404390045750249 -0.26390059957754547 0.46792303474221997
P 0.9273109485114023 7.3369285127738975 0.8144298555517853 -1.1007234590185366 0.07586528386974677 0.38421820022339637
P 5.564217478226423 3.6771108144285356 11.084685594576047 -1.1712069097510798 -1.1492620300488723 0.43208674176990103
P 2.227618117636902 3.217797134307207 8.304896799194337 0.1863710406314984 0.16324448191636404 1.8774020448694633
P 2.6860801025335777 0.5000330436608561 12.103638949260121 0.1668931344125448 -0.09069900644846961 0.46162126089390826
P 7.546103008437335 4.641220551179025 1.128142533995955 -0.6875404961316739 0.16217798832506264 0.36136109311956477
P 3.7299899788113438 5.699637018946262 3.912000951342421 0.45106816796841026 -1.0223107261365878 -0.7042917474480839
