# total energy = -381175.26688806416 ev
CRYSTAL
PRIMVEC
9.16119135222430 0.00000000000000 0.00000000000000
0.00000000000000 9.16119135222430 0.00000000000000
0.00000000000000 0.00000000000000 13.40832957139345
PRIMCOORD
 96 1
Ni 4.674433836247539 0.3227203769696173 0.43372745053494804 -0.33007899517683154 -0.8134001096416765 0.1377062284359435
Ni 2.2433834141506326 0.2415100787689562 2.058111141663336 1.3345442084915662 0.9555774864750963 0.31232835606162984
Ni 6.617834034620738 2.8116704454868926 5.730170461213585 -0.45796823752235316 -0.5693126881353163 -0.46334081468817623
Ni 1.091134552815868 5.79321686502054 1.7372633122370047 0.13439541889515563 0.5625972237883538 0.23722463294825596
Ni 4.630047863413774 8.823198504032437 2.823673438594591 0.442875861965605 2.769488966990082 -1.217533303621445
Ni 8.44682927350001 3.6121478754757437 7.460274302290716 -1.6753346765486308 0.029234471385085135 -1.1606111365131044
Ni 6.099622076041829 8.473213505029678 11.799545031268778 -0.1877931177900056 -0.3879383293874609 -0.08257534890007069
Ni 9.157087289563798 3.017467451418311 9.789837044913432 0.07029576020176925 -1.2437768106990061 -0.46060927468962604
Ni 4.065416147487353 5.410086675158634 0.10118169567798005 0.9291758565531159 -1.105592871295696 0.8884346700800118
Ni 6.541649566078817 4.345345515063938 3.223630905009864 -0.26440916378284784 0.6126054373856804 -0.05125854106466011
Ni 6.719733967712581 5.232286270461476 6.597635439594136 -0.10888390488761246 0.22178772956789547 0.18669834206393007
Ni 1.3315517014384737 4.231655128507274 7.825624451682906 1.9996176338689755 1.0660976414145509 1.1797882236621875
Ni 4.929939467276174 1.3717510097552055 6.77256106239754 0.11264568592288987 1.6337614810925347 -0.7285773594683258
Ni 8.261672432025653 8.611419240049326 12.74830459081182 -2.058146483342804 1.0445481973785495 1.5708319314478496
Ni 7.799636899745332 2.449537706550682 3.6076048406092287 0.4994463021614818 -1.0224459661628713 -0.7632515138117435
Ni 1.876816658526797 6.82031468922794 7.541756687879027 1.0309264928300568 0.40337086189244725 0.6349753204404484
Ni 5.583846994402812 0.6407877847746795 9.372261691118052 0.73721138099424 -0.7703955810556925 -0.6625457738595492
Ni 7.708730396457518 7.297557799403835 6.082541034483818 0.5159116468063566 0.05330025408503723 -1.4734280021753785
Ni 8.173257772826753 0.9515729614537229 1.3855495963975621 0.23235316378856755 0.09479503089471417 0.30219486717205374
Ni 5.043831400045912 3.9808125439538484 10.034284201678362 0.9420480845300937 0.6141347295460132 -1.0527443600360966
Ni 9.609631827446641 8.17567632738364 1.8297940947783644 -2.0448991314145943 -2.4565674574291436 0.13443115722909751
Ni 8.879622282501614 2.6314423250413443 12.966512262872836 -1.8978022057923702 -1.853697502163672 1.5799822304885498
Ni 5.60477115579648 5.450350111815889 11.693820300724285 -0.5199613913956981 -0.5927081842411211 -0.8865770480459827
Ni 7.36944566913068 4.702549532971343 9.272879253451332 -0.6855769446473999 0.05464725503123492 -0.5081466581489571
P 4.195633323516073 8.797647940929574 7.515690349694525 0.33538343810888044 -1.1561510438592217 1.307301313615213
Ni 0.27199485961552794 0.37516544996888684 3.6626727627359097 -0.6402249988751619 1.1811503941170367 -0.6588672965666975
P 6.229426998452898 1.0792708098190202 3.6476960468662205 -0.6063165190531751 -0.4585122829512814 0.5137241522367345
Ni 8.477784939589853 3.6782550333639703 1.6297558138259565 -0.3438657645482788 0.12005509101308354 -0.5919525370220192
P 5.630660682984968 5.83253669895295 8.476759802260627 0.2653386175756527 -0.20194498381035542 0.26517895206933684
P 7.418091596013507 1.718053209773615 10.690662502153456 -0.2625949933922445 -0.21950536129162196 -1.0063727147500927
P 0.8386411215535367 0.5753301553640412 5.69907646113204 1.2739813593068448 -0.5099621140911411 1.9324547628692335
Ni 0.2340418754554193 0.8927645248362214 11.379206662115987 0.13073622487601358 -0.036056636513241126 -0.8651448463141359
Ni 2.0145002056307537 3.8080966005410533 0.6854146969449839 0.3101418899332723 0.17121644437824707 1.1288819237306233
Ni 0.8354603558635711 7.710086252800015 5.184222995358262 0.059370371538517104 1.5396408505570258 0.7899002267475235
Ni 2.7212036793912397 3.9666951478471746 3.3430855132604407 0.13445815381229104 -2.131749453540935 -0.08444968310464811
Ni 4.047597630013323 7.3090001275915295 12.062013167839966 -0.5155172395814154 -0.30812048862786934 -0.8186626435921965
Ni 7.59634089909433 3.8650517281174253 11.454293619915804 -0.5407263918571913 -0.07961060984479192 -0.46570751514813985
Ni 9.00590014618389 5.162697859801974 13.121821026310103 -1.765749318987462 0.22387135156980154 0.09984519172411192
Ni 4.2632520780023535 7.1208109317295625 4.01320651710972 -0.5929503821589143 -0.9695946266897946 1.222671396178959
Ni 3.3414346665515353 7.53256984503946 0.8380181605313084 -0.52393605977273 0.01945090963576005 0.9698201124370394
Ni 6.3407721199847025 6.417368842144272 4.470551519340322 0.16346842500171202 -0.5240440461055039 -0.27169824124509334
Ni 6.158400280727369 2.210888667888224 1.4664016920104421 -0.14318730615517275 -0.5134963524966446 1.4542180049058309
Ni 2.524631993303702 6.17554087003015 5.093288092376787 0.41008555490846144 -1.0557008715612592 0.38302212303276617
Ni 1.1048213729218839 1.9276795937534366 7.689381960002427 -0.0392373482340679 -0.4474377703046746 -1.3974783861219415
Ni 7.514045915819672 6.520084121279915 10.800034303035439 -0.16196972896899844 0.7175594110912674 0.3946149700766881
Ni 4.249711836960392 2.4248208118746235 13.143689706547768 0.47895666684856225 2.2422261568369644 -0.9490327433780429
Ni 9.472763626386485 2.4790642267660026 5.260543965653581 -0.9424324644527059 0.13548376686332794 0.33215361831767315
Ni 0.3417774875349012 5.360955205126128 10.34309147711183 1.007561078631239 0.20366376627367502 0.19029120162151097
Ni 2.8587498086226457 6.133985705370922 9.995574503100077 -0.1863586993363242 0.48389627024202464 0.8631825803814425
Ni 8.590421789123631 6.478290765641599 8.166276028782045 -0.33162885616245463 -0.795225752725495 0.8445341120423197
Ni 7.766729899865274 8.59885008530672 9.57907192482974 0.1204790659243796 0.4535593098213802 1.184038000077477
Ni 7.693577785710965 0.5702200427434685 5.70456035036595 0.5218264696288948 0.413123827514153 -0.20100370294300868
Ni 3.3477467274973485 4.1776957105525 11.526953778086382 1.6414683628184894 0.6210031745310725 1.3925601228847178
Ni 0.3891564216328141 4.2470367690414115 3.533402853908636 0.4735313820679329 -0.8578953638405741 0.10352701145107332
Ni 6.4942862060064614 8.164966894516215 7.657255493638454 -1.5100284270072317 0.6543912630732148 0.970662920053309
Ni 8.759070163508936 6.249948067420418 4.072846789915726 -1.1130601262070186 0.3219746209021423 -0.690741776677791
P 0.852713627821844 2.2271222992321733 2.001796381373048 1.2408876620766696 -0.6945922607721328 0.053865639670204
Ni 1.244355480709519 3.5858094499035915 11.935612544191544 -0.2966435983365214 1.1724263839804776 -0.9765456040863312
P 0.8526971376771378 0.6250671801549182 9.247952567489847 0.03369019316359359 -0.23025925737401637 0.9894849378558185
Ni 7.872944754155198 6.0412011578249185 1.9633147964631958 0.04459784121503287 0.1726377502058059 -0.6661998256723689
P 6.586795917807363 8.565347607978943 0.9196599508517778 0.02825333841873844 -0.6358078436440727 0.3041010830558311
P 3.5482302423568197 3.458578822304965 6.66305459200046 1.0835780575875016 -1.2567254004398745 -0.04695091482824172
P 2.126990476100478 3.7940616551579094 9.891298156932264 -0.1329355465201775 1.1575659219288774 -1.869477133595432
Ni 1.3768721158055823 8.426812070065173 13.185617731701182 1.3104750833575043 -0.16018178383064025 -0.9420043757763519
Ni 2.4105018695548766 1.865108655785506 10.86247698432232 -0.4711590251810143 -1.4203313794607153 -0.7770141148134748
Ni 3.6176995575267785 4.957194011998663 8.198885289938245 0.4605100301076005 -0.210991667393656 -0.42115158291463595
Ni 4.649268043187816 6.814671395261873 6.642004006164045 -0.040264246836685495 -0.5251444782585343 -0.3599811820529026
Ni 6.675100642708224 4.029376020113145 0.1858017893561908 -1.0393535405514875 0.9907010696511066 -0.20538049185446566
Ni 7.733309873261026 1.435430451895042 8.104490204925952 -0.5887736250734054 0.37946474469881103 0.49948024072321073
Ni 5.65457139280873 8.779481298178416 5.1992812458323305 -0.7820719889523563 -0.6766801563784023 0.01958383566919853
Ni 3.388550674453302 5.722501627806125 2.377887111683774 0.007241769164077851 1.499964100792694 -0.5427585917958717
Ni 4.600402247708909 2.471002378243048 4.220620473341481 0.4718465381663422 -0.4394339261635916 0.37211396076069464
Ni 4.682495684770494 4.68499669005091 5.112958086653646 -0.5929125869424434 0.10926571370706344 0.3203656245438095
Ni 4.661397460738263 1.9421634375202443 10.950797283248738 0.9030747885906898 -0.471232301621111 0.9256341619484446
Ni 3.8469400525152877 2.284233167064103 1.9128457924712006 -1.3560468584500325 -0.44549375920442635 1.1552971804993586
Ni 5.258697985565655 7.342530088493817 9.999423119650638 -0.24315205417628447 -0.2626065633564703 -1.3460522091311657
Ni 6.406686892851358 1.421349700554382 12.55502360471229 1.234770236325022 1.3958228527963896 0.7575590914126565
Ni 3.817514305406504 2.1362524407103725 8.797057960196758 -1.3189437829501478 0.8005037132949827 -1.085508698951311
Ni 0.9951985553927104 7.737963758544731 9.715058819267275 -1.3524015483879612 -1.3222098552959294 0.9285459362786008
Ni -0.11313521835156065 8.637455346301868 7.5136529007041775 1.4817236665252675 0.9552077618405034 -0.4729947928381725
Ni 1.885254115901389 5.9418388747795055 12.607169106749398 0.8109452203432808 0.6790843949445208 -0.5461961567225109
Ni 2.434174388399552 1.4405973639029357 4.2101354896658885 -0.04091165061269728 0.4968530875130088 0.19266124451558433
Ni 3.100770165758339 8.532889506482547 5.711694170189615 -0.3839472059501968 0.6539410629096738 -0.3560378811344384
Ni 1.9125178218153802 3.9479971559888223 5.414699335080574 1.0647282718708502 0.14981432455338714 1.3140021226741563
Ni 7.338966384999011 8.214080042165714 3.2936627173381283 -0.12333247621277468 0.7293525470714536 -0.8180540634739202
Ni 0.4095144213915747 5.745551185628572 6.188172320874979 -1.022343379146736 -2.1914576680348454 0.22041450336945267
Ni 2.971872201306102 8.761113109214184 9.30232332294312 1.3233321418258304 0.9455560976833521 0.3216671169640525
Ni 2.0871301318693702 1.5747721746611065 -0.11772131081814133 -0.8252683218341722 -0.32553122790514905 0.4130299822487661
P 0.14302635398871485 7.152206335011569 11.87780909028196 1.5559861246842688 -2.114747776776616 -1.2946550856061123
Ni 6.581198429798811 6.4994439568228515 13.364524808331947 1.0577436130229008 1.0851762553125568 -0.111652211661369
P 4.8865245807417645 4.227560075905274 1.8539567373684693 0.11408730346542287 -0.4593589472222927 -0.6617685293738925
Ni 5.908235624345191 3.3356997606704337 7.869053996123721 -0.7563756126275166 -0.2585773875924192 0.46582887121735256
P 8.0789707898742 4.197483884199752 5.209028753591902 0.8413284606208283 1.3402332884565433 -0.3093857284935381
P 1.9388745697705392 7.40642023803823 3.3574319391546976 0.35116898307791133 0.19359686895597625 -1.6633427942940773
P 3.2182624467888967 0.09021574944846136 12.051179142768094 0.13696292251201572 0.7338257523514587 -0.020637987965325746
Ni 5.581694114399523 6.687285027407689 2.031992584687264 -0.04769113542837593 -0.07700094013608673 0.24524698903210018
