# total energy = -340874.4089524519 ev
CRYSTAL
PRIMVEC
9.18408875408631 0.00000000000000 0.00000000000000
0.00000000000000 9.18408875408631 0.00000000000000
0.00000000000000 0.00000000000000 13.44184223352222
PRIMCOORD
 96 1
Ni 2.3004580327283572 1.9294024902831968 9.152321628369801 -1.478475591901615 -1.1381525503992722 1.1400127435364624
Ni 7.455248105753575 1.1835442972963062 1.4057211735663444 0.4308644393270257 0.44023405346738376 0.5016592506524007
Ni 4.031842391467073 3.9894210868149718 10.576175866215234 0.570925798258707 -0.5534096437518146 -0.19076325616192308
Ni 6.302984813792852 2.35851984004825 11.175990521138305 -1.5470276299394004 0.8513992145932691 -0.33860811569376525
Ni 1.2413397660505112 7.903945932140902 13.077997793918417 0.14443146297491902 0.46482691231539947 0.003582575144935766
Ni 7.376604756167963 3.6209462732304396 5.9355808649241535 0.4178243183136159 0.07544413717192813 -1.9467963763028862
Ni 3.837644840726939 5.581427718902836 6.340005874423426 -1.113854597083856 -1.6087356484721587 -0.7158555410262832
Ni 4.330159953214108 8.52851905276675 12.936226693811763 -0.9737310174556714 0.841845509466563 0.19663642711324844
Ni 6.395918605040873 7.956800361297179 0.356349979983817 0.057401934958236624 -1.9217556312841741 1.4268300998111814
Ni 1.763326618444282 3.7235600937279343 2.2177158244576978 -0.31419883361146533 0.11517410877169841 -1.362494413847589
Ni 4.662421905953601 2.701031235522479 0.02283348075905048 1.91099839276767 -1.7658362222743136 0.11599480490078087
Ni 3.378229183092806 0.6079058368668901 5.135576959941824 0.940379181468103 0.3027831355753559 1.04074605002364
Ni 0.9700601607650019 2.527093783951545 7.080584134947772 -0.09033776645430894 1.6814094219878009 0.9565210813352882
Ni 3.538124163390074 5.947578958103955 2.8997547050616075 1.0250538360993637 -1.1589334917003653 1.0496873183773276
Ni 0.9551268329095534 1.1529153622422343 5.246901888354998 -0.34871023712477367 -0.6281251302878343 -2.5881151224628587
Ni 8.278592453178609 6.649959676264467 12.655400228559627 -0.29156952624772364 0.7470111406934812 -0.3707921566254776
Ni 5.836350462619738 4.837277766371734 7.238848939541263 -0.28003735723840806 -1.252205401082334 1.5457227950850476
Ni 5.2559987279864995 8.770354470411075 10.648599751087618 1.9402632031700584 0.34477902039116753 0.02288873167271542
Ni 0.7844579984257988 0.616365300758436 1.0913498251702791 0.635850266846234 -0.7770387974038231 0.21932461273938358
Ni 3.0546278257823944 8.85252450996993 10.875566129495798 -2.5939947211720873 0.18545984167113866 -0.1871066332459423
Ni 5.9379448492968425 1.6249683256138197 6.241087731127059 0.021117755815221694 0.06801904835245061 0.5804774465028841
Ni 8.364564705364865 8.834174701202903 3.7406902555458816 0.19210640045337884 3.5340928810646624 -0.07065751441656219
Ni 7.2447304297987225 5.735270384897065 1.0303683961251422 0.6957934801690855 -1.607097598648103 0.3776289770416529
Ni 8.837572813937538 5.471944200228296 5.874447898419229 1.247568930751587 0.820505096117574 0.7277836599224369
P 0.6717205572056345 3.557052569730836 9.168344189118027 1.567883904563119 -0.31985320368376524 -0.5409297661172491
P 4.527728064423461 6.83069335330467 4.70960424206958 0.7010501005823346 -0.03254039582986654 0.22530217047905715
P 5.846783587123914 3.7503684479776602 9.096174703496317 0.16669258836596454 0.051128186134382914 1.568087535933493
P 1.4940491444456656 2.999716160808393 0.05044085070583905 0.07246114328420424 0.5757407031488471 0.48687463614405835
P 0.5742287028489663 8.029391396579753 5.340793580030648 -0.7411989048870784 -0.2680462463148029 1.8524253203194678
P 6.584008736947139 8.891217074702405 2.653365816352874 -2.1382654002825823 -0.48821598066330113 0.33391662375536685
P 0.40492646072984295 1.8006599380829031 2.7129668769006714 -0.4151933084486721 1.1554727868452745 2.753547098948845
P 5.182911751926438 6.020996561349008 1.0389748054322399 0.9508831663232205 -1.1628161145842233 -0.031146857916449583
Ni 5.188119130090055 1.924048166704029 3.9403284602968203 -2.09730489870982 0.27894489550517765 -0.3261272096179351
Ni 7.66350649594432 8.429009454172789 6.4198771366377425 0.47816399574393775 0.0015470327721457226 -0.7653600755143142
Ni 7.530263740392754 2.590932382920316 7.955231718986163 -1.524713539823232 0.8271907356678658 2.041862915691432
Ni 8.851762230626754 0.7356252816114043 8.212602022280851 1.1712264501351055 -1.8122325501506662 2.321871476574433
Ni 2.6228746426258818 7.470989633394559 5.820075339438533 -0.14127080585875024 1.3800123681266945 0.2368040004710696
Ni 4.091254259792348 8.361616612965358 3.24783165814986 0.21452847690232085 -0.07259586908985562 -0.6039572747923792
Ni 5.589950553004838 6.1675470610964815 9.592582032677914 -0.597468581744242 -0.6966139191878519 -1.414470035583932
Ni 1.5674116431598863 8.072914791848492 3.53384713338867 0.8961613493003081 0.38643629092063775 -1.8276460564922588
Ni 4.505024997720713 2.0879657777520273 8.594982464220816 1.0409612513582396 0.12449332929009527 0.2436271940404901
Ni 6.064630165679411 9.193088878688098 8.352746620319113 0.5999273276973798 1.1171124418995213 -0.3505318637145447
Ni 6.320976443109473 0.7213375951755364 12.82195826504332 -0.07643889698502965 1.8166630751181938 -1.0738505458870924
Ni 6.058724796791925 3.680220380228634 2.078122271727753 0.7673747919514977 0.4309891378303481 -0.35860975562667274
Ni 3.769351958849254 8.213991574866661 8.727774281028408 -1.3096495021324155 -0.8829679905384858 0.7099990822455063
Ni 8.264485693285637 2.7496517998931704 10.259324813931732 0.7728859515777141 0.033340523133658706 -0.06824864786475342
Ni 3.8270923230726273 4.570994305214985 12.98992697751631 -1.1195480479242073 1.9733281040448276 0.23731976376522357
Ni 8.505540463409844 6.726729471801794 3.9540118337112315 -0.021948736356949296 -2.9981896216277266 -0.5984666839914531
Ni -0.09654221960866492 7.220162993136161 8.203717335093053 1.1054383479957026 0.8526024908727511 -0.13719586445842824
Ni 1.5571622004251504 5.4404886972117446 9.861311216594753 -0.283894269090653 -0.37449840183247113 0.09455977495545649
Ni 3.015880156519087 3.5012316799981082 4.089707659293666 -0.4090337166051794 -0.3451906540072894 1.439921642887817
Ni 4.922120375675936 0.9169246985014823 1.5445754071742943 -0.3185478546087804 -0.7095738217826296 0.667995741230527
Ni 6.122003166363905 6.691021735822714 2.960135494720677 -0.06748528733616764 0.15932894891204172 0.637705831997734
Ni 8.554436550434694 3.361330460304352 1.4490168034409787 0.23165048129458815 0.9701214457275422 0.043202760639719145
Ni 1.6776390730006567 5.813913734482678 4.3497128775709655 -0.39549814401258987 -0.7936455527225686 0.806075036735173
Ni 2.070396616505119 0.3265577153895431 7.197649118655936 -0.9566979732327847 -0.5161011371093434 0.7458731704342961
P 6.295141602237777 7.070021514796142 11.530519296378126 0.5239520006123299 0.3434518169393117 1.0631529569639304
P 3.690175932132267 5.953511879256858 8.465322421582172 0.4531296784831293 1.8140109822073274 0.8326692422839337
P 1.8392147414882987 6.380939356743066 11.711231850014844 0.8027475150238368 0.22205486718635306 0.31168249494751477
P 7.18065304452968 6.491515781945771 7.457063800044487 -0.1905323710980396 1.3678037418756444 0.8958258203377603
P 4.08224466900133 2.991946421961093 2.2906246292014023 -0.7800205057399663 -0.8388126361775102 -0.5855106380514175
P 2.8486562736211742 8.731496592086105 1.2220945086574655 -0.008438360575340306 2.06180207781752 0.21754746623430277
P 8.297741277642698 1.4439223895655684 6.361432352828569 -1.1655237433233734 0.4208785317589074 -2.505596337832336
P 7.706671711762652 4.389259562531335 3.5329057643202915 -1.101372148346129 0.9947155901271384 0.0822724729476712
Ni 1.2679093339999654 3.1162622435178893 11.32256030747157 1.757646744484986 0.29165874352742027 -0.8259841169542743
Ni 5.168125369486542 7.5485768128058925 6.945964684534255 0.037876206220483155 -0.7732947569803585 -0.9118800455871457
Ni 3.316117192756767 6.734370633410485 0.8259636494572431 -1.337439270651174 0.5590691560304372 -1.7617646233081012
Ni 7.455725678354119 7.759076120583802 9.74542914348178 -2.582612704587391 1.1496417819857945 -0.9407177957544444
Ni 5.891179470797492 8.989854184891529 4.834681424560705 0.14365807514400422 -1.425238072733713 -0.9232003556959714
Ni 0.4122939365020698 3.705348046287987 4.4964709377179055 -0.5230809108612863 -1.6957250672795248 -1.139490038263773
Ni 4.085238681843197 6.410677435215355 11.651791511015308 -0.7909484655063798 0.8507137584904704 -1.0287194578764092
Ni 0.1297353521641151 7.442050570619333 10.730797342911888 3.7494078584240205 0.86983196737716 0.13609131854033982
Ni 7.366309392990868 2.197348271453375 3.820521107770922 2.4312523757031226 -0.5379074343511575 0.15521184141987462
Ni 1.674332801150742 5.815970970300403 7.554853218867647 -0.4090406585837149 0.3917818715032672 -1.4775510232048166
Ni 6.582419889641485 6.074356115371244 5.468827120600904 -0.10699080162995768 1.0705389650153563 -2.1696644834191536
Ni 8.00306061493057 5.627201215847212 10.30846795293648 0.13694543901051898 -1.6112977527723797 0.5105619524586691
Ni 8.488338665701814 4.9063788480349535 8.124128024394825 0.09638860063407917 -1.2157533289028868 0.19076788414761336
Ni 2.304260245355759 0.978316656301317 12.730943029877094 1.087987499509107 1.3212750021864859 0.19264890322041014
Ni 5.0793427862278575 4.420705881459414 4.560844050635747 1.456653353820201 0.427216043941161 -0.7726818059867079
Ni 4.077285261226458 3.1194032017753086 6.278859131785794 -0.500284481792061 -0.7840975040228173 0.11493525328801496
Ni 8.684244456897739 4.295444098790003 12.254430273143514 -0.518111739781469 0.7457055345081803 0.5854695004008369
Ni 1.5248066567383454 5.395413190991241 0.137172627008729 -1.4151359513027046 -1.8234428170441885 0.022109944525161924
Ni 6.06947936439262 5.002095418089987 11.78832033342215 0.5476074352477408 -1.7749929490729173 1.113278927086044
Ni 8.89619485065422 1.951536143500682 12.74376677261053 -1.1208518543372954 -0.6157771502454428 0.7167988787761591
Ni 2.992056631022757 4.0250461659978045 8.340703525105798 -0.3794704011257658 -1.4589179814846618 -0.6448720107288701
Ni 8.9832416411917 7.552755573060646 1.6642881635889313 -0.2914178311612078 -0.5682955597247116 -0.188105763934418
Ni 2.686841818833261 1.1058101724694205 2.9940624359450387 -0.9176115487542842 1.045223626179019 -1.3812387843346277
Ni 0.5049567971401681 0.7878055986738375 10.969080355135247 0.05723944123844335 -1.5497296022515954 -1.7572855044908253
P 1.8538449944241717 4.223018377099924 5.974226590805421 1.0843038800099327 0.22108581840486438 0.638711390444113
P 4.352945676713104 1.5096069903172091 11.611896749101849 -1.5011630061968018 -0.8555332913663007 0.11689494811754707
P 1.369687402446509 6.007762289860876 2.22828119983587 -0.13423241095473012 0.501142201806666 0.021472053830846893
P 4.165489246911407 0.45681288696117256 7.221078646756818 1.428572793533901 0.6706925713363998 -1.7428053085967792
P 7.057071950050642 3.173286248840448 13.17719880713972 -1.083877076885159 0.391203630402294 0.6339497073894115
P 8.305814091409573 8.926033954099703 13.334092427324345 1.0590700451438084 -0.5858011727086426 -0.7476755137503575
P 7.4032937172675535 0.6824604302647744 9.967300189605702 -0.057836708502810065 1.372190300979114 0.5206843856046516
P 1.393428271146592 8.68882731704526 9.1514206692907 0.739780427272997 0.2878643094819946 0.9472679381681363
