# total energy = -381173.2528083712 ev
CRYSTAL
PRIMVEC
9.20880285207122 0.00000000000000 0.00000000000000
0.00000000000000 9.20880285207122 0.00000000000000
0.00000000000000 0.00000000000000 13.47801381406437
PRIMCOORD
 96 1
Ni 3.8492702926889306 4.683643064249085 4.169854497065786 -0.7851334014864995 0.5251863872400633 -1.4462383291344643
Ni 7.263673298538301 3.116663999049788 5.93915371880006 -0.8119785467038017 0.5949643272651496 -0.0890046494651822
Ni 1.8919116661804694 9.152942038362482 4.384425123746299 -0.8583144536558638 1.2029672328818122 0.4534844907193867
Ni 2.7312295647556986 3.043969711047936 6.585316982103074 -0.1162064066909547 2.6490883197121216 1.0393193448794424
Ni 8.817207511890283 7.4368356232896105 13.55079451723109 1.3774356085384536 -0.24627620162756297 0.007252310687039122
Ni 1.4459109369550158 3.908142167935427 1.152082908634581 -0.1548732271335333 1.0403025347283181 -0.7564026092107101
Ni 8.42913936004254 4.013619793318404 2.3087702185867354 -0.43915444724995983 0.20388359559396502 0.4267938688020778
Ni 5.475600090871753 6.644169518864037 8.504545640420446 -0.8148455838389514 -0.9715784898890428 0.731636972230256
Ni 3.695906893603188 7.468504695551882 9.874531841409198 0.1707050519594673 0.20289140688402477 0.18783399833027004
Ni 2.789530494238816 7.0853080002981335 3.8423121214178133 -1.1701913240023716 -1.3660759605512605 0.01973527364539827
Ni 5.8450940878044015 3.986251231886746 2.966578012821894 -0.04662592738865519 0.011635013135767059 -0.0718492207318182
Ni 9.070320661119942 4.859917964291075 5.815627761132458 -0.8836061383431169 1.1157790678000785 -1.3158857128501145
Ni 4.618988060947717 3.9644724136546228 9.318820200229391 0.03144099211810069 0.8113720234680543 -1.595556173667407
Ni 3.8387630488822273 9.041754955345715 7.807449410622694 -0.39382538429585723 -1.397633166532251 0.39614374801638874
Ni 3.111718872034714 6.483650880130785 7.8080157519847555 -0.43375975859694976 0.19361923755347946 -0.5273864802151755
Ni 6.329246886347271 8.786763210378485 7.978458717317906 -2.3447573800336716 -0.16165631149363774 0.11874845638651806
Ni 0.8908733801281011 8.251464722000009 2.233980927985387 1.8800934756586973 1.5949715048085307 -0.4297146419932987
Ni 2.3026979341291196 2.2149656714240713 13.299942129048361 0.7902159582157294 -0.9783433194167022 -0.12804865074152139
Ni 2.2858458253068 5.5694838337370784 5.757941979665367 -0.5709581941585392 -0.049329442362747306 0.06508541964542339
Ni 2.7207131121463606 5.196426030184627 12.307596031803307 0.6024279826320463 -1.0590664455993826 0.7755794392494773
Ni 1.6451802171769683 1.2758611874943862 7.933981121470408 0.729965240954788 1.713506816742978 0.17148820998239497
Ni 0.3270736475938437 7.301503059763486 4.829536282637197 0.5433926258354449 -0.6648780215371517 -0.05803596899780973
Ni 5.460930468273962 4.058614002993734 11.61334348025929 -0.259796604711501 0.3641335136583793 0.5376822057142288
Ni 9.140823254094629 5.42573442460243 10.407506028002564 -0.3835057475374041 -0.6258792716764512 0.5988922015646461
P 0.25533431242525584 0.8268224742795977 5.9927692095024145 0.6621968751605628 0.2640623219663904 -1.035265486525043
Ni 1.5172239045615965 4.172738694051114 3.620288810764676 -1.3343112665451535 1.2257760032462115 -0.08145871879712423
P 8.38473451373586 0.46360611810332797 1.580836471404667 0.8306262437119758 0.7053731534377207 -0.6068950172644645
Ni 5.778578906370733 6.3994363800323635 3.061342117219141 0.8524196854379835 -0.23033716179980332 0.5016947318760263
P 2.7126646186432413 8.814140980612779 0.2305672377380272 0.43461747861155475 2.705905585811482 0.018662352296193663
P 2.1580828975467665 3.3278034258684452 9.003151654699177 0.5481334829545399 -1.5753403608411645 -0.21911198250794522
P 1.0743265418241879 6.830132079278202 9.40501183025358 0.41037866066884804 1.890239305843448 -0.8819619178714745
Ni 5.021072010406153 1.7665522359082093 7.618177206541458 0.9673834779710888 1.7168970733714495 0.3184645508663547
Ni 0.37975720746952135 6.773728163137925 7.2643658004964635 -0.8315572401666774 0.23107866795151819 -0.5358361536444255
Ni 4.45134180897486 8.661790549816901 3.8757373123426073 1.1401366707088365 0.15584304724597034 3.083781388756618
Ni 4.614567835682846 0.9612700718724847 0.45453544750770786 -0.8289935932045595 -1.0406846006580852 1.7540639122297337
Ni 3.1051345781505835 0.5562033912405244 2.512274627140592 -0.37527873164192144 0.5791227322472026 -2.140281916491978
Ni 7.643665330475018 1.6507147075606916 7.834971759058359 0.2230509125510352 0.3409606750863418 -0.14211104237185848
Ni 2.137169706762347 7.419292854269655 11.687203602674751 -1.0691377137924556 0.5508814780133223 -0.6212348309259043
Ni 6.850455906693972 6.485032200526057 6.699597301924989 0.8630069740355266 0.08967339339743266 1.657235652955075
Ni 4.49039634095052 5.32568999277419 0.8655970586551489 0.435643605883224 -1.175116272107815 0.9519468317010444
Ni 7.8030512864841475 7.139501803805974 9.033004751081798 -0.40880103176908306 -0.9026140469041875 -0.297720633450784
Ni 4.121574586610236 7.380560630386225 1.8868136730416518 -1.1780079918333133 1.5471345878309095 0.3634917663093224
Ni 2.0684075774857025 6.926796880539342 0.5114983379679384 -1.1779357438344809 -1.9877825889072605 0.27188053245922855
Ni 4.294948713822153 7.2221231810485165 13.129000046612385 1.3960905046354795 1.193551595994867 -2.911596666927831
Ni 0.40483369792529095 0.5302097040422942 12.892811755745864 1.0266525480450515 -0.9364430796384904 -0.11688903458027611
Ni 8.641521975216943 2.4004862093117483 4.140014293006855 0.8827407050190281 0.8078802082647119 0.92658881255223
Ni 5.643191090028798 8.382726994761398 11.117959626022596 0.39681711993432944 -0.6488693048137212 0.779574162231167
Ni 8.53945160680897 0.03127585638975073 3.859833710191708 1.171967442066188 2.490059675649318 1.2507113330353106
Ni 2.2400964938153884 9.357708973757617 9.878197865738251 -0.7052001181949662 0.015212446074380251 0.2652321739047755
Ni 7.921936928503899 7.747080184067722 2.406877118340541 1.0040165558130902 -4.8755536141704034 -0.6962264539414461
Ni 3.7916784410087194 2.9464116559311853 1.7527887594897182 -0.0931235567295622 0.011750455667708796 1.3093358275467386
Ni 8.855709515707833 7.86164689765159 11.167814241728756 1.697661365070289 1.6981547597669397 -1.1013973451571097
Ni 4.589354134067812 6.428812460438483 5.349989260287552 -0.17161470825793024 2.6244514950000477 1.3444105597626848
Ni 7.577490874738849 5.461740842905855 0.34485216196125906 1.6030038881947037 0.8094056437703029 0.9169350915125499
Ni 4.892204026329901 2.8590201189236377 4.935662207725689 0.7951882146193402 0.11590455917981973 1.2425776481845825
Ni 1.7330506119215436 8.556349759644466 6.709678178169685 0.691893373783731 -0.6202832656459124 -0.8716291684868988
P 4.928652467159814 6.063517677507461 10.975551018551624 0.14504981328520825 0.8588978369631596 -0.38202427789587107
Ni 9.128253238497653 2.920046853986759 9.616010362391918 -0.48391349663320526 -0.3851710510549689 -1.8424550964806334
P 5.276800459584193 8.488434840210255 6.078435937776399 -0.2693317978954458 0.028005741184306605 -0.4527707524818138
Ni 6.706973552835742 2.6471439878941685 9.989243133194437 -0.7567522792406451 0.13649061086128753 -1.104725381089078
P 5.032914530594952 1.6424636203995995 3.2014328690668457 -0.03786617891815414 -0.49235931340771333 -0.7283868407240746
P 0.4912058204811279 5.127175834368319 12.644789232612915 -0.2545397271879358 0.24431059326075993 0.4968263480401315
P 8.196027730136423 5.820755222439708 3.8441317808185183 0.4203972212471147 -0.4197958402176899 -0.26723557748804944
Ni 7.0703529048186535 2.1319022716550426 2.2914235970629084 -0.4360302997986813 -1.81082101451512 0.7533016016878833
Ni 1.1737079398626975 4.798458415504102 7.829782598773453 0.147458679837017 -1.110413689723107 0.5057066812488968
Ni 6.9424058010059175 8.927528967459347 13.366820137305854 -0.4291700823437383 0.0528143155875542 0.1427710445533606
Ni 3.470337273055255 1.2117495035484909 5.845522297126936 0.8270580667447434 -3.391995465539558 -0.15453049908213387
Ni 1.125416978843985 1.9254317077724055 2.4455181750778823 -0.9410700368875405 -0.4447108582918147 -0.682610148709592
Ni 7.9764069960907955 8.723968385209417 6.619322327593883 1.554445005449394 -0.3951803556618549 -0.8638675222636091
Ni 2.7575851578974904 2.4657950376002127 4.094378229787855 0.11483240916156351 -1.1790109791765306 -0.14230310377800653
Ni 5.4168295124542425 1.718951935087133 12.08737856734692 -0.1255593086607644 0.5937438245944872 -1.5959855478953415
Ni 4.935466981109823 4.51639279078954 6.613148746307281 -0.3196729693521591 -0.21371883651683193 1.5263446476687519
Ni 7.353459124230987 0.2381589746304426 9.814541096642532 0.9243678936415113 0.4957508555877655 1.0311684336375337
Ni 7.787626542070275 4.078495807883017 11.844465087915955 0.8347785753174526 -1.16460483105353 0.5648196853609692
Ni 7.295572590866451 6.588493098131937 11.884574948673599 -2.2753172829639783 -0.58945471030083 -0.4600749994527109
Ni 0.29186471159862165 8.712586305152374 8.632748748946439 -0.43401764024402667 0.7499429696282955 0.9124863117125769
Ni 6.476053617956789 5.147333903336657 4.996973494790235 0.8469704893979542 -1.4270614990956971 -1.230747231208558
Ni 6.451272730065607 3.7277785595234323 0.7020901634667912 -1.8159495939909371 -1.9550930690940391 -0.925327172230987
Ni 6.190654406688304 8.893530068130383 2.408682964537293 -2.437905619353582 2.6435316515599507 -0.5622724934590833
Ni 0.4769745368887713 5.941123481683718 2.07843135915406 -0.47091605593227287 0.2773256147341998 0.6941860264726496
Ni 1.0794926801025055 3.246710709863338 11.470018596926122 -0.6919070006304858 0.3067652601515556 1.5396979290472064
Ni 6.5887233181978155 1.3026680119653 4.897492641683266 -0.2094623752333231 -2.6184993911816714 -0.3762886609636745
Ni 0.3011858616259177 2.8103792234047895 6.678166576432474 -0.08107202488166683 0.05265773540503189 0.16627812653636526
Ni 8.44845942797108 2.304493650642973 0.39184099828736163 0.7724650619902115 0.9707148563371669 0.2518452110749082
Ni 7.041538561373278 7.753194829017461 4.788670379183204 -1.6012179999388747 -0.4545288728235011 -1.3185326635546581
Ni 3.306604762202336 3.0572948484609936 10.94038628480905 0.09100213951118521 -1.1088733418191805 0.7795772475549606
Ni 2.377390532302799 5.289886168128737 9.929023089242154 1.2467063256409756 -0.44889944245186564 0.5139547801903019
Ni 3.539569051266292 0.24888446705959869 11.763327248777934 0.24145923985489384 0.27833425850437227 0.53255774000347
P 6.288120373778702 7.069883255884262 1.0349349676720818 -0.8452835886138345 -0.04151688829686399 -1.1745192619537643
Ni 7.624833329086142 1.5221598227740356 11.815675608237692 1.315071444478935 0.10471357556000677 0.2982435958337896
P 2.676363518655491 5.602129039078676 2.1755667302298574 0.11775163969088753 -0.7616582011826948 1.1381049849907883
Ni 6.748035603785864 5.095829070198278 9.942986396677828 -0.2143389865993341 0.5323821336575542 -0.416668864552934
P 0.19975918852214194 0.8943386525597071 10.64866891405259 0.40865319333730915 0.023589614394481956 -0.2824814479035264
P 4.182490816041735 3.54475360714988 13.248766050164056 -0.381022318993918 -1.6397840331375308 -1.166806723800855
P 5.046654064126591 0.6032576100653366 9.637318610809386 -0.30735481410643845 0.6621796487693822 -0.3362779248986918
Ni 7.590392407230691 4.215163647791238 7.858719419293877 0.29339552371286887 0.5611211534634594 0.8104973341725848
