# total energy = -340891.0981003065 ev
CRYSTAL
PRIMVEC
9.09927673409022 0.00000000000000 0.00000000000000
0.00000000000000 9.09927673409022 0.00000000000000
0.00000000000000 0.00000000000000 13.31771126932838
PRIMCOORD
 96 1
Ni 6.423042941585781 2.0686386668976575 11.714578085093532 0.2272911758846279 0.39650601645181394 -1.6085731547523652
Ni 4.581858894648627 0.5408610077390209 6.122910578674182 -0.2557265484071854 -0.47232759156781884 -0.19447027269986505
Ni 2.9299762004201293 1.6722741733392499 4.76592907317577 -1.43451744115311 0.2141314985742183 1.076284609249882
Ni 3.056883812717171 4.262437884963724 4.739040710492916 1.6458580072457525 -0.014825495048606727 -1.0284579766849062
Ni 4.864637117015813 4.228998043048501 2.634482648776118 0.22724489602772474 0.9471722931305365 0.5450139634889517
Ni 6.931237545930067 5.9564775281971825 2.888891146211798 0.5894536818595655 0.4463363097103797 -0.6722704573464808
Ni 5.19365786363148 4.490483957910483 11.630783755783842 0.4210389685961717 0.3409305931793548 0.5435975427573992
Ni 5.860816832127863 8.088683742202255 12.427315330638447 -1.3283648191537316 -0.6946094871633134 -0.1603933856208141
Ni 2.0887025720467918 6.530805675681562 0.2446786408479391 -0.7131294003443718 0.22952854985557888 0.8193511850187888
Ni 2.885016674187988 1.8774992602932519 0.23500156006512535 -0.0028215286091951407 -1.268289965349022 0.5174070004049606
Ni 0.5365315718796295 0.10697109702186963 4.852587854794279 -0.6480144130125937 -0.09013850595930928 -0.01708138096231897
Ni 8.606960345143023 2.3628273822612225 1.452775960935392 0.48413024062970167 0.38890403573483995 0.09255020072459545
Ni 6.797123306477418 0.33428012855498673 4.901317211368046 -0.3499839616308747 0.2875928009881628 -0.31248236514099087
Ni 0.672414710725018 7.283497845267226 2.26753975653708 0.5362236188908314 -0.2107867504717015 -0.4012484162328057
Ni 7.663429045084437 3.976383922980353 4.025757508345304 -0.7317722122565398 -0.995728347662369 0.04389567294168569
Ni 7.361469547409144 4.032726644378737 12.797241875711228 2.465063667825613 -2.4554060901311905 -0.6231490172294817
Ni 8.001458075644614 8.968456410342482 6.950952948781145 0.5736079730765605 -0.6755671258198817 -0.5299781522017517
Ni 6.898389157001098 0.8903514872451609 0.4499401249087876 1.2326225938543995 -1.0507882647509903 -0.1778609462779582
Ni 2.0107672670117194 6.470495669636907 9.120674570740578 0.4081217463138714 0.24985826255186644 0.18648314072933042
Ni -0.02808400764276101 4.853681587855016 1.1830124340488437 -0.007509421003167713 0.8507250713443801 1.469227590940786
Ni 6.472615801110717 1.7746956320053067 6.950527102631041 0.5976788979828352 1.113912961125617 0.7012902416175987
Ni 3.4826662678842633 4.3700914277389655 0.5532842502334033 -0.06030933841301872 0.25399233932489806 -0.19487162190334179
Ni 5.631933625723635 5.399911168853896 5.075059710827495 -0.03846755994757891 0.6477794141836521 -0.36413248521711483
Ni 5.101109120197537 2.8138694295797877 9.456360537547512 1.609742492470118 -0.22117966367025135 0.5360904357470767
P 9.372618984042752 5.699541251691012 12.501228755366983 -0.12936916932515785 0.4231079353100584 0.0811373309019635
P 4.187951205802357 6.219137249754964 12.594119631605281 0.43558447051051435 0.13268049308657795 1.3777528826685561
P 2.5009362041902743 8.755424143969904 1.3049108945161352 0.050144996285507185 -0.6389384188532545 0.1483768207759122
P 6.269720128994891 7.4353556743075435 6.081279567863153 0.3899296487858768 1.063608042223478 -1.4680819073721167
P 4.7631255860209185 0.9452237655269474 12.688595601846748 -0.07331372109248664 0.49361709707421436 -1.1361504323675788
P 4.089797307914053 6.286635684401802 8.235126591671486 -0.5385226993376532 0.03792994227655403 -1.441249360560305
P 4.82874047038845 1.1849624090481452 3.8182412235153147 0.3807587809198862 -1.726594503164872 1.0170394504353195
P 0.03868648486714707 5.516791378214725 3.684171570518553 0.06750045684481923 0.7157961485432576 -1.4585194604946623
Ni 1.3120156097725724 1.0174447247871192 2.665912460465743 -0.6881629602070213 -0.1600617133130082 -0.7796857481083669
Ni 1.521790335082387 6.774948369131186 4.608873737277771 1.7929623890671444 0.5876454250062332 1.0161868726270369
Ni 5.925703774358465 5.412959531658367 9.46730787735927 0.758171785295991 1.620939132516886 -1.114482717586158
Ni 8.677943802770413 2.285419835275424 10.161479868629455 0.2714478157971841 0.9288773514760905 0.7960731883274548
Ni 2.378705620123009 5.139407975876768 6.789035869336124 0.13829835349398764 0.9947086481486032 1.6849644863289113
Ni 0.6563544873289991 9.11920412762398 8.755050163697057 -0.47536020774655546 -0.05615315015280007 1.9077927413461788
Ni 1.7116649422238768 1.0181180712637796 11.601164700159831 -0.6368910494059224 0.9934848030438309 -1.0094487825722551
Ni 4.198024105122127 6.778797363180204 1.5369433605902572 0.3180081800552265 0.5459333899794275 0.29199787203439387
Ni 5.589057833858455 8.21505449717331 8.071238608890727 -0.437969168692607 -1.7258920777812081 0.015038896610993453
Ni 5.190282031971466 2.889520816160242 5.140969411760484 -0.06922232463193241 0.4005966415814198 -0.06185277164073863
Ni 0.8651155532131387 7.4529809732979615 7.0520613818177145 -0.09365268976015484 -0.21268319616346595 -0.8437671519693081
Ni 5.264086265379461 4.439573504708938 7.4520983434569334 -0.3223983387031222 -0.04229104745872716 -0.9042567247139329
Ni 8.637997978006377 7.136944894549784 9.358235757344685 -0.7239887116563789 0.25919265257891494 0.03585557624602857
Ni 5.022837141924135 0.20352898177495501 10.50379829823149 -0.5490305408475126 0.41697405449817865 -0.7308059916885286
Ni 8.251633589554046 7.14503415154642 4.897321718963972 -1.494005312106098 0.3087365249453134 0.7116430456068324
Ni 7.320977766042411 6.09148349676757 7.369169355362522 0.15163569403284208 0.13412262484974322 -0.3097927341239697
Ni 2.2042906841145706 5.3261069354459005 2.814126029183056 -1.2448607877918045 -1.1660873291363272 -2.380697031353074
Ni 2.556760266816097 5.287080137629739 11.515918126286968 -1.0212866557474476 -0.5203537417381103 -0.32026972239589363
Ni 0.9415749555655857 3.2339921346322495 3.7040416610737297 -0.013312915058822233 0.2002758236380486 0.06665662078728521
Ni 3.4665332502745514 2.2721348912764507 2.553178791502401 0.15339098616105196 0.5788658790413902 -0.49021732736404605
Ni 1.2485208568788493 3.3352761837093534 8.322384105697619 -0.6145553620231996 0.8544626840099414 -0.10138708228993507
Ni 3.5061878981838155 2.8136055505551503 7.254343762683177 0.8338977153743959 -0.36794054610929533 0.19248692372124912
Ni 4.04141645363834 7.183624184080423 5.891435898262483 -0.06570839794140296 -0.5628209097633856 0.250121286405266
Ni 1.0338234228680452 7.553145811339536 11.440539718007862 -1.1083460085608008 -0.3102128523805238 0.03896172597517806
P 0.33154488597547216 5.520039820000776 7.952604968907567 0.4765652837982502 0.2546775383173807 1.1535832831320456
P 8.678489759373111 1.803722324715392 8.027543882121503 -0.5548409768817025 -0.8509526139741538 -0.7831253699175351
P 1.8847331852789941 3.410991265226789 10.477136507538757 -0.29209171729978084 -0.4750475616021431 -0.016968252423222387
P 3.6952799675281054 6.364188819814987 3.779912340222934 1.5476084421435348 0.06607452303157008 0.697324057880999
P 7.027580687752757 3.971761490410847 10.386296608271259 0.9240675887922731 -1.3875374728591459 1.5118174005868543
P 6.633481914095544 7.613246534019821 10.083465399886991 -0.5829781014375508 0.42849696753611366 0.3302286333808184
P 2.377240636572437 8.625723053722394 5.807108351337494 0.33884568562586803 -0.14433376105479012 -0.6921767093521047
P 6.894221688267173 3.9720435679889072 1.777994119813271 0.05771226710980383 0.06020469451435438 -0.08486234516203449
Ni 5.36282251697731 2.775106510788263 0.535493344406833 -0.5751496065320675 0.7127463059733402 -0.0854783814794786
Ni 1.5671866265966867 1.11865597965053 6.986338216057315 -0.7425284223317793 2.0950999206387015 -1.1612636824954388
Ni 7.123341475865904 0.5743481658931452 9.046321650946874 -0.08342766959803696 0.5261829468253776 0.9369863537364701
Ni 2.6407556901411118 1.5622639178956974 9.316111565735886 0.5653267069043748 0.5518898646731786 0.697020153487335
Ni 6.380567517895913 1.9926870041857192 2.6634492862599064 1.025526404860408 0.32946321596970357 0.34597381203021704
Ni 4.299071573004729 6.70349174911479 10.432095997743883 -0.43474629087993516 1.8753014535866928 0.06848261825243045
Ni 7.9262434543463165 7.546430545126356 -0.11393022385092083 2.0533349208867735 -0.6627216373157813 0.6245178725525502
Ni 7.783002640351907 3.8923157054416446 8.27120431390541 0.4204375875667469 -0.4946164848730063 0.07757326769978898
Ni 3.2287782490764885 8.254581755208612 12.248272502494476 0.7681157838825804 0.647129439304479 0.28513765457945084
Ni 0.20846078975265603 5.0619094361238535 10.376614977850087 0.288119105805278 -1.428144961967863 -0.19972277934805602
Ni 8.780893019485744 2.4337016485680736 5.765184343816349 -0.3381661430603402 -0.21717851293065824 0.4233215939827613
Ni 3.701212695944085 2.8319314938523643 11.456468001891562 -0.4399499465680617 -1.2198398402674349 0.4409652752064535
Ni 1.0889013448035145 3.4916290554452147 12.8525500093475 -0.1062724354066944 -0.16147402027950256 -1.377244318463254
Ni 3.0283575802262246 8.77617049487241 7.976656177111736 1.4676689882044143 -2.0238389683101854 0.012402230319094768
Ni 5.4455895379462556 7.818289635439592 3.513945031580476 0.007440515438445251 0.10430322749546551 0.35515033632316256
Ni 3.072097803379008 8.719773177813755 3.5522466170427216 0.40745351660225315 -1.0496870612670115 -0.18582442409940902
Ni 3.610183531720984 4.488982577253065 9.352841706110034 -1.453863964000522 -0.2326994913843928 0.08244447974916125
Ni 7.28923948887226 6.027761261956057 11.498259159972715 0.11650516887829612 0.24773427423032815 -0.8358725797125799
Ni 0.6815613036755441 -0.017598001160283757 0.16178604986037293 -0.18719147965026472 -0.1631462657756029 0.6673915319876248
Ni 4.778876434008742 0.41489881029231773 1.4959520289320551 -0.9179283086637546 -1.1348204007022455 0.5658373279922062
Ni 6.1849057707658295 5.540349405621124 0.4548755725971733 -1.8250132468551021 2.6607179335312496 0.7185328307481302
Ni 7.965197457948785 9.238859616381855 11.219278975704963 0.40316568786017665 -0.8653263661973226 0.653383647744307
Ni 0.0573809488711817 5.004056234791339 5.857794962331932 -0.41757903507202926 -1.0574034560746628 0.03751188090252894
Ni 7.981912829268041 8.525540017127396 2.9027811921120943 -0.5385813204897305 1.0361244920912285 -0.4896478280138212
P 8.31525573232173 1.5729646673085689 3.6609720546145925 0.8521674602178614 -0.16484885028900642 -0.06530010675939076
P 1.7876712005960846 3.3111449018701227 1.6501447323765768 -0.4565315050758267 0.31939888975516606 -0.3434376758719247
P 4.793089504232301 1.1292657362962852 8.315299408849947 -0.3426429478847712 -0.33470158155050744 -0.5248567718147864
P 8.759964683049004 1.7361419965781493 12.506569120869035 -0.5558825307723394 -0.2307742493372219 0.3686851375848037
P 6.517293249764798 7.8856879780426015 1.4039401428240978 -1.1237831690514775 -0.6578560816933638 0.9624323046134006
P 1.7983446521788216 3.1401603931819673 6.011681020151271 -0.8148957203505964 0.3040977406217214 -0.34989114480675226
P 6.94464078052629 3.894272049934644 6.1904981862327935 -0.1192909591535494 0.2088586802110532 -0.8783988831105646
P 2.399178992724166 8.528024119669672 10.082359837766528 0.294037528172242 0.10919886502486999 0.7297245856988916
