# total energy = -340869.03309240815 ev
CRYSTAL
PRIMVEC
9.26163981089825 0.00000000000000 0.00000000000000

0.00000000000000 9.26163981089825 0.00000000000000

0.00000000000000 0.00000000000000 13.55534604414808

PRIMCOORD
 96 1
Ni 5.674004773030611 3.2663581207951613 4.871045598303625 0.3751020968547411 0.5643838833751312 -0.16262407472354573
Ni 4.695188357974762 8.588642856184093 9.777403051134227 -1.1699100453165272 -0.0815898450583498 -0.801887995237019
Ni 1.028069816155977 5.768075249708685 1.833251784464014 0.03305487357243985 0.6515453089839875 -0.08943248103122017
Ni 2.2393997014297105 6.289292559545446 9.223098532679526 0.36730008431181904 -1.0504162261235521 0.761316758682876
Ni 1.138718628292725 4.462563748077825 5.945890400716858 0.8234868044537172 0.7034157726010337 0.3477126490981947
Ni 1.0015630027019404 3.084052000589273 1.996350189637643 -0.5693324856296582 -0.32097703287556334 1.198022487282027
Ni 1.6385322882719457 3.388093115917403 13.406454400549523 0.11077032327704794 2.235433045174531 -0.26112586504588575
Ni 0.26006777514699103 5.590196193385056 12.58209991144093 0.6231649580690816 0.5947630098876208 0.8042801496182794
Ni 0.8534897559722258 6.59062927601663 4.052086014449039 1.051207611676596 -1.8219721460359333 0.1268453744620396
Ni 1.7473287724244846 7.245149369237019 6.96800405623961 0.885425965160675 0.1152296445999822 -1.5372109009592945
Ni 7.091369099987955 9.027959484199036 5.81025553640111 -0.31263688844098414 -0.29640808528694756 -0.8368794237105392
Ni 3.0813383400924064 4.658854944564495 1.5307777386105248 0.43459742400689666 -0.9585517386120717 0.3162577730230231
Ni 4.2639108334112885 6.89334597683605 11.569271049939028 -0.8940538160390021 -0.3290248428807043 -0.12027029234768319
Ni 8.209387963057141 7.4606306836400975 11.977436152079527 -1.0366798503740662 0.3178739684702074 0.7453442945140195
Ni -0.054200042981958976 8.381422924590588 4.854765487650409 0.3995378612996022 2.166485828580856 0.6352378300732158
Ni 6.383576053941703 6.086888680710885 11.018788810279743 -0.27057055539855335 -0.35122040514113706 -1.8525603032354354
Ni 7.582949162077366 8.07953050972414 9.56072142819738 -0.3800818094575196 -0.22088964323365828 0.0006348053705214874
Ni -0.017906454623352212 2.7856327006932187 7.1906362828257295 -0.015608910181850537 0.27829980572201096 -0.222380625956888
Ni 7.595406067771173 5.315690447765146 6.568920918205688 2.5780330556365083 -1.7152148005730203 -0.6059005145616791
Ni 4.163866598984139 0.2060325893556267 2.3943617559326995 1.5992241094372974 0.2657415094410262 2.9158472146740686
Ni 0.39958974973760314 0.4928303834787514 6.8620147751471405 0.08826648574757702 -0.4882254937449979 0.5199829886622529
Ni 2.7446221591228226 2.0046449143509326 3.527711411563194 -0.006955348271910603 -0.3978625304797083 -0.6512907697710202
Ni 8.330011561388856 4.658632665206389 1.0496503633360086 -0.016126473248217386 -0.8978595629383377 0.5406767695661785
Ni 5.0192531388121955 4.882430932258569 3.0599976693863296 0.5723643304774465 1.0713478340698968 0.35969296138852247
P 1.8754820840120117 4.20722033545456 3.6375368639109613 -0.03622427243935697 1.070100334816041 0.9616630305475437
P 5.602014045924313 4.050754190628393 9.723140955164798 0.829810689789216 -1.683240818769585 0.05957374579857483
P 3.7847321071761604 7.38642642459267 8.00462143987872 0.47209516384203853 -0.038503041171204656 -0.6469944563885115
P 4.826731429773392 5.923559660703222 0.8889729508377409 0.2373832700133073 0.06535255726388099 0.42058465466757244
P 5.248701006216214 6.932541236981921 4.424844793335369 -1.7207357303912494 -0.2423341862606794 -0.5410305533611716
P 8.59145839472009 0.7729875817784855 8.837286398488471 -0.3045615676320174 -0.1318489983242181 -0.3149935615986188
P 6.080553719004889 8.213351944943348 11.277519204622134 0.987318783442435 0.16158277794322493 1.0971100306356654
P 7.329930421074284 7.4981588486001804 7.432165959506752 -1.2544690003055299 -0.3584153802276795 0.17593981799584538
Ni 5.647507221216496 9.027264861204955 7.64227367042764 -0.17231867630349032 -0.961359383264196 0.8185757403053451
Ni 0.8340412383020193 8.417839692760143 13.480426192434935 0.03416996101348954 0.36481639865801685 -0.15275180991515627
Ni 4.563654547816053 5.697983158786202 9.197871677862578 0.2656875162746392 2.7977492473873555 -0.3719280700021336
Ni 3.014247020504342 5.921457268441143 4.8606086562765976 0.8423671862979879 0.4403332980494094 -0.2796961718489054
Ni 0.6205696997618075 1.5771276155954044 4.771725624118302 1.1439002515163268 0.28100434913736766 -0.7174429401180611
Ni 4.591328327900142 0.4241358740203539 12.04827658350763 -0.013065060714074272 -0.4869790229324065 -2.5646648618597188
Ni 6.545719584039474 3.647511650105929 11.54489904448679 0.41290194131133406 -0.5963519516412956 0.5726247832276847
Ni 7.256717157498406 6.375629566889445 4.2577073869921715 0.4804785028097273 0.26577621933370355 0.49174301997995307
Ni 0.7553728688126462 8.289019543098302 8.814024863662771 0.8230520309091438 3.725632096160661 0.6489724060504889
Ni 7.935586102071229 0.04112168124944855 0.377402565142743 -0.4422981350852641 -1.9747771777865277 -0.39901027093090635
Ni 6.714059151244423 1.249543411587973 9.653574925389828 -0.18107276834703653 -0.3558198515863614 -0.09383806629808354
Ni 5.174135543211864 8.025850044741754 13.497898276145989 0.564145285001764 -2.515724427405274 0.7430722106503912
Ni 7.64801218252272 1.9384519738352102 5.020913750850039 0.04159736382581223 0.3921505676965956 -0.7251469936305383
Ni 6.642161040537334 6.61947002273077 1.9730617960561705 -0.6816228450956583 -0.5061381123593606 -0.3002032906633217
Ni 3.356362737547896 5.113129121051927 7.18323530636482 -1.6013542684064228 0.5031489478240496 0.16336300977209928
Ni 5.519548404067311 5.721980067821634 6.282428758199957 -2.265439875949266 1.0385600981159147 -0.7491364145666001
Ni 5.129929735868707 3.6375924337504872 7.510773202172646 0.5296436516804686 1.4478794642823127 1.8435652988256765
Ni 8.761937400746802 4.5852897386716185 4.297383326249944 0.749802073175057 -1.0965235620045761 0.11110019581264093
Ni 2.356263073953481 8.84993224163667 4.1052098548721725 0.26949172051207776 -0.9444924323055284 0.1341449934472464
Ni 3.374719307871411 3.829808508671896 9.804270142381192 -0.6552996338200971 -0.996848320199425 0.7186415884118527
Ni 1.1252429422076018 1.7336400686211773 9.302668059733218 1.5870692192423181 0.3224117084395609 -0.1015565179882638
Ni 1.6626866451860363 1.5722467313570128 12.222083296757974 -0.07487232382885815 -2.551727070752128 -1.1016984213372962
Ni 7.611493536314032 3.4490532298777343 8.796782468621759 -0.7269663062274642 -1.076704984616752 0.10441944135835564
Ni 6.133187618676199 2.92081559698082 0.32591433032966655 0.05449350306219003 -0.17241329289982565 -0.5634570006854877
P 0.5043018506849603 7.047413356922666 10.520032829579504 -0.6193437845507785 -0.21553043580427395 0.9083591769180808
P 8.567415177485053 3.6927177145605588 12.721271796042524 -0.8780949787169007 -1.4133662609967916 -1.7882197321758364
P 2.545107911943629 1.0520111553518834 5.857102763449749 -0.9227498984221141 0.3694788371306927 -2.051994090588163
P 9.083103288288948 6.761488009280104 6.132370742035162 0.838374263088511 -1.1520115677695515 -0.4922495273027265
P 6.947433953974964 3.1235343715726964 6.551068181093877 1.3284311536152926 0.8763751678123165 2.220432200890324
P 7.46286273886107 3.950256135845112 2.8157432182405344 -2.378670744951665 -0.9818413052676316 0.23890639152605306
P 1.5309768638688275 4.077992673636191 8.56257319213433 -0.4844500858629657 0.05820463336519008 -0.7643426899933933
P 2.095872067573245 8.169433248437743 1.700639919418495 1.3261120185638129 -0.8640104755993766 0.24225088251825375
Ni 7.734617777424431 1.721173901287448 1.9549923365702078 0.3113855325323863 1.264770639341854 0.41823363793689255
Ni 3.4651221751407504 0.39558131197977403 0.414325945015981 -2.6855918139547943 0.25471070554816133 -1.765900756963662
Ni 6.930133210602448 1.0296257716627129 12.019660894643572 -0.5497401653200273 -0.3235962156659653 0.6092450055538797
Ni 8.577843784036153 2.2053539130799416 10.821734454663577 -0.8210607115107279 2.05892244227688 0.19512204735125105
Ni 3.5111340022685122 3.5566549624804575 5.069238209466086 -1.3466484479542677 0.7009642257367475 1.1569187752631818
Ni 2.7691562432736756 2.497067785673158 7.397315334647845 -1.4735655561945074 2.1013911529640517 0.682437884797786
Ni 2.628397839753604 6.8030357259659215 13.56849512644417 1.1231360223857818 -0.770952224890111 -0.3806633929926025
Ni 4.320545761528491 4.7486187586792825 12.73515314195619 0.009437234153499875 0.3048690715701072 -0.4518536399841831
Ni 1.0956520026598566 3.609714897588136 10.884739538718476 0.6576048849145062 0.9492284043286168 -0.218165816544592
Ni 8.490941816656969 5.1261046785813145 10.418923506561436 0.21045816348768917 -0.15325060392844575 0.8959245506991538
Ni 6.729507566632729 5.791497937069013 13.147113664136336 -0.4780513814254735 -0.38619152189968325 1.5145509974679334
Ni 5.6497855846370735 2.59448171436273 2.625006227214517 -1.33508388304512 -0.9260691926033341 0.04341950463621554
Ni 9.312023242217466 6.290144630418182 8.45997274508897 -1.4252051626132487 -2.911403062859786 -1.3223355822405163
Ni 4.211795585575557 8.853451664806668 5.633059989103654 0.751317481378319 -1.6074341560519156 -0.5816467842206371
Ni 2.918592803399769 0.1400322909502618 7.67194611240669 0.033007308163956056 -1.1750216555114796 1.7282695768744496
Ni 0.8680286783202853 0.3608399744719347 2.4890194205817684 -1.0622615554979125 2.1758996656955882 -0.2768931551824715
Ni 8.619567471880469 7.832883776986739 2.5493812326031997 0.09452737905562429 -0.49364923586373044 -0.20021000339711972
Ni 4.760084668901538 1.6900455295128092 6.644153219284352 0.9366924766451351 -1.26134335882786 -2.132300698058715
Ni -0.10375907819948132 0.16102842865127526 11.211979209720843 0.7395276878322424 -1.425583371888274 -0.40281961737466754
Ni 3.8919541125421215 2.4953821672075276 12.47055272023184 -0.27742485931622546 0.5575714884389882 0.28150931379824423
Ni 3.7286991856538263 6.981174108207338 2.5986142580955014 0.08642943253883824 0.04521362042216084 0.2587108278464899
Ni 2.35174339367201 8.188984570311074 10.845334039346398 -0.09883551951267495 1.0739305071954086 0.44440978211162824
Ni 6.994334898535146 5.636337683471713 8.754666087244788 -1.1655527967890957 1.4700660276816813 -0.4316643095205017
Ni 4.540556017852962 1.6124607718941988 9.027453798659346 -0.23076036538015096 1.1420565134393688 -0.1021085338369919
P 2.2105960012752544 5.140404650619411 11.925627464525181 2.8312766897208403 -0.033798436606683725 0.17129434880403402
P 0.2118924289336731 1.4950046544154811 0.565586122042528 1.245075989126404 -0.23311215344177916 -0.7568767206336513
P 3.036317508436197 1.1293458486926256 10.411834647365865 -0.30800247499276634 -0.3357081684381508 1.4399869489081134
P 3.3683380379658097 2.3557351604779813 1.3964172759479123 -0.035516190628738835 0.7048900431537151 -0.5034060581401782
P 5.30520627137452 1.0945961757088574 4.445841857200374 0.4397558282793846 0.21302746687676213 -0.32543892530165885
P 8.501722365525067 6.771083068238309 0.66577669038043 -0.42839155230650094 1.397319234836258 -0.6390829148509186
P 5.804445709678637 0.6031179916585787 0.6534855680412085 0.6291630846340455 2.736200894360913 0.7814405260159445
P 8.036213819813405 0.35736593333754996 3.6124044778212077 -0.051397894856001804 -0.011820389673695772 -0.21508254963357798
