# total energy = -340876.2341020101 ev
CRYSTAL
PRIMVEC
9.18301928012370 0.00000000000000 0.00000000000000

0.00000000000000 9.18301928012370 0.00000000000000

0.00000000000000 0.00000000000000 13.44027695027219

PRIMCOORD
 96 1
Ni 3.1895655400106855 0.786238149270334 5.628384380902872 -2.6801590729749973 0.23750616874441682 -0.9936349554684499
Ni 2.6406964940909528 2.9554352874630943 4.341437528883728 -0.30370513316899306 0.274896693577733 -0.09055810999523115
Ni 2.3125413099527283 7.032475333159254 6.548909490288692 -0.2654088086919558 2.6158385565200564 0.494532152689316
Ni -0.45769727833390605 5.10439029686347 8.58750297728881 1.1157214750892657 0.6804807610714152 -0.5161034511021886
Ni -0.08730938979238827 6.560330411025022 12.780869834530776 0.9020368342444788 0.1392910564245601 -2.129527249078636
Ni 2.031724588784493 8.059081759787173 0.23539567256645905 -0.4028728392101062 -1.1459877301729746 0.16987072898363004
Ni 2.921256090727052 6.41055537105596 9.373933969958248 0.05390729154141684 1.057161772377502 -0.03682513924814948
Ni 2.828985115766345 6.548227191976633 1.9905589511895623 -1.158986456425488 1.2168987553612398 -0.6218889195701355
Ni 0.6222533056931707 7.4268033522464085 8.25817603992557 0.12544258057724203 -1.505452120490459 0.26366637207955235
Ni 1.8414983500990771 5.338382804125988 11.514150418473609 -0.20839022521506692 0.11275855735167033 0.1559381780629379
Ni 3.1652397226668447 7.880692432599004 4.384043063858618 -0.20634414131931558 0.006047234635344424 -0.6608735283634489
Ni 4.20917450615691 0.8971965679059059 7.762996432919576 -0.8537101221146328 0.6633998943297285 1.2222435646129208
Ni 6.124357400750883 2.041403490815602 1.6009381476442919 0.7210013468932809 1.5630510019508501 -0.42728803482967703
Ni 4.619738102844635 7.7626630893297 0.23314583291027138 0.11476453203810558 -0.05191314392952349 -0.3007532496295207
Ni 1.1176652430799854 2.696051732652173 2.5200784577641815 -0.3007799891023981 0.061025647753752965 -1.393506031737755
Ni 5.098320321301266 0.48633911461002527 3.657139155284305 1.196090560366637 0.1858578484405057 0.27610331229132445
Ni 3.5131843127605156 3.128911699483668 6.6551010037588485 -0.8426026993475618 0.02176181715712381 -0.07147872476627688
Ni 7.9607775413402795 4.819771805827227 0.43785369256633117 -0.9051733229909315 -0.5285537610503994 -0.20755513090828123
Ni 9.169593431062381 0.8588032837485391 13.296612975994323 -0.3065312897638785 -0.6599834124490118 0.10034707106119493
Ni 5.629163100914483 2.4812150030337663 10.12340422943507 -0.6710854358994442 -0.9749093540344886 1.446008215401529
Ni 2.714371855566844 5.135456450156869 5.323908529570548 0.8227095599680606 0.050773888118757715 -1.3664757670928402
Ni 2.2208304991513166 5.014617103072081 7.641899043000752 -1.6611280460309457 -1.7070219803495827 1.185817717685719
Ni 1.4792466163958544 1.8148400459280052 8.368709284781216 1.4474544609297524 0.8356144409551867 0.038425650966049954
Ni 2.2662313451112825 0.6873498908147335 12.337837837547612 0.3324886330595887 -0.5078373544386544 0.6783943108560317
P 4.292703247025003 3.166130475510315 8.604787255659735 0.3397383726434665 -0.17623703752129002 1.0557960023782267
P 8.366363941727379 2.746282846608689 0.7995645464501686 0.16931794180395357 -0.28945890766262405 1.024434200237494
P 4.869185631092312 3.875123823817573 1.3462994587531751 -0.06301876692438178 -0.20734301489747514 -0.7241979994537076
P 3.194643749520366 6.0672114734837175 13.255297655189615 -0.9456841386207844 0.1903454518982141 -0.6964691660798714
P -0.12815454002404933 6.654887957717936 10.356056015922883 -0.03714215626793603 -0.8914418323374518 -0.09391468517228987
P 0.43961958712096333 5.815835511245023 6.456359351550238 -0.4135485737563975 0.6676926081678114 0.8068545952136749
P 7.443167492113048 1.282463702140978 10.496170519898845 0.32317789718162404 0.08499758518831814 -0.43007999575251743
P 1.289093841862478 3.736138831179207 9.39580149311449 -0.013223954889441742 0.7168893816074363 0.8287789060905919
Ni 8.389771457170735 7.67118185400341 6.122718231858518 0.6285444772134401 0.19980556886984943 -0.37733098618525984
Ni 9.217455326115646 7.021905678284674 1.646406947944894 -0.8779561391461912 -1.2679639494681711 0.4304484348355297
Ni 6.841174681250272 2.9847474841265678 4.847544928505488 0.1315360950694896 0.8613905214780261 -0.17248117002328361
Ni 3.975218730970411 7.547661065369207 11.335220211466057 0.19480991542747095 -0.3721335011447204 -0.23218887029656143
Ni 5.158221154269886 4.621960393443808 5.229114060987308 -0.33594111038456337 0.5287003139305927 0.5016281403041489
Ni 7.454435056431995 7.236806689036115 8.8701259982953 -0.8808805118818378 0.5562198595071001 0.6807427564835502
Ni 5.097668326951922 8.764695757100647 5.8718418258536875 1.4769007912153276 -0.961375324103796 0.20330638293425632
Ni 0.6342334722868948 9.125790430409259 2.157339105751801 1.31048665332173 1.22410118664695 0.3799074886631844
Ni 7.229956156858498 0.8911302655513037 5.47152280516777 -0.9327982837970515 -2.2135822678480266 1.2860943405202947
Ni 7.252500468515399 0.0527445062581424 1.710396060974472 -0.8036962520903513 -0.7606914663940513 -2.2381121346685906
Ni 4.772662918332361 2.8583340445058374 3.404973453411194 0.15844346098329487 -1.305390212635429 0.4417072955788005
Ni 4.855548847870113 2.7547771391881724 12.41705515099293 0.9872629905038353 0.43476840236712216 1.3368039510600205
Ni 0.6644180557558284 1.2368608297629056 10.789047299926146 -0.985910847351315 0.726090331380414 -0.26880472174738224
Ni 4.593704243965893 5.243898721585112 7.848113836075508 -0.5556909835868237 -0.6962166837494332 -0.6571114902178554
Ni 8.19619341654855 8.588051203523401 11.03602643266532 0.7953836184595979 -0.4304975429059102 0.7731595169540749
Ni 8.817617495625582 4.429750622653346 11.127473690821294 0.892831770706443 3.024487636092307 -1.4294158582604868
Ni 6.4169192032263185 4.371447634991569 9.176644153054303 0.27674505964038143 1.3790952556290637 0.05300329166990871
Ni 5.789085376883902 9.143954442000847 9.729618008469204 -0.03952608311908031 0.015469813500824972 0.7978763029744645
Ni 6.608164757021272 6.72900410410606 1.3224153446234674 -0.20957833198589712 0.17816767888509963 0.09650969959297571
Ni 7.616845930551728 5.206202428570214 5.1634049684981225 -0.02031120075352631 0.8959422913109667 -0.20319968215306297
Ni 8.636271236317855 2.1297533166612395 7.037315702476709 -0.7929163878660279 0.8795042003596014 -0.9075927310657015
Ni 6.476370068263701 7.125233008127219 11.659937273288866 -0.6713011514546761 -0.7836778999868954 -0.17076624421470593
Ni -0.024603144517787338 1.7506323770461116 4.411394685964556 1.4183886539120476 -0.4265907516523363 0.33684793846954886
Ni 1.1994675763751668 4.894503214488676 0.5459672119142014 0.825329771199727 0.9504062266868019 0.9476006389172068
P 7.3060099202566455 4.095957064846145 7.151517563424793 -0.10636422378955229 -0.5039097372494741 -0.3264840787367216
P 4.9553682644528045 8.091102947057076 2.3117809559791267 -1.1537869145024193 0.10296959628570652 -1.6186817039412769
P 1.411485119159085 4.954146922925161 2.8306701997537345 2.085497621662247 0.3423976646431845 -0.08384727363395882
P 7.45146894129343 6.414605082437096 3.293324471746457 1.4154270001805624 0.5681037554288797 0.36195784616329923
P 4.3444587421363225 6.578420958464571 5.9340025997994 0.3308644671926044 -0.11565721905570403 0.3661888535255113
P 7.3782435477487756 1.5084577998502742 3.3406206928290234 -0.7396212759873133 -0.2784561287942172 -0.36103199191492014
P 2.3796599958591584 8.62542609087313 8.273780744120506 0.7087495261091213 -0.3737833780433175 -1.7676035985873817
P 1.1838472610479212 8.822842633439341 4.443933795506333 0.056000683735335816 0.8310998409142848 -0.08876296576802133
Ni 6.333326181225192 2.0058927563238567 7.843221123549725 0.30038249655366334 0.04554812094344414 -0.5985240195919498
Ni 3.0232702488519028 2.309409900472075 11.104329728023377 0.09970095283676378 3.205536236069628 -1.5761242901950405
Ni 8.588280778998522 4.359326049905171 3.0338068448580646 0.47440375737055723 -0.32060679402033815 -0.9141690987316385
Ni 3.9319024303245453 4.713313066504031 10.890843820500582 1.7381451841169486 -0.2940681242998613 -0.40495851809454136
Ni 4.176152369815478 0.9704063503182514 0.7692945609044899 -0.18988342466013103 -0.45367655212553487 -0.47474931363543404
Ni 0.5649154533288037 4.245291319902974 5.057804841451879 0.2043469083836287 -0.7280104312212623 -0.5580000913359744
Ni 8.189379616446953 8.511244432566857 3.52656764465818 -0.15116441082337836 -1.3268640662384892 3.6092575393229587
Ni 1.0568369251918757 3.0485878322482676 12.529039312851342 0.24672023114351702 -0.5478614602400759 -0.22040910405281394
Ni 6.738976862745323 0.8765935464666301 12.809685229866087 -1.4075558249626017 -1.162993520702352 -0.3252350368209689
Ni 8.910623112106677 0.3130426897619468 8.690751333167913 -2.009464444756069 -0.06970363514372512 0.6657524537223051
Ni 6.409499323870401 4.603897395061273 2.8654132338566742 -2.162714791574198 0.025014519766466597 -0.6162060102527452
Ni 5.343718138167805 6.981647322967423 4.02231200733297 1.585397230856534 -1.1696238815346758 0.10919063749475388
Ni 0.9224709911129476 0.25617684457442885 6.640867324301335 0.5069816913065784 -0.6668575138610257 -1.327452334641791
Ni 8.415024759434065 2.815880947646428 9.284341681641253 -0.04959066644393395 -0.24651325733903354 0.2706793130622758
Ni 6.486948906157285 6.4047792521019105 6.810725626833999 -0.9416817023296105 -0.24462143963295935 0.06855923712663677
Ni 7.934670218309498 2.7640611714020733 12.116221284997927 -1.0253289441376212 -1.590459732981106 0.30034238734434726
Ni 2.7157860404935903 0.37980415622908836 10.018557109947228 1.81452751683243 -0.5263390127872677 0.214852693010959
Ni 2.7880013019477103 3.1437422751764967 0.6948891494177133 1.4015504993087864 -0.3833100865868302 0.2285636148391483
Ni 0.7545962206853309 6.710335026469204 4.129054501943417 -0.2862514564689199 -0.7445984174869306 0.2336412864723718
Ni 5.295911341228568 5.333093385179197 13.059244790945622 -0.40290446377899 -0.3961776865781177 0.17126966621368567
Ni 4.812048886844151 7.770055419628603 8.027030268554553 -0.96111538557419 0.2857963712093723 -0.880444967006316
Ni 3.909229556401577 4.939362262327356 3.0401771051417277 -0.3421675509102494 -0.6513416776136137 0.8334446869973776
Ni 1.5322969171868583 7.785519623632767 11.08256964618949 -0.34785328844111707 0.1507196099764759 0.12862097830522362
Ni 2.874670635315461 0.9250697854913194 3.0182425459467486 -0.7621575094166164 -0.2169247450486393 -0.23885599790409182
P 4.915247654420627 1.9243842796368305 5.572500200446973 1.9905331550692043 0.5349246975737497 -0.6232600888860492
P 1.320325289497964 2.5554413456499487 6.076321946638426 1.372491891379933 -1.0957252344729966 1.0719931809633796
P 6.950911758358199 8.841291318620078 7.347866120880741 -0.43215667577588796 0.10788117465471098 0.4470333357774043
P 7.713515571615757 7.977417171777063 -0.11237994997752235 -0.5572326170423306 1.4208702826833208 0.016595699575152063
P 6.616897808094882 4.364137951863711 11.60352874244779 -1.0000858533001165 0.20932919208956852 -0.23853306734703436
P 1.9072120340977659 1.1046069900550923 0.9493891747218569 0.9511919558128907 0.7793767015083802 0.8907450633807432
P 5.376281123558993 6.424899246741531 9.484413035001767 -0.08035185888619063 -0.2525219254269586 2.475403102078408
P 4.431715788720383 0.5123169570728383 11.844189958111627 0.4120097685143679 0.37885899279401203 0.18452910232675315
