# total energy = -340863.59285866574 ev
CRYSTAL
PRIMVEC
9.30346551050064 0.00000000000000 0.00000000000000
0.00000000000000 9.30346551050064 0.00000000000000
0.00000000000000 0.00000000000000 13.61656218332352
PRIMCOORD
 96 1
Ni 4.471617685998041 5.620865482963861 6.596393388943565 -0.4737522398294873 0.08843283612211221 -1.297194049977882
Ni 8.2283663819528 6.4425754714800165 10.23958677533194 0.5486397331669971 -0.08761291132397814 0.3447250272247805
Ni 2.2264309497161348 0.9296367014196955 7.754999541914599 0.576332056875943 -0.41278392767623107 -0.16093871660132283
Ni 9.229009923554008 4.723462498664417 12.12323432758783 0.0677745364418123 0.1734954702204109 0.028287276980467412
Ni 5.99454848058328 7.390170652467126 10.334480263334692 -0.2373524167753719 -0.09778239565781224 -0.9578344008300731
Ni 4.284822704516124 6.587979334692532 8.724186205769685 -2.70548932420967 0.7737806954778415 1.139290006437825
Ni 1.0906080535511116 7.75076367404585 9.594637980692948 -0.6800917531631127 2.4262274116847053 1.541706731947119
Ni 6.409082995469712 0.5819373527583827 5.91184811454139 -0.37048722379054905 -0.04400751592920163 0.29808161633462854
Ni 7.500388808937705 7.027698330845602 1.6456295501024352 0.11963651541842622 -0.16195764478414043 -0.9259702051316246
Ni 0.6396532620431407 1.2192842856895916 3.1937234279835276 0.5953854739629681 1.1913623016530321 -0.5457896653127117
Ni 5.562244346480269 1.1683292048261358 2.7333888824995594 1.822469911607958 -0.8607539163352919 -0.4629412652569123
Ni 0.4176269868380502 3.436067541621647 4.625804951044259 -0.6975148337355664 -0.6073747851143604 -0.11245491006832245
Ni 6.897300957578814 0.9610014748567901 12.92891258425372 1.3207710659668734 -0.6813289680043234 -0.6247986370177627
Ni 9.074423539835335 1.0519707610870017 11.911564670242372 -0.08000167463562352 -1.018612194239078 -0.7585620787558743
Ni 3.6608206625819095 3.5334003982938165 7.322687965039141 -0.018380045169084477 -1.5242011189631879 -1.0325396029534475
Ni 0.08216820781194802 8.22136087238731 2.2830620749167814 1.4001497623065176 -0.9037383903166177 -3.861467332826137
Ni 4.704650891305295 0.9993317529574723 11.959821746093885 -0.6828659734741401 0.6524673065776248 0.7653053110169787
Ni 8.196632260933034 9.1951825227836 9.81873985906412 2.7304850749230587 -0.7207655767333909 2.610515087424614
Ni 1.636479591725731 8.086646691101416 0.2321130925635272 0.8004042116026409 1.3464196197729135 1.177779934982907
Ni 0.16498021544053856 5.486514136834747 1.5109888661944537 -1.2950461503969437 -0.3712906935284509 -0.014732164003852048
Ni 0.8912887467344522 6.390969148027472 6.0200725383427995 0.9728846102949762 -0.9620718359501884 0.41345267160848154
Ni 4.994593395433394 1.85972555126553 8.607996154757158 -0.2874567896309308 -0.0935678433558324 0.07174791926726352
Ni 7.700264462994758 2.3462409791774426 8.730626994975777 1.4495843627885614 -3.078062998215602 1.375171495094625
Ni 3.405514960727802 6.84392697567017 4.7321230947527475 0.12681786365821385 -2.242407676720151 -0.5646178537628082
P 9.206951406715 0.11625145388521246 0.29073515939367506 0.4508686503630945 0.3124371137253522 -1.3083981462238174
P 5.039175602389333 5.569101000596824 0.26019467300505617 1.283355344322577 -3.1379000249778928 0.8834472441677496
P 6.906176463721545 2.755546946420043 1.9613026489254497 1.1889863452216878 0.46226377957391357 0.5955340837256905
P 8.217518541111684 6.401965844317522 12.950466853259462 0.22780256830340767 0.27069165435744996 1.3418967922018954
P 4.064377088109408 1.3194733062881951 6.618465860980912 0.9766389351310857 1.188861132497733 0.21767422162015415
P 5.718793761431769 7.649728038081431 6.1454953485755 -0.6005328224918625 0.08061693962211923 0.10616162086044297
P 6.3230445459854625 0.5743680531800538 10.576950904104407 0.0826293420664577 -0.1653674417966378 0.672690575603035
P 8.085483757906616 2.9461842591775875 11.591752459592415 -0.45431032905479174 -0.3750169933401025 -0.07328595317834476
Ni 2.276483594420424 7.549864638777372 7.828093149420866 1.8314924268215425 0.853758201743749 -2.1784016061818354
Ni 2.8057391431077088 2.298002510257045 9.994842367579748 1.5438569455209024 0.6919622793484536 0.5017690367573874
Ni 7.778032131597574 4.909475989039426 5.399920270456659 0.3922570113674729 -0.11314036617112128 0.5688609453098783
Ni 7.470664236478559 2.1872075389218444 4.22843253907344 -0.7213232490090737 0.7687505892531018 -0.6344158483925526
Ni 1.8001647647605379 5.918083297158642 13.39060915709544 0.45675544816117464 -1.3025352596851374 -0.9304565230377524
Ni 0.7065516918340571 1.6071364613544807 9.267976558698885 -1.4150680741792467 -2.2918695308957044 1.2512414945071677
Ni 5.490356468110374 3.589230495109883 5.541954418443916 1.4686822599602771 0.586221805185829 1.5647157912477825
Ni 7.25141876712888 4.234853791001861 10.06481838377739 0.3371166187499033 -0.094084892201567 0.513353142050561
Ni 5.607328940576362 2.4866209709884117 0.29798628044990605 -1.2667419041356118 0.08816338451080946 0.8832973488534465
Ni 1.2511021378993812 7.5825011959563025 3.97362643331982 1.2276899324394728 -0.2659777938215484 1.6916015320294544
Ni 3.749119854196855 5.010223217571536 11.703013534552094 0.1351947748679994 1.6365076763791042 -0.007750590479696329
Ni 0.511034711391123 8.083036946464752 11.808745559930403 -0.94326833009044 -0.7927970886793443 0.5791926662531895
Ni 9.045164140654109 0.05875138500140985 7.508553530311772 -0.2361015750874063 -0.14094607552947985 1.7519509796517891
Ni 2.092898308556161 1.3583524888568241 13.531512934017348 -1.8246160114166834 -0.4033376946616667 1.8423810487095882
Ni 4.358273565099834 8.739908132216856 7.6946647070751455 0.5932874537833588 -0.21153468438131953 -1.4786506840268987
Ni 4.480958365418693 1.9075732746324738 4.490238572313214 0.11295961761888289 0.797641047035207 1.0434832464491448
Ni 4.3756431352974 9.068013452065584 9.966057445142004 0.33993969002099517 0.3044337838049015 -1.80672139052445
Ni 6.221487915949771 6.306456466894803 7.8945291969735285 3.3983723156001795 0.21984783223270524 -0.49608921276379087
Ni 0.6327314836676775 3.669649651396848 9.883921799459511 -0.7695399179236166 1.9374864117558697 0.21633364843185965
Ni 6.8493229856940525 6.900733936369871 4.378909582054961 -0.7105973779511374 0.2711544529264814 -1.2097965970988196
Ni 2.5250721941413534 4.3097745991438 5.017608308531808 0.7943258666190448 0.880406914679529 0.917469109639149
Ni 6.328142845111475 3.683493208147774 7.894351500781363 -4.254463536352479 2.777253184316533 -0.7224943864990396
Ni 7.346165260375809 4.830815187743002 3.0042630036191236 0.37249448402856494 -0.6016078007235961 -0.30497551524098443
Ni 2.185123562636759 1.832643163024975 5.3718154313512345 -0.5343138034626281 -0.3403536376299622 0.4098865515237779
P 7.497383789562336 2.82655099556189 6.415974072408832 0.36371930893909615 -0.7404977650549956 -1.722854319396149
P 8.204810007158885 7.320292322657848 8.26985611695712 0.5940150759780028 0.5361786245855088 0.15372522957201912
P 4.497890672735013 4.624771336020718 4.060826885652316 -0.6842371427900538 1.4626226840297585 -0.5237370563880464
P 1.920728374932077 6.652350012891226 2.008402373661497 0.6372669446881025 1.747731542253803 -0.5504958125391294
P 1.6414104284716926 4.294656467611372 7.138210476827826 0.6846431199792209 0.7098119059353647 -0.33125398932153916
P 5.946858916130829 8.307836584752804 2.9671440367341475 -0.1629907140343451 0.7178262915994089 -0.563175721999643
P 1.4054001141857442 8.701373177873888 6.260119626334546 -0.04816447552036866 0.01825046156975567 -1.1457897552295557
P 1.1189184992453778 5.834249769011738 10.68464410002243 1.3365499260676852 -0.19019529947359504 0.6751614057410308
Ni 1.0385272533550876 5.846930392567861 8.494950675103377 -0.48713483178398037 -2.0613575340809334 -0.36845990894787506
Ni 9.099347524066337 0.976575476201582 5.443751687742034 0.49490470553738636 0.595377246432852 0.6404196313844712
Ni 5.7528537488411375 8.526235438736668 0.6969067890896451 -1.0372259526855234 0.7146540645190144 0.6407988691007609
Ni 3.7329969483841166 1.2906418665226576 1.545466579207395 -0.038272927438269565 1.6334964003566061 -0.3779940736905555
Ni 5.707276071070448 3.1858787458246693 11.748057193399731 1.0816510157681178 0.26143491164587235 -1.4793461674320265
Ni 5.396391465970352 6.342125953845778 2.2741567976842636 -1.201919508343588 -0.7139123012569835 0.6487073253145602
Ni 8.283498718851984 4.806914584723427 8.014953255161693 0.7281143037889782 0.892259957363373 -0.584949880451941
Ni 6.597487476493235 0.044563600024822354 8.484616385561086 -2.234876144229796 -0.4720439988891289 -2.7293496757670352
Ni 8.202344588785904 7.61186293325867 6.070235894287234 -0.8037638721034932 0.39737762042348984 0.3141808358893364
Ni 9.021030950995574 2.7706371675557975 13.643387107357325 -0.9399225535466587 -0.7862996538804586 0.9873270109725514
Ni 3.1898699325492306 4.4311662177500395 9.34937630025571 -0.2437565205295028 1.5705881908681598 0.46264147462830646
Ni 3.1940844024471944 8.430930737556235 11.708800290129428 -2.261961430482362 -0.691757362426499 -1.036636912951273
Ni 7.256265872684816 4.56712706342076 0.35074251224547137 -0.17013015329260378 -0.2654548314385428 1.0231386213545217
Ni 3.677808790691581 8.211220094928635 2.21924123153259 -0.522950555931009 -0.10062526442324606 0.5205599442116454
Ni 6.808862213980493 7.8439471850789655 12.365459356866802 0.6506695912472535 1.1059268575963468 0.20359871736369453
Ni 3.1971080287536795 3.797339716186136 0.7481316704542947 -0.8557785746078874 -0.9215903308963741 -2.762665259200029
Ni 7.800155772695492 0.504272022276709 1.7817411119152027 -1.6398917623599887 1.264840573347841 0.5399126377066443
Ni 4.014212801818418 7.094087861070473 13.151447759024856 -0.22996975115805554 0.2048505874929246 1.1989938500563608
Ni 6.307991538711942 5.479089971319128 12.029620066099362 -0.4356634033775658 1.011238013262194 -0.6751472646736436
Ni 3.937905777308274 8.941346768487723 5.126976128250346 0.04178659701848288 0.748320346423208 -0.1498552050936516
Ni 1.422778987848869 2.5952575383140593 12.00302704014718 0.4676199016795043 3.0541453110577397 -2.6268364502924566
Ni 0.14195413818345395 2.8356497848780227 7.332491957044602 1.2174505140996517 -0.8959489761791861 -0.9564992269584172
Ni 2.1159895100721546 4.598814667112732 2.603745089943004 0.6260317380939154 0.42473261539767504 2.215769248197016
Ni 4.95873783917125 3.94992585480975 2.069635923273893 0.9436426827107233 0.14953664541196826 0.9608559612652161
P 2.282540150498954 0.35570405042777564 10.242650406540328 -1.7646357742083094 -1.4833221213606391 -0.6781284587891546
P 1.0416718247138328 3.1044082979296026 1.6474679148967786 0.537586560676629 -0.8169595448581607 -0.23536932490707207
P 9.602292872154413 5.52683535656493 4.0363029504403265 -0.9171088980862527 -0.5728860073088715 -0.2030248471380955
P 3.5901980555279582 3.0224726767566152 12.1380482357965 -0.7507916907818359 -1.7167947434656303 0.783436987620683
P 8.560528012784998 8.916906564465759 3.959015340660324 -1.4811299988053266 -0.1535694207204452 1.371642141785128
P 5.358247257180837 5.195687803478599 9.901229036437835 -0.6799372298631192 -0.33496126296979734 0.7452278235408134
P 3.5361728310302247 9.220729839207015 -0.0220975913943545 1.9477276298679036 -1.406715074228861 0.9220654707605798
P 2.8666210217219965 1.1923414494324127 3.428650818878476 -1.24789083286738 -1.5721640199957116 -0.15432095417448907
