# total energy = -340860.8497681755 ev
CRYSTAL
PRIMVEC
9.35172260523564 0.00000000000000 0.00000000000000
0.00000000000000 9.35172260523564 0.00000000000000
0.00000000000000 0.00000000000000 13.68719131937348
PRIMCOORD
 96 1
Ni 9.094045445118937 2.6949607775480433 7.692037030951833 0.10551370286379894 -0.07769102422457588 -1.068664630810779
Ni 8.555423617832824 7.934085802242912 5.092538639905225 1.393989913352709 0.807042542854765 -1.5278857669036268
Ni 8.049654392797843 9.037196322123028 8.310411285581488 0.6215850151764715 1.294030564648236 -1.3563006263320514
Ni 3.089556721751417 0.5741480870902164 0.055827914864445966 -1.4816642740422419 -1.2034302885611596 -0.17657128093225719
Ni 0.4014404701320958 0.4403529887677218 12.560215683271649 0.8379438604193117 0.8613370425322714 -0.40621707309199073
Ni 2.595851219148533 5.8739854314761075 10.623491656438501 -2.450943426374147 -0.9546500895648203 -0.37296653856897705
Ni 6.116943190224861 7.107898498377734 12.03335458259841 -1.3698014890319634 -0.6585461657818529 0.5227340690448289
Ni 8.546502074266762 8.181934512024213 13.647827592929504 1.5142267813592953 -1.5291018986989149 -1.4200578140843545
Ni 9.455994524973121 2.6864507097858663 11.46053163463116 -1.455477331234229 -0.033791494628148254 -0.4181259087144347
Ni 1.2088410980330568 0.1867548397994024 5.628775777873364 1.8108112443231072 1.023546912536534 0.8931899253768102
Ni 7.0079379332020055 5.432228749113768 9.665128037470204 0.4809161045677783 -0.23987389764564498 1.9519581230094836
Ni 4.37807449817321 6.80166698305877 9.719261420160468 1.9996425735696404 1.5445789112885915 -0.040079384519389034
Ni 4.553830776769209 5.84059978102449 0.3123372551452552 1.8113977129541965 -0.7688511193867081 -1.8145812528885006
Ni 8.831720268419117 4.157205508714856 4.486730295222864 -2.6103757336332722 2.8626847717184765 -1.8593883819008623
Ni 4.136238946162327 6.555819541960003 5.29181076069328 0.2498680327438794 0.3139481510532399 -0.6579509554000152
Ni 5.0526423200294 3.628225307651606 3.5120787806266733 -0.003284070067910473 -0.15230598062698933 0.4365393782246159
Ni 1.2836642322805079 0.09904129082295686 8.481268196594405 0.1608037336853553 0.7355748738320815 0.20704656670297894
Ni 4.936746419175924 4.386275959082473 9.4277102393174 -0.817899540173927 0.6231171355502817 -0.5159512417950405
Ni 1.118877524547183 2.7359961372628057 13.615538899564152 2.078003113057415 0.9861602443579596 -0.6669457026994579
Ni 6.445235419665777 8.407657045623854 10.15558101087783 -0.3860858495597544 0.3061271123469244 0.06018901078507054
Ni 3.221228978994775 4.328220463843357 5.250256380362253 0.44864953122458867 0.009187065815906758 1.407728088874408
Ni 7.897342883300501 9.041694500797323 1.8749259721232345 1.953434964665326 -0.8858383701077454 1.0431670007603067
Ni 0.6585586075681993 2.631116565886083 5.189799362704095 2.7870015219525484 -1.6833354353659202 2.015453572459968
Ni 3.172179192827061 2.2406821383356426 4.309699376807101 -1.6306532744808562 0.1403189834684422 -0.7776334935650284
P 8.334227318075925 9.012835084188444 10.97790792356474 0.9292051671291545 -1.1676055655530666 0.6833593681707908
P 5.04602130027597 7.925800175828309 7.22015751422823 0.9036779693923276 0.9566992587843653 -0.9074433499720307
P 4.312818176366097 8.58991277157668 11.271840053036652 1.2507463000383041 0.44250922265480563 -2.0910113523916243
P 4.443480447545372 5.698743497634966 11.710076746931206 1.0547919865937447 -0.4576015982115539 0.1861517255318407
P 9.470209143652802 1.4484228848453857 1.1552342173373111 -2.0733409316950553 -2.299458656096872 0.7862757426210587
P 6.178299843617878 1.8060795239272205 13.206921917343383 0.02449464270725459 1.154341758564625 0.8504551055124451
P 1.3124394833840456 7.191343921061148 9.09178513371441 2.3474482966022734 -0.5140907915475339 -0.5993532003614646
P 8.55109377016921 5.896794283423307 6.051339919501291 -0.6127471051698673 0.44831580203425375 -0.12360167071376134
Ni 0.07368877026992109 5.256444415349322 8.702589809437034 0.8341831078252988 -1.0956864108152613 -0.4184449826167503
Ni 6.351559212222117 9.009225319181631 13.433841471463417 -1.0624872983554734 0.9312466230392156 0.25092964123917433
Ni 7.149251816668226 1.430168321909375 11.10081855170218 -2.349677185932792 1.068297220169031 1.0483716848896976
Ni 7.886644512399478 5.302286560591292 2.086146789152756 -0.03816828353960523 -0.3465422829391773 1.3731626921947127
Ni 4.96499797380179 0.3378880322219812 8.661214047011786 0.09628035719098901 -1.6660787051680017 -0.26306293416759857
Ni 4.216242934849609 5.5750295565076655 2.364763602169595 -0.006978745310678305 -0.401652850760076 2.4607922941437685
Ni 2.43376715930891 6.753664589846402 1.4210999562951074 -0.3337641573379026 -0.08585119143786504 -0.6087670374761968
Ni 6.815217629418545 7.0429414317007195 1.0289766076041735 -1.6613938980978227 -0.3262765907116058 -0.004163130238754121
Ni 8.014763114972917 2.768942256742092 0.15393403340584488 -0.6468743858708794 0.7910497669709343 -0.048717776920677386
Ni 6.75332792782504 1.500427815422823 7.817425865635404 0.8888414186001272 1.600501176377508 -0.839701980760999
Ni 3.608156510489373 2.1046519782602244 8.205868376226125 -0.49462522662375463 1.8474360946349924 -1.1388706595122193
Ni 4.092323255820366 0.9725885245430743 2.0986294687669913 0.7229253033888712 -0.3072913078583546 0.7772375436781904
Ni 7.406508359601999 4.885339998858684 7.515746768983064 -0.5871481736548404 -0.9134417336473107 -0.3918420353172413
Ni 6.9100160436000735 7.161296835654692 8.120610589661052 -1.9743501175514382 -0.6611645772413064 -1.6622217933157566
Ni 1.9211057145588473 7.607832248375793 5.036667707115827 0.5552929768174565 -1.2801412082606534 -0.748978034611865
Ni 6.625751725174906 1.3704856269003471 2.0823967483037085 -1.7696000601921202 2.250715682365214 -0.2566948258577257
Ni 1.7574786204546542 1.5484302086351922 2.4051957757627522 1.5265130549258161 1.9374478452084505 -0.478524207296834
Ni 3.55057795311385 7.442007499409939 12.807570622088287 -0.5413624827792933 0.3300021191923091 0.26663393934830854
Ni 3.8063195169515005 0.7329506273938519 6.225468998327379 -0.4864336919518978 -1.066988785770253 0.563663717379655
Ni 3.642505388390996 3.8115284265597786 11.3512118652616 0.11029004120651974 -1.5340769833160033 -0.3674720911133091
Ni 6.514494278837958 9.238912983255076 5.904380400971305 -0.2578677631199043 -0.16035019108770449 2.450434090837896
Ni 2.5336529107021137 5.027916364905008 8.115724314489912 -0.6364207946377233 -0.6161242491722163 0.6425775582677385
Ni 1.9739803553581332 8.380845656311587 10.844991887186909 -0.11846383526656372 -0.539504089414316 0.3130490362777383
Ni 0.8497293308811182 6.4734215122319325 12.21810441302615 3.2421744561179513 4.071373480465098 0.18947513347811884
P 1.7900226158528705 3.0519627960327873 7.099641862303859 1.4549975633843328 0.8281376729621672 0.4093121670775467
P 2.2266077954981953 2.212477342323855 11.602413167672285 0.12820111715898566 -1.2443090290533927 1.472680839596709
P 0.8581692607221786 4.595249557119411 11.589218821951786 0.12695516056702652 -0.7382416220309673 -0.33158771851187413
P 4.700568659468466 8.230348381040468 1.3870737128306219 0.14634667771976087 -0.09566483509417718 -2.400087520064544
P 4.7921126741101725 2.8131384987685206 5.802438205730955 0.43848596042802546 0.28375080153425325 0.5621930463713994
P 7.306903159893263 3.2197701102355447 3.0147681888783833 0.46577539227159787 0.8491764959103376 0.4768977274370045
P 1.663026220017302 8.091063821425228 13.456754127533866 -1.9449138145681923 1.129443195550732 1.1519267213652291
P 8.81658918090351 0.9686982078517933 6.187212970633407 -2.050392293318682 -0.09617494196137631 1.6155853244041403
Ni 3.9202983146277828 2.78859957810044 -0.036827084447751714 0.05226667061420031 1.1917417964796377 1.5050140045117757
Ni 8.711588037130184 7.233538894405044 9.536359490161084 -1.2594335433996569 0.8183834217888809 3.078619642050021
Ni 1.0659093665197412 4.941861811556047 6.102270337127218 0.796133609251745 0.5639642793392095 0.46128881725515397
Ni 4.558141920987192 1.2209422273564168 12.02692153247357 1.2520189961031407 0.3046250738801012 -0.10398286804156931
Ni 6.418115423500597 4.386014110843637 5.518073823871661 -0.8971674219673195 0.4040493760167106 -0.7433303494077843
Ni 5.954485061472616 3.964662887664891 1.3445617160832795 0.25592478046092054 -0.5535675094859177 -0.9964181746405419
Ni 7.321117778572944 2.1873305596727617 5.28732099856952 -0.05934003252121393 0.13879123397000612 -0.6567520499959076
Ni 3.045416590061882 7.9623186534231465 7.917656695600502 -0.7925937144192866 0.09160429187155836 -0.4847894714802554
Ni 8.89752834187235 1.2875077903577108 9.705929604114578 1.3692960101504548 0.5521210068473782 -1.1137931477183012
Ni 0.28644233466891583 3.601554194181574 2.153829883030512 0.3315720347825903 -0.7675002617857686 0.5651549572132009
Ni 2.3487693506381095 4.904482975462175 13.157907667722366 1.062508895622028 -0.3458226311643334 0.5932128917916815
Ni 1.19476675519561 8.633884572255536 2.211097028036275 -0.8396790979428636 -0.713227359374817 -0.053516226750585254
Ni 1.7409821814079722 2.6959333567208636 9.523575685072188 -0.9234811201611837 0.6251773605134201 -0.484038966467476
Ni 4.4391693033273905 5.961919681111001 7.525929859956949 1.8136808525614183 -1.4108339814932411 -0.5370872524427073
Ni 6.6002589287796365 6.895754666306314 5.57331538571557 -1.1933788178624287 -0.8995876013730378 0.6705740434806644
Ni 8.197318096055842 6.188680255943171 12.148408828398482 -2.7406676718830156 -1.0455892370485542 -1.0945474121148115
Ni 9.244729754846366 0.9980813209383438 3.747060454986019 -1.6959742071758535 -0.5636374921274099 -0.5101474906290698
Ni 4.949773369058026 8.140300642049255 3.416980176142765 0.08455895498900276 0.3726050414645002 1.3538002285077009
Ni 5.208133415284038 1.2267964058389693 4.4413566712939545 1.1459838735182328 -0.8649106188161427 -1.9848893265198653
Ni 3.276394791883878 0.9164314290355199 10.241345660819508 -1.1285055142278113 -0.30297314009897497 -1.252050106451392
Ni 0.385360182750707 5.405277083959269 0.6597771370510692 -0.26730011217739774 0.4712058192585498 -0.07210324572415323
Ni 2.2905922830023897 5.781880313465466 3.704999211278387 -0.9300608302612305 -0.8033414398540939 -0.6635896417430314
Ni 6.337176262531757 3.9245720519545024 11.69855261890557 -0.329082178481201 -0.9074472066267726 -0.5988258671030848
Ni 0.37358916924273716 7.7141987436801935 7.077879468139724 0.5213148200997989 -1.3332887388179104 0.5799686251872658
P 0.284694497674684 6.479528187230506 3.17062400132283 0.024496956700099746 0.21518205132591972 -0.7529917837569483
P 2.7972218665364044 3.721041156596232 2.230492501155787 0.31865121295586407 -0.44898197486334296 0.0996184204252865
P 5.8258334106986895 6.111556597883088 3.710186611924189 0.23028342574373242 -1.0144503495519044 0.1460826254250968
P 5.562591765162945 2.42141353346953 9.341604251492953 -0.06998362827798915 -0.8028750417406367 0.8620826624490444
P 8.179082236565462 3.4538717874779437 9.424917814884669 -0.4241222355071857 0.6399223800330787 1.2829385685001322
P 6.892790170173776 5.071027807084828 13.35301920702977 0.07120850182402574 0.9681604653464294 2.0895123992485947
P 2.621979932695262 0.18017683797092385 3.878252033676656 0.2864545736186615 -1.0936403269195099 0.18178779213619015
P 7.107515077742295 9.388942672385419 3.941075972379437 0.28619874885411356 -0.11222196812190995 -1.676106521717649
