# total energy = -340857.3075632883 ev
CRYSTAL
PRIMVEC
9.36337827211356 0.00000000000000 0.00000000000000
0.00000000000000 9.36337827211356 0.00000000000000
0.00000000000000 0.00000000000000 13.70425056601301
PRIMCOORD
 96 1
Ni 2.5842175514569052 5.53666868811246 4.535133636529498 -0.6307509979464557 -0.8300896544822155 0.03521048646286194
Ni 2.592869313165745 7.657436458681111 9.291714919291408 -0.5388358597026979 -1.5768184880485876 -0.4057763860101464
Ni 3.991008986719852 2.931982791314078 3.6410826791111632 -0.2616398285678268 1.7456368645083034 0.8154050558868473
Ni 4.7422422049687105 3.36734243678402 10.974885196935126 -1.3078091064895672 -4.38060288588643 -0.49239942261702946
Ni 4.371658411773395 5.894340382393824 9.031156441178233 0.12810187257696 0.881043005601631 0.40584837689866227
Ni 3.7013528736646935 2.0551960311238386 9.233773396964057 -1.1947399598760133 0.5066464194543469 0.296238906698935
Ni 7.3028640426742335 6.872953883475445 12.435031971749462 -0.1259434314730605 -0.44972759478011576 -1.0191973773185867
Ni 2.786747427822933 7.9353977120237795 5.4367642488215395 1.055684159390711 -2.200874847583687 1.1025612835582237
Ni 4.482361635456963 5.862439351937094 3.38244182090921 3.009147663301127 -3.36738949406542 -1.9390853808118733
Ni 9.144987033271704 8.556142887876106 6.704105952151666 0.22495841398639324 -0.3798151860596943 1.1468367084368314
Ni 0.5892514523591634 6.7572506156874175 2.7823606850084404 0.4780516385357896 -2.382374676165813 -0.2794418897462542
Ni 1.6146771641153999 5.489336809932604 12.120382192536937 0.4123067309294964 -0.8585864763703277 0.9422113495808354
Ni 5.30067409708475 7.296880843830133 0.7435187307251427 -0.16069034803594262 0.030277825047934952 -0.5658679241198254
Ni 6.052665748989902 3.6042171853881713 2.9189096422903957 1.3074005581972385 1.0570224185861603 -1.7665103655232028
Ni 7.644440089360905 0.23287190430704136 9.715655924713806 0.7026264439305189 -0.9665291003905935 1.2271114342281835
Ni 8.15551201316167 4.377594793725132 9.573735197202023 0.42439322978038524 3.021593602373964 2.9713701874420373
Ni 2.449272540907335 2.776054449607029 5.242012530952841 0.1900523461378275 0.8113113454334479 -0.22987462034108797
Ni 6.634112825392011 5.106103092420576 4.684702371577841 -0.9966673145368704 0.034316771003998964 1.840018976235315
Ni 3.9658402253850444 0.5481012766470311 4.779946657402863 -0.5760826598692982 1.164921333852684 -0.3261565201939738
Ni 5.452285921315851 5.186824778234332 11.168607879509665 2.0542587182526235 4.27152357715856 -0.6788254848561793
Ni 0.00032865458439424827 1.2817716058945139 8.140927614852483 0.23256090892399947 -0.2653779554540204 1.6599710496083668
Ni 1.3351334998108335 3.425685648047854 3.0223487569547873 0.10923691735165703 0.806962581546449 -0.11944316846069751
Ni 6.994565443079789 0.2703825348068077 7.455907527473822 1.2831617402545321 1.2986048142824798 0.28948744690771433
Ni 5.822682446941711 1.9223296905952239 0.07316637572407678 -0.7393582521339137 -0.24098409999068823 0.33360886270696094
P 2.4483549298170035 6.142526092193082 2.041522689540052 0.7168852678423783 -2.250795386563214 -0.9730974976367307
P 7.898506000841063 2.4506864110567235 2.176070692842376 0.32866488843812436 -1.6770385466136148 1.0286261268316543
P 3.932553414914345 5.724217158922055 13.065660193579799 -2.809852715519109 1.5755583903892416 -1.0777745635318472
P 0.1468102837502649 8.158264846432665 8.772063331796044 -0.17589456658020675 -0.4258531021553633 0.45219971046969215
P 2.279420855411276 2.3713411418784656 7.343752043789129 0.25955209280086267 -0.7636495205811107 1.2268648654350163
P 8.353229112992695 0.22508063707984893 12.07606251321177 1.180871172313721 0.8553324882094043 -2.0162398158066885
P 5.8322143662269905 1.3215191475114252 9.16244317975849 -3.115268660731622 -1.2743405424184762 1.7544932864576688
P 6.298679154983477 5.061992216435353 8.718192070090806 1.0732861887431904 0.6001453572454567 0.36086152777532693
Ni 7.937129937041242 2.261274627931047 12.969086308011642 0.10046585602724635 -1.0818626175582915 0.8216530936790882
Ni 4.79787003647544 1.4019037517001607 7.266007912329714 0.052920245037799185 0.5755177885047638 -1.4765547207298184
Ni 2.7118123099053504 1.469029811971453 2.607165319417971 -1.1054370624441219 0.5097741664500511 -0.7499190583688956
Ni 7.806482717210674 0.6618822428345976 5.315495388869298 -0.863807358449635 1.0302721470755096 0.09237947947468605
Ni 4.999051586341389 7.5788683499160925 10.900237534736656 -0.30762992214469603 -0.3606987769452175 0.9973594555078887
Ni 0.2170365586338917 7.803786064210515 11.588958965625602 -2.4887381286244175 -0.352765895251386 1.3406690904423815
Ni 0.7022711758768937 4.748702936114922 1.049348207416318 0.2584028096877679 1.077476315565138 -0.5733436636715803
Ni 2.338447593303622 7.571602368221223 11.623781370165837 2.4575200511504 0.39727529051767063 0.4674887754182788
Ni 5.607221744904786 3.953302661610005 6.908230411871607 -2.3117379876848574 3.1722926435251493 1.5306527881258027
Ni 3.5428776930130508 2.261883247531777 12.64938030442382 0.25374859874520816 -0.07171140960237327 0.5774438018828829
Ni 4.0450356805077385 4.34389599460163 1.2074937971457191 -1.102728148153391 0.00832651758782437 0.6694975225870341
Ni 0.4881325828803245 2.029465467080665 6.110917199144703 -1.0695642598069128 -0.1292753240597709 -0.7118109386432644
Ni 0.1292820392492383 1.5215115483113324 3.802655265361598 2.332168230514751 -3.218251369643451 -1.918377973061193
Ni 1.7050056762422179 0.7907279486470048 12.632893267608965 -0.38285294444475354 -1.3835080399847786 0.21515942561810042
Ni 7.554476748994524 7.025754856772587 9.627441663446142 -0.3093559036968673 0.08285919868907665 1.1776033001957267
Ni 0.8362255409840446 4.0701108080578186 8.608174245711446 0.3308192157769657 -2.174815945713106 0.38463317627362786
Ni 7.903543498459413 6.639187776524253 1.062730347929602 1.037551454345742 1.3611582115346688 0.14493359942231815
Ni 8.204023677029095 5.0233401900997565 3.220718484265363 2.1991653210917477 0.507824498922848 -2.4443729722454806
Ni 8.349511851739004 4.4675581340915125 6.327787089641778 -0.6063766828671492 -0.24903370976804204 1.1693192058100637
Ni 7.699047312614103 3.982928391097851 0.8408173417870912 -0.26249497747927053 1.643147807403441 -0.3179166487826847
Ni 9.299435961180055 1.2115462673487343 0.8037224452915159 0.7009122894528896 -0.5994465314062193 1.2502786163732662
Ni 6.834442307816938 7.1123192907533515 7.4175766650198405 0.12829984752037904 -1.0973668838414778 -0.6797479966704487
Ni 0.8280719110099558 0.19929108375229684 10.268526906354866 -0.3857408075155099 0.8727044038289486 -0.27370447304184475
Ni 5.244999448685656 8.68298857604673 8.886973521427427 -0.13598204665598518 -0.6224203665935731 0.3370286870217873
P 7.769862544003668 7.060820709153114 5.366419995369156 -0.3721304158209269 -0.4047574578273287 0.5899823006695258
P 1.7879371193755473 0.16350050587797849 4.838080128988906 -1.6708892391827674 3.020402924499973 -0.8968054106422102
P 5.180841579390232 8.403407458228273 3.8214307118751982 2.5800310599031437 0.5253193132735018 0.7185780821637688
P 4.101543669590909 0.041330888916656726 12.698701900529139 -1.0334837120342717 -0.3085912576167008 0.45502381018204857
P 9.127140433902603 8.429568737681194 2.1161965691982445 -3.9386986438054743 2.532328097400226 -1.235420725424827
P 4.32692955280897 4.422117658363156 5.168777802565913 0.2880293743049491 -0.2087491512163824 0.3198632309860943
P 2.624826523893311 4.990961627340916 10.14758670098702 -0.43414516696082656 0.4155645757451617 -0.25483643249274823
P 6.824666940691365 2.5952195211624103 6.326252431910092 3.050200467477379 -3.764309201015885 -1.5911426179807435
Ni 0.5823262976407022 6.172573173712202 9.943543702659792 1.880672230980303 -0.117534638584075 2.115469228323673
Ni 7.126411175354872 9.007813538645616 13.54030670244579 -1.3044648726076824 -0.006607735124504749 1.9160043306226937
Ni 2.9074413763369464 4.410085717025646 7.936350903952307 1.5442786064393532 -0.7951576184917208 -0.6635623880495217
Ni 9.27045630480683 8.42441887952117 4.457060850485688 -0.49651987254330615 1.1385449007416844 -2.553440968119441
Ni 3.4890944470654564 7.657183647462346 2.998120078818646 -2.5418632905841707 2.4166569943874507 0.04140298842681901
Ni 5.767494694223201 5.063274999286124 13.420751340754068 2.7153919280353622 -0.8362453896709663 0.826881431957563
Ni 5.524252848257565 8.599102068309177 6.162747244342877 -0.8674251577078803 1.6163144892606809 -1.013195394098881
Ni 5.779667086237803 0.45556675255202833 11.441789128141984 0.2044520665029253 0.6177548427971039 -0.4158278567088774
Ni 1.9316649789325762 6.3465447457362805 6.937831796575424 0.1835608248762129 0.23233876561086436 1.1131501148176635
Ni 2.62296321157723 7.594430284937837 0.34024457426784377 0.8109688744923647 0.0052597057370425545 0.03211950624236404
Ni 2.763769697050754 0.09385476045966346 7.86772014876044 -0.12995435240466652 0.7890414782916539 -0.7722213214105217
Ni 8.17051214547505 3.057255431901276 4.358760357927154 -2.7611043424708126 0.16406286405260134 0.774081514547712
Ni 0.5460965773160109 6.3191381369464805 4.986292110496546 -1.685839689845013 -0.7383796902707284 2.261344879944286
Ni 7.19953916122721 2.664536611996331 8.952987212336154 0.28710172028435715 -0.13257173542285555 -3.3751408558760647
Ni 4.492015278662389 9.32919277796652 1.736492845370451 -0.40935844693444984 0.9481619107373155 -1.1255569731224486
Ni 1.243971646999939 3.0768248929093667 12.25886375113567 -0.38035691749577716 0.29049814756041586 0.7155806900983418
Ni 7.017496356959604 7.2041272166788675 3.0804550747432597 -0.06753928050255464 1.3880984875689384 2.7878738972551727
Ni 9.054274622627503 5.917758191954223 8.081986083704239 -1.5287447724698122 2.034373292182606 -3.8061986421608194
Ni 6.718486228810148 0.18382933688021075 2.5084256844090635 1.2450065693410495 0.6169338895577052 0.16726543015029904
Ni 5.908834892269673 1.8600070434804625 4.39929723234932 0.668099870908559 -1.0590764729017115 0.8163928737214133
Ni 3.0734728034161147 0.1305226868968804 10.59688092630014 2.013497477174861 1.5029586646446438 0.5520153345074493
Ni 8.451095144790093 2.2916587910751876 10.81288657696418 1.4023233729190687 -0.053051885519657026 -0.7855298655939698
Ni 1.7305302459589906 8.923880214015698 2.279688648035598 -0.07575575487507598 -0.019728588777178927 -0.2179076777871989
Ni 5.054660691091175 6.552791883355999 5.485084899768119 -1.049244060192322 -0.21402248380017982 1.0392920911859327
P 6.274090923113981 5.6811175278118915 1.8613797147645705 -1.8728375654272327 -2.933764975494754 0.38510600214498836
P 4.078631482468039 7.512051281134402 7.523154375327413 -1.3554591042673623 -0.30738129646899964 -1.312095906790379
P 1.3392627497173253 2.3785790334379167 10.222713768163295 0.08595275001273583 -0.3120815301581464 -0.2736538223095674
P 7.2997085841289095 4.0375917946218856 12.068155140091514 -0.5351895211993623 0.9419863780542229 -0.7642912679301677
P 1.705782836655458 2.842965152173448 0.8530824312485735 0.10583380520737902 -1.3373204856851226 -0.7481527104970922
P -0.03822411993939144 6.4941771341164545 13.37164884770501 1.952323476768702 -0.8070317442214875 -2.4476004780438427
P 0.5219100343829971 4.175561176418161 4.931653051756539 1.962142262631337 -0.16807147099136216 -0.2426781998636595
P 4.596482492283091 2.231386723845963 1.79897092456786 0.4739430156840548 -0.9396867833867687 -1.161754248978612
