# total energy = -340888.98556247965 ev
CRYSTAL
PRIMVEC
9.10176907692505 0.00000000000000 0.00000000000000

0.00000000000000 9.10176907692505 0.00000000000000

0.00000000000000 0.00000000000000 13.32135906499564

PRIMCOORD
 96 1
Ni 6.425657873059606 1.5694362557064927 11.359549437337138 -0.6731721432251438 0.5128011262018329 0.1547852954054173
Ni 4.105607818453496 0.2511988162151916 5.931574706735211 1.2562985973151009 1.0324028202652673 0.19534958998102486
Ni 2.561410768561899 1.6817975956938305 4.6879062414236 0.8516100450524947 -1.014963027522265 1.6721112845153268
Ni 3.2292439771670782 4.408787748382879 5.000371796225812 1.2105437596774893 0.33299411194109746 -0.8275488903382329
Ni 5.055268206594352 4.433235100282919 2.9954277196483483 1.032706467548615 0.41882576299493673 -0.4635310763221114
Ni 7.210803784062257 6.0793901680390885 2.5775227202869364 0.4983145025498837 1.4048314840529033 0.04838918993666505
Ni 5.11538539173946 4.582349384042542 11.871901674671868 0.02138823586778897 0.2490887313756936 -0.8739678439224045
Ni 5.61392569440989 8.097489031549214 12.487095711654302 -0.5608874401860986 -1.763115738019357 -0.3365134379482656
Ni 1.602393761748951 6.618642684056084 0.46766801193709157 0.8477901570857722 -0.8678457901850667 -0.3980268239717145
Ni 2.849909544874467 1.7438170505884212 0.24110222371231965 -0.5154339358389897 -0.31621689248275864 0.5671917851375715
Ni 0.4777800774474952 -0.041045338096954154 4.4950798012100925 0.3702285708125237 0.582404745432584 0.34225599685899766
Ni 8.625855831679221 2.1665487181228 1.2280015900973387 -0.01260817568231377 0.7288370408876158 0.9324858947629553
Ni 6.7703691755578195 0.9733340896643119 4.9076020143043095 1.3227996663611283 -0.7098260470027518 0.5161399607670789
Ni 0.7948948159245175 7.499957887752637 2.64571499500975 0.1966945340446935 -1.0450747593059808 0.24685598539043288
Ni 7.779400403774608 4.124967281406358 3.917505196421717 -0.05441457019513855 -0.9979135282391458 -1.9661760663810781
Ni 7.320816867612435 4.182972856111849 12.93749129630148 1.1499307739811226 -2.1774662388517596 -0.24314922596280703
Ni 8.34929857647345 9.219363993517563 6.663890308963257 -0.8107395320903779 -0.8098111067388375 0.2884988577421999
Ni 6.795826823831986 0.6368726307112195 0.3141166157235327 0.47752970459404864 0.35864035175429204 1.2359894534441036
Ni 2.1883838622807286 6.497989632385598 9.207110281729394 -1.3165647411950099 0.12472087191986908 0.05653984406825747
Ni -0.15942567801411198 4.583823870642619 1.4828939042280314 1.5324607878688188 1.32446651254059 0.49807050485987775
Ni 6.806730743257246 2.3816872351969764 7.21796505601868 0.14679302122856008 -0.066616254467653 -1.2798388465288861
Ni 3.470122297358645 4.2124716898825225 0.37717822318422695 -1.166754273296365 1.267937724215926 -0.11714048846944987
Ni 6.280366332337218 5.816576584229094 4.809543194337717 -1.8165198646721104 0.8440247765060691 -0.2053249560261819
Ni 5.433874497356061 3.104941116072945 9.211413598177026 0.9514200126632968 -1.5396362225713356 -0.5538894116017105
P 0.052632800384348234 5.748504452858879 12.56112222039347 -0.2905606253672351 -2.4592845992499903 0.5781112602635528
P 3.9454530887315684 6.193244198164776 12.851288440811803 -0.16712736191053798 0.6408070966308771 -0.5264701390484933
P 2.3961772516619293 8.373709521296943 1.4707576052617197 -0.016860780311080643 1.5878433784041814 0.0655243069550549
P 6.693331801588372 8.001146805241723 5.773823754242175 -1.1948296913763423 -0.6164762331949963 0.784950596051732
P 4.73783490619756 0.9302008057274957 12.738137067263436 -0.6483180602959415 0.6512879415575429 -1.0251921614494408
P 4.216312636458032 6.069086965376823 8.26245313608275 -1.0490090613633807 0.8406502036068811 -0.26445955740480903
P 4.885001411362021 1.0057636930968663 3.981367759566403 -2.1742855271309325 0.5678399602445318 -0.8134204213566507
P 0.6162762373327385 5.530080197126507 3.5048491873211964 -1.5087567593836595 -0.7133751978065908 -0.546526029258104
Ni 1.5750065384178942 1.046485008212569 2.6154752772313836 -0.3367772331326136 0.6050577069454095 -1.4132742155036178
Ni 1.7005290365762884 6.4348961687329265 5.06712508124818 1.0463675099754752 1.2623054656308133 -0.3689119088836292
Ni 6.180019327609766 5.833833538511475 9.205951626518347 -0.3122982741546428 -0.7615180760604046 0.3815486238110332
Ni 8.544385896140406 2.3739052225854596 10.29896942944013 1.0982940236414374 0.19526294380448952 0.18100823365768826
Ni 2.3689447584061885 5.415315990087192 7.094862718273622 -0.2586745752919158 -1.0573723457264113 0.47359128877159085
Ni 0.8665785292880068 8.995942866529374 9.169717483586828 -1.0637898192169808 0.1571278274956649 -0.5433504597435996
Ni 1.52411854717697 1.2039820213467038 11.53341962297052 -0.3564952803868312 0.3472128266436407 -0.5966841381697336
Ni 4.075644794456873 6.840243457217017 1.6770391907893851 -0.28630853495910047 0.8253791363804237 0.0855539719124204
Ni 5.59991807170916 7.841183212671656 7.86048078359439 -0.1335592961471055 0.8187384911354545 -0.3913324426706744
Ni 5.208878764307297 2.9019443590265617 5.03871117835855 0.035937851547189724 0.46722266624108566 0.2941732824191579
Ni 0.37655657235221923 7.285593021055044 7.142659748715866 2.601710087538474 0.834525321656066 -1.224599209329291
Ni 5.138540292422149 4.566475898668875 7.0572833338637615 1.1079698561683047 0.682247880274167 -0.2978314479970355
Ni 7.958541423914811 7.529220075525767 8.92146035915648 0.40281884604371915 -0.17437298772935775 0.8203174055868001
Ni 4.477433291208679 -0.02170225832853856 10.277708606914702 1.4165765404039734 0.7247032212249004 0.1301135036903501
Ni 8.318015795952066 7.077217118449121 4.749197554787289 0.8326396745975789 -0.22722047054769254 -0.4519348868440798
Ni 7.458663161181349 6.094335272960855 6.958371678129099 -1.2315170194950469 -0.8014303388743101 -0.021249653407395663
Ni 2.644227765932883 4.971513727002332 2.5220128506786117 -0.8929520983343912 0.8921694545320957 0.9215378803918838
Ni 2.5024495080970977 5.17753227140196 11.478002591407385 -0.34285917766063534 -0.3341045713964569 0.7708316401518467
Ni 1.1907753543299662 3.2869856005676183 3.864978886736263 -0.9081725148285714 0.8982020338794209 -1.7640104819194844
Ni 3.7512941495165104 2.524803453095794 2.8306957102277868 -0.5376516095866095 -0.17275653517185732 -0.9697416937906201
Ni 1.2957278542403745 3.3428431577569495 8.448459620682446 -1.1371413355259383 0.5768375357574518 -0.04042468367394973
Ni 3.67922634149547 2.853650371989477 7.151598596184604 -0.17561277367372982 -1.0715213835332835 0.3554547549374588
Ni 4.057687003950999 6.953797128961208 5.9287376852954345 0.03551490507715819 -0.7778013866014605 0.48753643809777325
Ni 0.8260529022087341 7.15063198830233 11.254896385631312 -0.02717964573858545 1.589047940235244 -0.48343655699678684
P 0.04138574426265091 5.61798508344467 8.272257561796346 1.49807228308662 -0.9177707000399679 1.2474876838916904
P 8.709846957268784 1.6077547037702182 8.100798434807164 0.792614283244577 1.2080569886998935 0.9039440785695207
P 1.8276261407952585 3.1698731370911446 10.660510813248234 0.636350089300788 0.023689630307455974 -0.4430476116567789
P 4.0816519620868155 6.19719436596992 3.8379639257628795 -0.4080304721516457 -0.7136279372473452 0.7098111346044164
P 6.817425321992371 3.6995961008224576 10.699902359893127 0.13339654531699607 1.2528602610575135 0.4403353549319384
P 6.343496203066435 7.70908923719687 10.41230738925579 0.20402809159162927 0.7041490512226325 -0.47410499518321575
P 2.052740196842794 8.433681078135873 5.931201534200624 0.14996756230179978 0.2779187682335085 0.07459413046680702
P 6.883485962383468 4.0705113966640125 1.7451377172900948 -1.5021739639598195 -0.9701494707520002 -0.002795046246633896
Ni 5.142281119537159 2.8310779845315106 0.3637958920231591 2.2081862936434358 -0.7783721715032659 0.7960279369118162
Ni 1.660699694835941 1.2517390040047487 7.162294995273555 -0.2709760183670881 -0.24308006328776846 -0.4087640078835605
Ni 6.96804139765948 0.627931052711741 9.083475490489864 -1.0563189647612325 0.15429858557698586 -0.2787829160060166
Ni 2.9118561856159673 1.5486478149992362 9.289516789312332 0.1869523670562651 0.5452147666458481 0.28054103634770394
Ni 6.412360188351505 1.9463132103323089 2.716651453127151 0.3487850562267671 1.0976761875517804 -1.224611293514149
Ni 4.144599797433306 6.673690183792287 10.486253802426559 1.0227169604360709 0.21784777108354095 0.8039495057517378
Ni 8.011058631831128 7.278803101279381 0.12711712811106995 0.13778233308951754 1.6189141316670572 1.2229375053561518
Ni 7.742265185698599 4.0555571899731095 8.709904298414344 0.15117700922886865 -0.23043537794056443 -0.726410433723994
Ni 2.865901353246906 8.484814817143475 12.493609847825136 1.1320490086046955 -0.522006703960501 1.1946366015289296
Ni 0.28963103639312066 4.91115989585968 10.439283212621888 -0.3242089095492997 -0.5619372216068516 -0.3634999938394385
Ni 9.11305533000585 2.078607424728093 5.658167573827504 -0.9177406181329807 1.365074001649307 -0.2184846333365915
Ni 4.116384313110848 2.5850389612396745 11.281299707718738 -1.0795193141370958 -0.964774836703648 0.38968436554429015
Ni 0.7757228494158639 3.5170055101796076 12.734273366265086 0.25677093051129973 -0.02955148840487169 -0.6251850738229039
Ni 3.0365777280903696 8.59551963514801 7.925755941309028 0.5851388565342954 -1.3380365379155406 0.9107024803392767
Ni 5.270142772363576 7.964321047316346 3.8994946156548522 2.219713577556745 0.48979438089401445 -0.30474694416994613
Ni 2.9301780468872933 8.24270775811851 3.702338463863218 -0.3326830084585819 0.32713611049842367 -0.09459474195845
Ni 3.537630119042411 4.143653213443134 9.431535333853313 -1.528320283337884 1.452888744571446 -0.1702067721668101
Ni 7.18549176409427 6.011117797747875 11.634528445774679 -0.5482070165049526 0.8123179323210913 -1.9291215847309422
Ni 0.5798700709645447 0.2664897883641367 0.2740296939166285 0.5483180881615202 -1.4654647814642439 0.2880064914868137
Ni 4.674359168241165 0.3596245512280034 1.6059297990583947 -0.7841003322362948 -0.4235563357013867 0.7193707532683934
Ni 5.920218429383879 5.8041344658198035 0.525612604789371 -0.40595327790764274 0.6965139032748778 0.2590792669295022
Ni 8.312946110543159 9.15483245034136 11.017109936415338 -0.19710359655765408 -1.8154538853014413 0.25456209578543904
Ni 0.15339484578441492 4.735186291378903 5.596848955156407 -0.0657680475347448 -0.09526322878038432 1.9307776322771266
Ni 8.182272011053632 8.933777783328605 2.351340116542802 -1.0798371024878306 0.9233625923054485 0.13543800122705707
P 8.455325085141938 1.9049820766844756 3.51437418872231 0.5446799771883006 -1.283529408006596 0.4381866840200518
P 1.7930940286922241 3.3461835070299633 1.4778715480186337 -0.2615051027621754 -2.1104524918353715 -0.17201297213761343
P 5.054358029680724 1.2580738353235974 7.902550070719177 -0.9866119871833976 -1.593599049941036 0.6215472199600005
P 8.351801562985925 1.6073360223899495 12.472055948333518 1.022089611264717 0.4896642830740536 -0.43729373989213716
P 6.314497966598256 7.918602860944827 1.6501571156453914 0.12456609150955968 -0.7328559322390217 -0.42154264770546757
P 1.8658717747058937 3.281588251469806 6.1372965334609955 -1.3817038968965043 -0.046610500769687466 0.2567436768177901
P 6.975841613809269 4.132640072788239 5.869364114688759 0.46073500163421294 -0.7881048254099975 1.4363853475997843
P 2.4440252520113366 8.437613042402743 10.416143784946732 0.3001652383365347 0.09652923997700148 -1.0965029931792858
