# total energy = -340870.8914628483 ev
CRYSTAL
PRIMVEC
9.21106737505667 0.00000000000000 0.00000000000000

0.00000000000000 9.21106737505667 0.00000000000000

0.00000000000000 0.00000000000000 13.48132817235166

PRIMCOORD
 96 1
Ni 7.368107914410631 5.262651313219675 1.673329500964721 -0.1392483761120828 1.6699050208926272 -0.44628617319873465
Ni 4.865525348438367 7.315623251718143 9.953480476301875 -0.07286120693610033 -1.2034081770739726 -0.14094813241200888
Ni 4.209513120119843 2.9795776971639905 7.803586000998313 0.3293773411241166 -1.2666385457885283 -1.5331634703627983
Ni 5.055982591417054 6.043915637588119 2.2493187380453503 -0.3181341641101295 0.34192123922739825 1.0650990249467076
Ni 5.078706294973103 0.11769165183475767 0.44054325261340943 0.28742182262793725 -0.0029603681799045788 0.21628711146464039
Ni 0.7025806223470263 6.531604818163133 13.18360657868977 -1.2538704474895825 0.8897096801376936 0.20027170987299056
Ni 0.3313138085033952 8.575853875726224 1.730706161613681 0.7056181795689911 0.8245774664147348 -0.935584331182621
Ni 4.2249969246102035 4.951685673960572 8.880838768848747 0.7937435117530137 3.202755588000697 -0.5585801322091606
Ni 4.981704542987391 5.567095516679152 11.674425669671395 -0.7272861514607281 -0.6504975844457636 -2.8102363241107735
Ni 1.750600225229552 3.9529941009336236 -0.05526640508159424 0.2442879675529406 0.7244239994215848 0.7018430287972751
Ni 3.555987880029991 3.4276777095655566 5.3227793197349484 0.1586308944037526 0.1125407849139094 0.34870560913908333
Ni 7.0225455055704495 1.4019060534347467 7.737567516808094 -0.1047562558724841 0.404613990270929 1.655190597500588
Ni 0.3346021596057501 7.5077753311193325 9.58364690456336 -0.5350046588820657 -1.3422279502890688 -0.35488345581502106
Ni 8.691765949317354 0.9038424475191653 5.830957598887212 0.37617707508647474 0.038289896719134055 0.2760786297009762
Ni 6.40966870641811 4.017922915836983 8.377283524481557 1.148489670659222 0.8668998813320296 1.5655431722450843
Ni 5.862107587004701 2.3217508885452878 12.605176408718036 -0.2078991445112613 0.5821504633299329 -0.19692721888078987
Ni 6.648391943168056 8.675268927400497 6.667932301791406 -2.1669905361314163 0.8250083833045663 -1.5683402753742475
Ni 3.9980822764126906 0.9854552690099069 11.738219681057078 1.2144225259066053 -1.0636077851131618 -0.5435227236554058
Ni 4.363466902542137 7.37711633843893 5.6233852713615065 -0.34221794453221066 0.6403224436849747 -0.291312158821279
Ni 7.077489523289068 1.0622571499382958 2.126612581056189 -0.06806687087125052 -0.3082881245539852 -0.9072659438539019
Ni 2.8140087586070477 6.129937797097621 12.557507292121658 1.2258816755861404 0.2484467269163205 -0.2754127139822031
Ni 7.6143658043867015 8.826873887606824 0.19277658977861162 0.26091991968266676 0.3232254625901078 -0.8226367977485962
Ni 5.664272278947621 9.159181570294937 4.512361966685964 -0.2984541691826989 -0.053582046991514164 -0.3381316902779789
Ni 2.56171761940957 6.453844986213331 10.054401537514623 -0.23436453779164151 0.011212837996683916 0.1333636351965316
P 5.715237115500365 2.680070625891804 1.2330211305729084 0.34709609856011836 -0.3035675791498643 1.205076308805015
P 7.695717952666808 6.720514601799536 -0.053012456861016556 -0.8097020919647989 -0.9446634106657537 1.5604888976506286
P 0.5102258994605376 0.313648823225815 12.218949900125569 -0.636920102871645 0.5457734673627955 2.96744437002507
P 2.5945550750955504 4.447177084105726 7.379733202719544 0.0781147420255558 0.15109190571423012 -0.10154983312004445
P 6.235367675858275 1.6815448520801 10.521920322448358 0.04330869008996412 -1.0591970576399758 -0.16876489751396095
P 4.17357153468178 8.000530598826828 11.937069127647407 -1.019709798178631 -0.07216109554528218 0.5749300343220937
P 8.57108254275418 8.400723849090165 7.245001075984629 1.6105271931549423 -0.9140035196880516 1.4777829367099644
P 0.07541469416084078 2.929966887535746 0.9836922706878041 -0.44234287228027047 -0.5149503113343519 1.2853626045605928
Ni 3.1775143269637205 0.39083572677627226 4.805500505879247 1.020513782137165 1.5109576236897204 0.29448155768819606
Ni 0.21583004955164728 1.5183247357391252 3.5498229125431395 0.38131979562967877 0.514210862065166 -1.8000678897636742
Ni 3.6690537337594193 0.5989911148755889 7.535954749963686 0.9090502894478344 -1.584237149110162 -1.818556949706797
Ni 2.8353047466984886 5.150322344891335 3.269545786919094 0.9427592516645054 0.2688728559811563 0.729017532329538
Ni 1.8482191187386747 8.643407844870959 6.379485880389549 -1.6532643270121528 -1.4470880787292693 1.0909206139955017
Ni 6.780801038676042 3.159764599865015 6.3255873188337235 -2.935537236903828 -0.020214013054029704 0.07264934803561036
Ni 6.973413671452912 6.496786982961729 7.260585281110886 1.998845017369009 -0.11515328283609201 1.4270383591672455
Ni 8.545319186918642 4.469523133893717 13.270048762877892 1.0552452720810792 0.8412004196833964 -0.4337672147961175
Ni 3.1849752916497356 8.434915331700644 2.8558168729445224 -0.23439719080178986 -1.028945714954602 -0.9484444749747407
Ni 0.39029319489972125 3.5807195963040046 11.189516389271985 0.8531555351627436 1.7339321744768657 1.041172338927781
Ni 1.9733791041134585 1.8366039626040265 6.6405920111975405 -0.6264947937732629 1.0918832350190872 0.04497836448290318
Ni 5.191477394542097 3.6311225577384185 3.300040868136366 -0.27413667548325693 0.2492972478420739 -0.3917559033613382
Ni 7.877829968478175 7.117373445622952 11.368224915637075 0.1456920748548975 -1.8296764566587262 0.2674703192066748
Ni 5.258874775539101 0.16708968580343794 9.170929365801781 0.5573750561574659 1.7034676873394212 0.2729462547195815
Ni 4.129818963992184 4.228036576889691 0.9024939472351745 0.2075276201044555 -0.9032231412430961 -0.9949169075046672
Ni 1.5419695460465337 5.231471849686143 5.368830972875938 0.02833869904369313 -0.7222419041686012 -0.1382376754593813
Ni 2.550461694907952 8.849763390378119 13.36243669114604 -0.9425679615893057 -0.24901108406022274 -0.07345127511161545
Ni 7.99229590446967 2.6710529907959906 9.968687027660076 0.2161500716661439 -1.80028797619428 -2.383872600867578
Ni 9.04629993791578 2.859962774432393 7.527192261438 0.4136437045733651 -0.5179227636991145 0.45546295460199626
Ni 2.8906079960501376 2.5471825548731104 3.117718839985689 -2.829435522747043 0.8006713492210985 0.0890288178348983
Ni 6.2595283059464455 4.793642177562241 13.256581261066257 -0.6616440879808863 -0.8329721182363332 2.0803523300158817
Ni 0.4935289973786366 6.165253029944759 2.0746824246280204 1.0448027365915167 0.4990565229222308 -0.021004627276125114
Ni 8.511873800776765 3.5056309739331453 5.165410994585362 2.703220325669835 1.1027952539459007 -0.9416274520529073
Ni 6.812570010530446 1.9957712092390176 4.320023823720999 -0.8007698224721758 -1.0305868501024509 1.020891477191558
P 2.3870481461491915 7.2415386357062665 4.715485348602601 -0.01220862625104994 -0.2511831520108771 0.01927093241447004
P 2.1441707179506118 8.235320709748466 8.72953777387037 0.28328851718585407 1.1077885933954341 -0.8988103568873811
P 1.124533177397739 2.4678844746485367 9.488940550602036 -1.1708850076352868 -0.9943702909725778 -1.0150090502688518
P 3.573102043470258 3.836943861329789 12.0414415758575 -0.011337022279374024 -0.3470400485112023 0.35714988325169456
P 4.8065560942163055 5.413648342970104 4.481732403882992 -1.4848627263748815 -1.4212811449684941 0.26232528467062566
P 1.9224419007632558 0.8654488759089819 1.863780296196149 1.1495854748265621 -0.05885717934752444 0.05169768548460774
P 8.260162958832645 5.65142283976615 3.6347544816590305 0.17008515898728127 -0.658270286412647 0.971564863042288
P 1.316924744554282 2.8087768722593234 4.843517344828125 1.4131860266651854 0.36650484210403333 0.15815652587049536
Ni 6.350625763655939 6.741119759827458 4.405118428731881 0.6635569887328829 0.3803152656245644 -0.03242341063602803
Ni 4.811226105445701 3.301172908333787 10.200863037621355 0.9472789939117298 -1.1811912746573012 1.803532708383823
Ni 0.4353297884007124 0.6191283506738191 8.428337708389183 0.3410277808788514 0.02979882852898739 0.6418075128709333
Ni 4.597943837168315 1.3660473676043057 2.7125645087595274 1.8141616488525787 -1.7590726782982349 -0.8545107636390574
Ni 2.01064708327348 2.08622389222256 11.938107214956188 -0.8077120581179638 -0.5935988143761907 -1.000582590430877
Ni 2.5280972229849334 3.917116992968155 9.955030698964412 -0.33031322267482466 0.5091491312715426 0.6351082464738869
Ni 1.7871681632585403 -0.15465290244657653 10.725286876547354 2.0065570413012863 0.17958229984443913 -0.4227587795007558
Ni 3.315422429777325 1.507363565397942 9.534480989496021 -1.6417879509414368 0.4462172676340122 0.7312456503291084
Ni 8.34240858066157 7.327431840270577 5.36858872180033 -0.1332700470414608 -0.37284646805134497 -0.3841665210498545
Ni 7.510483384968331 7.54313661930404 2.508403039534107 0.28229504292433316 0.4815668507778996 -0.5647464089208726
Ni 3.1075194249278812 6.719050042064875 7.585417261404962 -0.3069197834515488 -0.637843900237495 -0.22209034840997882
Ni 5.137399217169755 6.8505656640240415 0.05672451706899697 0.4661399746998682 1.2406410932835021 0.5956947776732708
Ni 0.7073169532625189 4.032080326605385 3.0402279712072833 -0.012108867448392048 -0.6422104047363068 -0.002551562777260122
Ni 8.427316201001926 2.170514371039505 12.504808011556106 -0.4650791375355216 -1.5340114201853903 0.7805064442374493
Ni 5.293618922200396 5.294687406031974 6.616353087035505 -1.8986861510592208 -1.4470189160542306 -1.0571237200507149
Ni 8.29519264858686 0.09194119149374018 10.733213921249558 0.5857538644104751 2.5467193331248916 0.21045404972263107
Ni 7.211759254434801 8.00442688038508 9.352065008456707 -1.0372254384648911 -1.4210489743530301 -2.6796690207124563
Ni 7.198928237388357 4.197096601111512 11.374021440423384 -0.7260090845205174 0.8366007161278559 -1.4435900928783396
Ni 7.617156757843322 3.5325549242753955 2.995186772172535 0.17204408248586497 -0.5905083483763249 -1.317446629579331
Ni 0.6552228398326082 8.329623618952695 4.071374740618398 1.5026401049629605 0.5217984446044369 -0.7638765489902521
Ni 0.4479010533432724 6.376361486288936 7.118505485820373 0.3559468640825289 0.6220236453757868 1.114288599297481
Ni 0.23186743919957456 4.73426763636958 9.045068418189212 0.09130064458821051 0.41076406903272483 -0.11981649263971625
Ni 3.3452847106564128 1.960732308417287 0.3458341353318328 0.41853677099960823 0.1356403470458503 1.726751083347394
Ni 6.133290625672571 8.902036198517793 11.512070472569947 -0.2603257377420936 0.06671164239493671 0.4722936530060899
P 5.157810942779891 1.6493429600525578 6.005460351825595 -0.5024467795507025 -0.10436570530228477 0.1376730612051629
P 5.482639238646962 8.317391321294634 2.4317218235901468 -1.0345648609135925 0.2139180970118316 -0.9705423353150445
P 8.206140047865386 4.7466104668378035 6.978771749425572 0.11869652010266007 0.157879875170341 0.36725714688902555
P 6.476964765672465 5.702875862897115 9.835343929906209 -0.10459813302806503 0.25818837968411656 0.4171373195489203
P 5.118028342188658 7.618556840105389 7.707504434657209 -0.5440757679453985 -0.155174560424036 0.7504847010643784
P 7.858090650796532 0.004205773426709322 3.9093557474811966 -0.08815669964259011 0.10874815064069658 0.5852658690304631
P 2.8219118545337154 5.799251262291902 1.278205101154117 -1.427631255556238 1.6184078814546 -0.5729047763619487
P 0.7614236849441511 5.690090901188239 11.158266000518596 0.2525448082450941 0.9930292035636511 -0.6476750273953038
