# total energy = -340858.27214058663 ev
CRYSTAL
PRIMVEC
9.37040713910575 0.00000000000000 0.00000000000000

0.00000000000000 9.37040713910575 0.00000000000000

0.00000000000000 0.00000000000000 13.71453802334972

PRIMCOORD
 96 1
Ni 6.928047900369572 4.387749302276656 6.485851834544582 1.6330199749408199 0.690293890507095 0.9291524595143482
Ni 2.746269514457775 0.02671877853249431 4.092390325333528 1.0297802950407553 -0.06568474379231913 -0.34494125700064465
Ni 2.409459605089754 6.940107614184302 4.206646509060913 0.8533979901908529 -0.1794419176118329 -0.6282943088758469
Ni 5.9562804715658775 6.857535587661071 6.599558912421505 0.04902116709370912 0.17432799342403524 -0.3558874715995032
Ni 0.9487068571657384 1.8225160511448923 6.814698772040219 1.0064547329409377 -1.715079817657053 -1.4766827616672504
Ni 3.3267193763485516 8.080860962906282 10.1656818802861 -1.0151139512778324 -0.05615572125596135 -0.737461292221517
Ni 0.6366535631034793 6.8761639567859225 5.698116388186222 -0.471400194657543 1.342565536134146 0.8525567252364802
Ni 1.2369593174366897 0.361604006301801 9.839207529843987 -1.3167483179607258 0.5775510168847086 2.940860191778638
Ni 1.7671556865625901 1.0309228082228 13.114073884952004 1.2129497980158208 -3.8224564987805785 -0.48279840919215555
Ni 2.1228938180796044 5.0516801201700945 8.483113794793397 0.7791257618398388 -0.17883693703798234 0.26391088399019064
Ni 4.118649953922804 -0.4586214522630948 12.17177544913661 0.044593984560290935 1.874302065787901 -0.6014967290670287
Ni 4.6531660806777575 1.4171616145393051 13.255265303613685 -1.2810709191637744 1.163221834663074 -0.017180368434028478
Ni 7.137467126512069 3.1326582472863516 0.7522834484977161 1.2184265048596759 0.5405039914337401 -0.5356746883658968
Ni 9.20236749564112 7.891700556707412 3.774145066322727 0.07076524363902006 0.8460438638186267 -0.8420982489073175
Ni 3.88875638847558 6.753814552528792 12.691268939382027 0.23897272598761424 -0.8234292117429044 2.6168646837917255
Ni 3.0456914998780333 5.705996900476966 11.05146270625414 0.7480717207475117 -2.082960714173006 -2.1394967015865216
Ni 4.52530687710201 8.737257973568143 8.073501445244986 1.1015354133968707 -1.1169129242942055 0.673270359365905
Ni 3.5539704870205204 3.969810409064089 0.36102116698612413 2.12971288272688 0.17811702815282227 0.38630285066656694
Ni 9.361917415705925 4.879948670999504 12.548582940803135 -1.9242264614221698 0.34703284942235074 -1.3942364821458761
Ni 1.1039838716365118 4.293051969089664 10.551978783126032 -0.7974615840345493 -1.3342595873716119 -0.12053383042171499
Ni 4.406424523436528 4.156824992058942 9.420351273785686 -0.4149364552428596 0.3186908079445479 -0.3404978765173104
Ni 4.4824653762776565 6.206657746724834 1.701069017082292 0.9515058875088839 1.0167010932592941 -0.251366985886909
Ni 6.495809766068213 1.525361704219712 11.832437403958787 0.49074723172558715 0.7218256425667892 -1.4220838433754475
Ni 0.6165062510032072 1.1775321962144552 3.9837029744888897 -1.00693938588684 1.5867529735534802 0.27907653598703547
P 4.3680901883813155 6.38513588893863 9.281821050713269 0.008970321819410357 -0.27332317844302606 -1.3484268800109294
P 3.978815370195368 5.178780320778481 4.103238445522582 0.4338610600615044 0.7558140836970919 -0.13132346483805124
P 1.4794467098978972 7.566200728593764 2.2604167223990426 -0.41976627253133514 -0.06085081273878552 0.012018364617114786
P 5.628840969202309 4.695248578534751 0.6405563376208336 0.14829737368822846 -0.03365214083680656 1.227370344316525
P 4.418146902599098 4.047837788190161 11.664612477468353 0.29917690628133636 0.13759078590400176 0.08248330340689665
P 2.9716652845428624 1.4064418689262121 10.753062095197368 0.7682777633817414 -0.3983461549843462 -0.37738395091038235
P 5.018349582455259 9.20366998221474 6.006281900382334 0.03197218203122235 -1.3602652674067541 -1.3432486782440995
P 1.5096381612662415 7.990249127173233 8.823521940451126 -0.2187790246485587 -1.9273133278776096 -1.3739666761532467
Ni 8.396606197328296 8.508301448821364 0.9598407747684282 -0.08487057269215062 0.6966655983613936 1.446004101636471
Ni 6.958408019063996 0.6587161863954615 0.20550989234023945 -0.5758515176950986 -0.404351994858794 -1.055472557600537
Ni 3.1621000660943395 8.303567426181093 0.8272691935101424 -0.5530239782776217 0.12492553173150743 0.22506202944379305
Ni 9.348845697934713 9.127835278327709 12.293122219844264 -0.9899554497343337 -0.4800131331375346 -0.5688591455376656
Ni 0.30658940973796317 4.605358264141043 0.9746263399807529 -1.8436735422687667 0.5957094329612902 2.9884749654431246
Ni 9.206546697165106 2.212924688578379 12.426756405256855 -0.5839818601117168 0.8325802821145533 -0.7532064708709157
Ni 7.078911453141249 7.63398625286397 8.372917808421041 0.35495724647574994 0.4311040661416575 0.8723997281043363
Ni 6.458637361481551 4.552968318579152 12.431487523753402 0.2855310333631276 -0.8859121607684743 -1.9845692241762853
Ni 6.05129639859102 4.915312587034306 2.8660092603641645 1.1192405439861175 -0.48859007617326816 0.2244125687852522
Ni 7.345424569161872 6.197512229488488 0.25545416167396834 0.08790216042962282 -0.17892384032483377 -1.7646041496394254
Ni 3.8251781769503737 5.993227986384432 6.802945470534535 0.4787831173851755 -0.4734439645604492 0.7511159068904741
Ni 2.6187663863481974 2.8897023344749213 12.288321760335883 0.37262792428263564 1.2096490157773618 -2.3711276424970844
Ni 1.037229092136796 0.4122885377888817 1.8767519668866601 0.7473461554353968 -0.8120199414646984 -0.790611136771619
Ni 8.61113229528822 2.883583458701014 2.7425925667492286 0.4752280530440654 0.6709265417240767 0.4465106305047149
Ni 2.7847912576530773 1.0343898588144471 8.51864825223568 -0.03858865890647547 0.30949551459852503 -0.2977134343619324
Ni 8.396475011630235 1.1247861751863952 10.094160374743218 -0.8791750991549568 1.4142730890817774 -0.26150613120343996
Ni 0.7770878528792008 5.4677261911677615 3.570730396988683 -1.4526426899989109 -1.6598622919446446 0.06323396825898141
Ni 4.082911221607825 3.40812947240323 2.842914018220292 -0.7994896702081715 0.8550812914305467 -1.6006942662249206
Ni 6.640901148125146 3.1970704250349544 9.810324187293464 0.5522917280972874 -0.09231828721944746 2.2453978696967267
Ni 1.5577645716411068 2.772703432617334 0.6479636443578529 -0.30154026430719033 0.08036034352662288 2.9586131448866855
Ni 5.025686611139745 1.5994066603688912 9.284975129710967 -0.46263067599502905 -1.1527469032736792 2.0705219741890213
Ni 8.89016427506679 9.127966464025771 7.640958772715982 0.6297202426890961 0.6071181890188642 -0.2622208978822774
Ni 7.258345376869499 0.6700637492778528 2.60599545864183 0.8214618036038884 0.17642164272827038 -0.2739271305756121
Ni 0.9851108883780343 6.557551377820546 10.981463891849485 -0.9362985836408262 1.8471944109378315 -0.22862095043964495
P 0.38439939542153134 4.146114616852853 7.388460037411218 -0.5701313273818698 0.19733345318027307 0.6118870711624171
P 5.473610806766557 8.067554984959962 -0.028512274433146415 0.23314120690750167 -0.03699097540205242 0.996200402202781
P 6.523949098302581 9.365028390831402 9.569030584684626 0.3668388284046844 0.01663632300510038 0.962205276204259
P 5.860589875236414 3.139920312714802 7.9631545953198595 0.07900691482252199 0.2673785308238169 -2.6965228590450008
P 7.319393578503504 1.631041154415921 4.541102572189415 -0.09505728341716532 -0.15576411437891885 -0.2679953384722094
P 8.199546538024672 3.6644382151960047 11.028751650797451 1.8174557462228185 0.34468568934641286 0.7600173231451621
P 3.157799049279296 1.1326104650351125 1.3581449171438658 1.1254019356018232 0.19760727566695 0.08128002712741486
P 1.9147958193247352 5.118547344553864 13.368478561041474 1.0673718801412844 0.5411205419718165 -1.1107466475824934
Ni 5.5642507537206205 3.7385487641942152 4.994697738135322 -1.7020769776394815 -0.2012379304410018 -1.2696901881306584
Ni 0.913421652549774 2.587056929045132 8.877324006348589 0.00181365616997107 0.24441857959353389 1.5128239874744978
Ni 0.26991644784463953 3.4051122013477966 5.291535365303752 -1.1229611873708143 0.2588887481852509 -1.0166892661847522
Ni 5.529439691699082 1.7921653028574724 1.5542684727877456 -2.2010900489182865 0.49559453251555935 1.7971789982516533
Ni 6.516330957407963 7.525223938763296 1.9214478712571958 -1.8771197377423545 1.8573055312299045 0.4412506676573562
Ni 7.258017412624344 6.28033725700084 4.690645834614164 -0.3658666942994021 1.8489211638209513 0.12485276951204305
Ni 0.5621569533366854 7.32517511962525 0.14589067777441386 2.524620701453639 -2.3953219803551002 -0.7633013932130726
Ni 8.08264134023713 6.190699943596252 2.3297849084122997 2.74150816550644 -1.4658465902836948 1.7040315302626914
Ni 7.656999972466903 6.052767552490719 10.393274073773028 1.1470028017010505 0.03913501832824873 3.091160969050141
Ni 2.3831662430352623 5.603287869301168 1.743556316521878 -1.4070007237900801 0.0918248925227967 0.4873806292461993
Ni 4.6377611315624385 7.286737710092989 4.652862479490813 0.7234534079781992 0.26592534331705814 -0.1459954650279292
Ni 6.594358336534034 8.432429263306316 11.754277902093953 0.789471366740221 -0.27770973754649597 -0.18246630626045351
Ni 4.407342823322965 1.574069079828853 7.133370384569723 0.38585007939986454 1.654970768180298 -2.682078144374581
Ni 6.944211852452252 5.289894607037272 8.62296056004994 -3.318510766086846 -1.261893317794059 -2.283679795996061
Ni 1.824540059057854 5.0601509681021195 6.05144351398099 0.2868947464798737 0.046647524655209986 -0.23488647173338256
Ni 4.838896917913 8.840894675037381 2.6633498458346794 -0.7571402587076832 1.1164429266363225 -0.11481364010848613
Ni 6.834512497651133 8.657140993680079 4.346137198851285 -0.8523232690694353 0.09175830095091939 1.6172177178012406
Ni 9.055589440323384 5.941297190765758 8.455478590455868 1.5726859539374527 0.9964009482493615 -0.7735073872117969
Ni 6.8729686479974035 1.2243936016437196 6.699730437380497 -1.7332467183740667 -1.9644719392057781 -1.8649928725718334
Ni 8.1591975654635 2.57452869488018 7.6641224188309875 1.1543980657238568 1.6403327065521491 1.71834948954726
Ni 8.803394306205565 8.196201302724083 10.016851705834389 -0.6346691020539392 -0.6097535697591822 -0.26584229668494863
Ni 5.052888902673669 1.7091341263910236 3.9005930866036036 0.7824537977718072 -2.3346884258334435 1.2253085766914897
Ni 2.729965006270029 8.142949279717781 6.5244991411937425 -0.37168921451845016 0.5109463323812813 0.18568609874933184
Ni 2.6883697695772666 3.306507408439949 4.765610027690481 1.4102721954525002 -1.0343298620846508 0.469914611250952
P 1.705620223764354 3.3303176126382614 2.9953377437582094 -2.0580061011101973 0.5437926894873409 -2.088945471001532
P 3.2419640449932836 3.4624590922150427 6.784047233687957 0.12185512033629983 0.4335137040244147 1.8961158192288827
P 8.131798495382483 7.450279423541688 6.373982293481231 -1.2366008617758573 0.31638607107077127 0.6486474186109022
P 7.880521661151101 4.408551605826539 4.424899217886506 0.3075466184022704 -1.6704362108057489 -1.3436772811410858
P 1.1434239147182501 9.334565197659929 5.5405089534934415 -0.2636560876669072 -1.0023926470564222 1.4290057673062615
P 2.022311869293817 8.29457183545682 12.07501943753074 0.08805822639151287 -0.44416784130415116 0.6182772909594773
P 8.928123793841825 1.5695525436527074 0.7537114985251945 -0.9737914383799615 -0.26889008237233686 0.5550163261173022
P 8.368738606897056 6.946273341993232 12.185311939095241 0.008273809973018008 1.04023800003897 0.09462302409322414
