# total energy = -340870.40461608826 ev
CRYSTAL
PRIMVEC
9.21320740036590 0.00000000000000 0.00000000000000
0.00000000000000 9.21320740036590 0.00000000000000
0.00000000000000 0.00000000000000 13.48446031571136
PRIMCOORD
 96 1
Ni 0.8377781489187238 6.508375620135717 12.489239831294752 -2.1029330435298754 1.1791415912171241 0.014855062734961514
Ni 0.06154883274536699 1.725016481013891 10.774893165893825 0.9897482188195341 0.7803292952296367 -0.2570892330826669
Ni 8.484737615127058 7.543875651383383 2.861847053698073 -2.135780686187515 -1.54463213312403 1.6951601959149902
Ni 2.025735574017226 7.628158073650372 5.519256718115913 -0.5600482321142548 -0.11774983991867462 1.2166074493730659
Ni 0.06938098044641279 7.209878452867547 7.696471243346813 0.563469599090978 -0.6549268238617107 -1.2570853548824543
Ni 6.270407683457313 5.2557755672112565 11.084253326217253 -1.0999513567392025 -0.3841757770212352 -0.7808255181397649
Ni 0.024351428759715514 0.4260187150880578 2.977786978277217 1.1434595644344823 1.5763909135928658 -0.03221772238312516
Ni 1.4231549502797836 0.8527892279086238 0.48050378163839846 -0.32049906479788026 -0.38629462313645085 -0.6122190005805392
Ni 5.804376008169699 7.682810820577327 11.184955526901843 -1.6301025441837085 0.18111416310793324 -1.3097718866428927
Ni 5.2977785802321575 1.2185388247739297 12.212457572713351 -1.5253074646534892 -0.07167824237159269 -0.0483285119020587
Ni 2.526519468018337 2.0137307646366085 2.1668579586731473 -0.02443473600359663 0.7631646105248922 1.6436178050613242
Ni 1.0503148689176833 4.2045485907504565 0.5580439786523282 -0.403612288479292 0.914239804068574 0.007784786151741431
Ni 2.340587727335117 8.819536362695937 7.594879968137871 -0.4766976956110564 -0.2293675987976824 0.47206045394936125
Ni 3.511457416471815 7.482875004484637 9.91133461973117 1.2410966927636817 1.059967360147097 0.2226030263803392
Ni 5.983066167753023 6.32815606810636 9.001618825283053 -0.1331970277116803 0.7665605235803186 0.29250489357779946
Ni 4.70943236209184 2.568365856511632 9.69964182953978 -1.6318886895498539 -0.41862521694835647 -1.9702461226853938
Ni 5.707508344449201 4.785091222132998 13.297080583742732 0.7922257895569065 -0.9546565173227235 1.1593021878936938
Ni 7.947368074118709 6.560006435000629 5.1503893718304985 2.7053880227451153 -1.1116107953550016 -0.4369342996701894
Ni 7.116677645734528 0.33861117283495606 1.6685128006989354 -0.46245404120784867 0.26579575971772934 -1.1943301260321044
Ni 7.2130385830421835 8.87230961529162 4.583274069067537 0.11411558560019702 0.915175942729598 -0.5629517789142949
Ni 7.449771949914754 5.534051286729416 7.548654542116865 -1.282743935990823 0.881750573191617 -0.5162507753133302
Ni 2.494724688914338 0.48836725424496547 9.973335820965092 0.031078466572359378 1.1657230038183728 0.47331258118890746
Ni 1.102185227177756 1.1532356099697743 5.224271004143704 -0.437417152843879 -2.593022587066805 -1.031834349356307
Ni 1.4825985651099771 5.768352366820341 3.8749083180643167 1.4429799700981665 0.6813189407019944 2.2383275931135063
P 8.812184223105966 5.91040160015139 0.8262330785926676 -0.23062923911892538 1.606612945702201 0.057788371763377894
P 2.783521891404612 8.413980181479214 1.2442611788105724 -0.32665917086200513 1.3729999413646032 -0.8210339720378504
P 3.71399135708126 7.031519968754448 4.421487381295893 -1.219890748110028 -0.7881595899073329 -1.0547361936551447
P 6.554985236909733 8.730905306486008 12.960400499201082 1.2247809863227939 1.8033776708631972 1.317030367977519
P 0.007473753929053469 8.29196046126671 5.023177087867483 1.609684128428357 0.676951664872234 -0.5847326222348123
P 7.5804705115981275 7.947248302421129 8.96606045091276 -1.396653319117485 0.7184425850271692 -1.497496613088808
P 0.24628377777352778 4.662131754754857 10.390922608543448 -0.8452082552912089 -0.3411583929194447 -0.5867702214901314
P 5.5930250279767915 4.202881000191829 7.815471795459526 -0.41928701890207143 0.6924428185292978 0.2916608004099493
Ni 6.980045778417143 2.5924860337629414 7.201753325167803 0.5793225069628345 0.7042914903377676 0.6838036547970611
Ni 3.982399731360248 5.2223131975486305 9.588125165884376 -0.04863575872983237 -0.6184233296190382 0.3357575336188476
Ni 8.906978915137563 8.294733636726086 0.7911869585597207 0.2329774276361278 -0.219069559305784 -2.112190557572401
Ni 5.256420491736693 7.144363334290748 0.19355566989462503 -1.1798949244433807 0.749096048246968 -0.3730015055719705
Ni 4.191428983261585 3.695703140181395 11.52611230897077 1.6843844454557249 1.1516917225362875 0.8329736608982299
Ni 7.283077386504541 6.7552619416801525 12.588849345569104 1.9106083564181033 0.14481610000784736 2.783399663533903
Ni 7.485242798813738 1.7487773431724571 12.730787099089326 1.7006929528077614 0.9280828805992533 0.7423088501218055
Ni 3.833735415039727 1.2312806907550455 6.53485253586712 1.38213918466171 -1.3045335210620888 0.7588081333284094
Ni 6.643321470479462 1.5468514742584223 9.928352335315925 0.7671246236139047 -1.4563113970997499 1.4702820003472292
Ni 2.109234873646185 4.855194518047899 11.643332869393282 0.8158308305703562 -0.7620240691625457 0.7847667621757001
Ni 4.1161662911431955 6.987499263289683 2.174490179771308 0.4914835956709794 -0.4421883489802772 1.9803297321736413
Ni 5.153997263889938 3.00139582251193 5.33620594741989 -0.3787327516287929 -0.5161512736209886 0.033805378585219197
Ni 7.9236164251676495 3.968745757836016 1.0142350270025373 -1.396357642253937 -1.125463642077694 -0.36528408232305476
Ni 1.6804521963062582 6.173143851814046 9.7506940549733 -2.046711244922669 0.3073645842984513 -0.3081505705348564
Ni 8.459585558635052 9.23034407219121 6.844685333735618 -0.6102557062065813 1.4586616424994814 0.2588144433038898
Ni 3.3755073265098905 8.684645791597228 12.326172507679741 -0.48094284404065557 0.2998263669398772 0.14746716447744923
Ni 0.548245732469453 3.0663950014683805 3.6655621318247644 2.1068148950827843 -1.668696602406823 -0.221694912743773
Ni 5.754855017823716 2.5676932923636766 0.8102463209278579 0.41154182773901377 -0.40221360835955244 -0.30823387427728205
Ni 8.185658473059833 6.625742670557577 10.486069245101785 1.4248902024759913 -0.8762296433733876 -0.7047375767362508
Ni 3.373812096328744 3.860352371525224 7.785334472385899 1.1053704708722447 -0.3524871876687027 -0.6739974673399166
Ni 1.2724084490628544 6.995699017970227 2.052024540315501 0.6503692863980154 0.19588463654888844 -1.006037700008177
Ni 5.717412542518398 6.275871115508506 4.169286881661864 -0.5560761348403842 1.6527868731551019 -1.536829863470792
Ni 1.978766642150467 3.5420636918075092 9.623912949121575 -0.1555849084885772 -1.1811501370067208 0.17468049166744753
Ni 3.499185424073517 4.661855358529671 4.48311084102206 0.3615924924040805 -0.7226036583833942 -1.640488515403723
P 4.666268484925155 0.17077877829772414 10.413347555613612 -0.6019937233081052 0.5923986234205023 -1.5303666243439513
P 8.38471903443943 1.7834190033958803 8.806309881999994 1.047240142388416 -0.2899638723235006 -1.8425548552832913
P 0.5502053817060281 2.5646713603016336 12.741022051307997 -1.2456007512816225 -0.46033725197516207 0.2751090666988552
P 6.0548831202640825 8.035381845425722 2.786954732521433 0.3875842884821518 -0.032855613077440185 -0.16254771295965553
P 8.293434574467707 2.2607276446711184 2.1901194649848756 -0.6580638268287957 -0.8067075281128494 1.0608536194067923
P 2.189813586495669 1.84631757104091 8.01149568364507 0.5878999642192004 -0.13424603780148492 0.06088552263146287
P 2.1980133411762135 4.264692409351124 2.484822333486643 0.22709680048563471 -0.17929819294511704 0.3261724610335738
P 6.245154281682737 1.1137201629755555 5.935185128343147 -0.48958637864826654 -1.2598222941976434 -0.7768829885522491
Ni 0.33532850700048644 8.828187564544287 9.245525595519974 -0.1879926353953214 1.2634277521607145 0.5223795139188875
Ni 2.7338166369085033 8.890726817096573 3.352587630196643 -0.49628024572867435 0.3152866673590054 0.8638263846130285
Ni 1.776463031728677 4.9982940570346575 6.293426882411627 0.013086143759996817 0.9616447757150988 -1.1772474595182045
Ni 2.426537740160733 2.8301499345936403 5.815537809063496 0.9518630137379864 1.012252313459321 -1.3773476768103377
Ni 0.18347826352431107 4.920212123419362 7.853902847930262 2.048786896504775 -2.255481993405606 2.1139211671102625
Ni 4.70339771117526 7.808257853982148 7.714257340437589 -3.4050844375130325 0.10162439511172175 0.971418824382727
Ni 8.02084340398089 9.07180319742401 11.375720516242833 0.4560987884137822 -1.7906879912106708 -0.2899613012203393
Ni 7.910782427111472 2.3011459860009476 4.808261517690414 0.2735813172004191 0.059011702647517726 1.5665775270468698
Ni 6.482053486290419 4.841402346411073 5.632917295158015 0.3841613788435319 -1.630976719258546 0.775405118455142
Ni 6.72658122671326 5.994398412985685 1.7119733431473214 -0.08837550052161554 -0.12049217855050216 0.9611112718091319
Ni 2.7087751389065713 6.579059348123511 0.2767426417891229 1.31916412649107 -1.6209026228519956 -1.6590099712466782
Ni 6.288336585264435 1.8868556840683206 3.254326008180452 -0.6087644663730355 1.0815204037275246 0.0511325570097571
Ni 6.115883767162829 0.3055624761893598 7.988962942047084 0.5036415711897521 -0.19701257950574455 -0.05336118922995972
Ni 3.2840846684255736 4.041843346190442 0.28841209041651333 0.19991972585021053 -0.06638639784503406 -1.0906056538582445
Ni 4.325232395874559 3.7650141002507604 2.199747266828886 1.2420996801068993 0.3421058444343786 2.1749059343237516
Ni 0.382431951696836 2.5439692830351355 6.902654835364814 -1.296665688278238 0.5423824394033756 1.280738732635336
Ni 8.272944400973852 4.713928407354881 12.272477013012685 0.9111704211146308 -1.7153114740518844 -0.47603820765018656
Ni 7.467332323421627 3.783716911488406 9.294137242285094 0.2710937748918751 0.5845912115609416 0.7594925609899436
Ni 2.496392279472966 2.319323644410739 11.880551772301429 -0.606996061618703 -1.47111940864686 0.26499948906867904
Ni 4.872469282122079 8.863068768162872 4.698242000254774 -0.33792240248065025 0.3164354362514679 0.03905505701993273
Ni 8.885134400140291 4.973805351483099 3.0265736759849546 -2.7560513534279374 1.0827162238078385 -1.2641741434084357
Ni 6.295209638064083 7.365544806892803 6.391660864805299 0.4296976727124342 0.25425382051640083 -0.15793515388830864
Ni 4.06190971213901 5.911175509581914 6.219046815572334 1.0056767171243324 0.6624002494206205 2.0917813977884294
Ni 4.636178149209809 0.7453337461219665 1.9725200874612436 -0.6854337342013163 -1.4121871530870262 0.38392020936700333
P 6.138797014230822 4.241060532097645 3.465748851391908 -0.17293419840030216 -0.6328317917348844 -0.32346946028011386
P 1.1967864418517216 8.094650409313298 11.072144407591814 0.8325368304711274 0.4354222339010372 0.09847325107724976
P 2.5949643865821166 6.355897035907618 7.878120685181137 0.6940939809794756 0.9879132224933244 -0.9761632810462478
P 6.367809713213172 3.136138982290538 11.354859971807228 -0.09241470358799568 0.22049292201587187 0.8148196156970225
P 4.214600200139754 5.835148121240506 12.209693610461482 -0.9172734486885751 0.26048128948335136 -1.0008641262270375
P 3.7943581661581014 1.5937098476351064 4.32371129531528 -1.3439374767810082 -0.1164401199683156 -1.0243699226584615
P 3.607136576424009 1.7710548789225204 0.2860470600496642 0.7234271827259541 0.4912072020811411 -0.8389908136265875
P 9.041878699443776 4.3316079354688695 5.373233828387427 -0.4831329097134389 0.2750938971902036 0.280599143279149
