# total energy = -340868.2915722657 ev
CRYSTAL
PRIMVEC
9.26636404836529 0.00000000000000 0.00000000000000

0.00000000000000 9.26636404836529 0.00000000000000

0.00000000000000 0.00000000000000 13.56226044321506

PRIMCOORD
 96 1
Ni 5.525143597930206 6.441271929882092 0.7626032150888711 -0.191966789551721 -0.2410689463950106 0.35404296219159676
Ni 8.792407905945534 2.382113430534292 10.137314987448093 -2.3269524906417667 -1.0329054709332985 -0.9322984613424975
Ni 2.211621601396037 6.3569572848835065 9.212910865909633 0.28965225462035277 -0.3203581683446418 -0.04342361840127361
Ni 4.631680792043442 2.804650357371365 12.586780983887675 1.161941939509386 -0.17668775190546343 1.1007342576518142
Ni 8.458800273322268 5.4091472548054345 2.66738492921909 -0.793831957701762 -0.3102344496470786 0.21695199874214893
Ni 8.140398743835904 1.9289882365095796 5.246370600238651 0.28454578663172286 1.1706034718391258 -2.0308632221468184
Ni 0.29968903425500293 6.339972039880494 13.597251093199173 0.07287020579716481 0.7342867511482774 -0.9342031345643782
Ni 7.509072105919796 8.948397875602222 3.932037886377902 1.173516531720863 0.7333930356894144 0.2474527384341674
Ni 7.627588900021556 6.496119537723243 11.987085079096378 0.20678739950432126 0.15283125700284003 -2.161068771330343
Ni 6.601079641459806 6.656279371128624 4.028520193795176 -0.7291761693945894 -0.48960926146640193 0.12835384068676603
Ni 2.9559237478100853 8.3722246355355 10.682788763960541 0.004185241725941179 -0.5749050946214292 0.21845943652561084
Ni 5.48175848221602 9.005386013501035 5.1099613841094405 -0.5927230966394565 -0.0573224878705529 -0.2631099853554501
Ni 5.676287259274523 0.7280702567949673 0.1464002096710805 -0.5360891501954961 -1.1328648196377715 -0.04398129067695651
Ni 9.173264728023442 9.23157795595795 11.811114975628728 0.08507986048947927 -1.2994627914074008 0.8171634333388508
Ni 5.104181952953751 8.617699881239155 7.472086341105273 -2.2532222508371516 1.7211393935875712 0.022102231215678062
Ni 9.45780696387041 7.4843216479803285 9.003157452986454 -2.27654447050286 -1.925707673953387 1.7831194348347936
Ni 1.1433303080723756 9.017775142016598 7.868199304685068 1.021811417902666 1.6969630534516837 -0.7176799958295317
Ni 5.020849542527079 6.788667911967705 11.809704635045282 0.4134598706973331 0.0979034946167088 2.952203641815916
Ni 0.9978483950623962 8.641968488256552 0.6026648477803651 0.5199932730748981 0.1281342684767922 -0.6982540258944361
Ni 0.4601018393944714 4.684258140732525 4.625381517873748 -1.3132210215337576 0.08878122060046646 -0.31013083418967885
Ni 6.197890882416671 1.2787674826299462 2.7470626857291283 -0.3814763758122011 0.03337317614380704 -1.1787762374579054
Ni 0.6135157598908547 5.411000527582631 7.846214856365567 -0.5843315301416517 -0.12065467227029542 -0.9344039377212746
Ni 7.508126936803426 7.832245812807442 0.17168070362482735 0.0066149342133563485 1.6615216819249385 0.09055579600238597
Ni 3.3192115439601646 2.5798391031334607 3.0169251479079198 1.338398806350966 -0.6761047434909067 -0.20611274203479985
P 8.912768706460604 3.9110356726303146 6.534812166765566 -0.20752633455287486 -1.1172283986520952 0.7942536186202128
P 3.8841817500887275 8.37511574106793 13.640785397371921 0.3632017458727293 -0.22117529279487716 -0.3778819735927234
P 3.1082813028234666 8.102351053720046 8.534391563358588 0.3414247592069539 0.5874633909024141 -0.394906533175178
P 1.177921644458761 7.181811932558431 11.403093807819053 -1.2027833990057801 0.45355108229126406 0.2194678231854672
P 1.4043174469211694 6.515643766431016 1.9275093248333763 -1.7372954345221434 -0.47444540924177 -1.3626453376031564
P 7.326478405546444 4.01460582178398 4.138510079849052 0.7156346832647288 1.5948989996993823 -0.4372957967746663
P 9.611443277100058 0.9075282196293026 3.44238653918741 -0.7391705616031399 -0.362387220391234 -0.1409807854221572
P 7.472886954945021 5.037806988438433 0.5431034406304133 -1.0646333981641987 1.5779518303220823 -0.4222697556794792
Ni 7.086118192707854 2.912158711176574 1.020317474213135 -0.8576724491964907 0.04241728862394631 -0.7226098290309814
Ni 1.5486132653537426 2.421643738871908 4.589129649078994 -0.9037299056761855 -0.4761713907939413 -1.5110432414249912
Ni 2.1266768436532035 1.6399240150862482 6.625218519382799 -0.0786677863155484 0.15393220337650262 0.5025714780540247
Ni 8.240623735626729 0.6707364835232065 1.228694832099244 0.528647092095154 0.6806779646838859 0.3182820025419035
Ni 9.260377814915595 5.227053938081924 10.236550331575893 -0.04740497164652481 0.830966400660214 0.08093729907601545
Ni 7.246315091568778 0.2241811414936579 6.564920436303911 0.2747732806259913 0.03296231385863355 -0.2340665469352485
Ni 7.017602698134874 7.85111212967931 8.275867424030688 1.8063580936477601 -1.4335702467484925 1.0069327010186209
Ni 6.6574098675227145 1.325646017529149 8.647663595500878 0.6998743351066785 -0.5885041734621026 0.6208923599848211
Ni 3.0687602608497366 0.6082459787488944 1.367415079381619 1.7806581177784946 -0.18469365292907547 -0.08326106211318565
Ni 1.7363034658643879 8.377497196586626 2.988321735864658 1.3649981541060492 1.2243428703441108 1.449430867929833
Ni 8.864583614253478 1.8531430481027846 7.408479239482698 0.674621988297793 0.22252332218233936 1.3211780715973052
Ni 3.35479438128235 6.411702962721911 2.4440414670207247 1.2911506719972796 -0.4071570684077568 -1.976142433565171
Ni 5.850874821250384 2.6577970225062604 4.524356838879564 -1.133749279125254 -1.59217954388569 -0.39519603939113873
Ni 1.4074309451868607 1.9668228002560602 1.4613602563669106 -1.550844175472013 1.0481631684233175 1.0579652421154038
Ni 8.497079622535276 3.8669185141691353 12.14263026328654 2.314221416228343 -0.783884873791379 -0.027326712839411002
Ni 5.15686123164558 7.75036822151087 9.851517159294572 0.5302162363544868 1.2276827333506213 -1.4909649826178775
Ni 5.759684534248397 4.808149425888157 5.524274412997701 -0.7930493138994665 1.8912566913643687 -1.2904626447913194
Ni 4.325195806514456 5.529600718959365 10.049201133256252 -0.16051499880034292 -1.2856436261361213 0.9219605697515992
Ni 3.3333427488862934 0.872202987223147 8.495047508935079 0.18694259686425224 -0.3027785075896657 0.4316213720977083
Ni 1.9969570156132865 3.528353376866867 12.97835064925417 -0.4792248329082844 -0.7487332655909105 -0.7384848483900249
Ni 3.2335254771064528 2.299818852862851 10.88056725483386 -0.6854440186139614 -0.40941809652779165 0.06328281921904585
Ni 3.643821537250138 4.227241073875699 1.0434194460172865 -0.07293911136188728 0.29740644464447485 -0.7379292329968711
Ni 3.6428300363143373 6.5549980138547985 7.151149534459703 0.05600299772818097 -0.48099298055230066 -1.3951533375331906
Ni 6.576764702622978 3.18482146852171 6.833101053437397 1.5268069320171511 -0.721505540223209 0.9676580717887141
P 7.176085319676892 6.084313060266142 9.711962012626069 0.05289659088871535 0.6040652611251532 0.3562155443628833
P 8.504066460905308 0.1790122507314194 8.993243370264839 0.27018694680688954 1.5645458413288216 0.5912411127772914
P 4.7904136054103805 2.399506395548288 1.3029628853726438 0.5263212721754548 -0.0524096239499678 0.3067608892761814
P 6.335978237045634 3.009974448357042 10.65494519375593 0.34515157323923784 -1.166218969618185 -0.05666094302715403
P 3.461904281440462 4.681265105197352 8.213169352705329 -0.4960341911561392 -0.7639477685478198 -0.7287069430676546
P 5.744997347489108 6.960457032049998 6.363154629050454 -0.19410106228590443 -0.9769708645492079 -1.3640512168117476
P 3.3748467927316246 4.441655467833528 4.179889027781922 0.4293598297570412 -0.5844004357063741 0.3365160090514269
P 8.654904332241388 7.57720767957345 6.726637018842138 0.28618537911767483 -0.10072708010843298 0.8485728008880677
Ni 4.111670983489683 6.414853526443147 4.476319081858224 0.12017876107514142 1.2732686495105363 2.254947975279007
Ni 1.157544910273478 0.7754028435245834 10.023988283758873 1.5110596964852234 0.23095448366882806 0.03425300764559907
Ni 8.834171407979671 6.898900576755394 4.636366792260584 1.480641232094366 0.5086012291878724 0.7461552204510891
Ni 4.100328954093236 3.293747576001475 5.99009730545538 -2.1739883076054882 0.8679815444319826 0.44785094658269325
Ni 8.888463033987664 7.693537611798119 2.329331295203328 0.3769610044403508 0.6801601445072029 -0.20344599383591414
Ni 5.548133446731337 5.278018939454847 8.169810182810023 1.3192106634582894 0.38501807041687236 -1.3813552553078337
Ni 4.719840978054712 8.521616954105367 2.4429156038085775 2.756742465957691 -2.1980396921277374 -3.0596636697728075
Ni 4.813894571497469 2.598640555458126 8.47829762957477 -0.017912618614362698 1.9191320776183982 0.7048255084643668
Ni 0.23239762635136163 0.01840392531395668 5.764408526557473 0.29138517815105947 0.2704833950013858 -1.8759725115117885
Ni 2.4705608738260283 8.508486516478925 6.096914388514694 2.078149923047924 0.5003366751862351 -0.9315155604298861
Ni 6.457997716696297 4.551980796260076 12.232738238986643 -3.811214864428488 0.19252497604803614 -0.04733863718496364
Ni 5.318475884181062 1.0079394653342348 10.887836717302417 -1.3420927102627853 0.7474194318754934 -1.103071904646055
Ni 1.8540604181274973 4.00567304699789 6.227084561839471 1.2507470713692526 1.2672604956432432 1.8754824592492472
Ni 8.64444260741411 2.868875525465134 2.8296028220435483 0.34458027411680014 -0.6340641214800887 0.373824258583582
Ni 2.4925221562358146 2.9746881346792073 8.919640641918452 -2.4807813356711854 0.8902570680007313 -1.3713467220318964
Ni 7.480114718776091 4.032953222278231 9.08211706629533 -0.6567924163155399 -0.4020454582128044 -0.9316420587054213
Ni 0.1031577959607385 4.22001331004463 0.8408252258324215 1.145866374103762 -1.6077897396191212 0.7278978169027981
Ni 7.57767099776775 5.649813257652261 6.618247433831372 1.0400757634294926 0.6316259443522412 0.6447694237127347
Ni 2.804057310082662 6.540023569815045 12.947265704962241 0.056624947582896025 1.5366216041147276 2.0762393362887726
Ni 2.2157080678697567 5.267751808269175 11.171396718577471 -1.4093501978588632 -1.5167428629129298 -0.5317185319316262
Ni 1.7818198452723508 4.475088508734165 2.672049616799295 -0.38364278733590057 -0.4312400774988896 -0.4367509800147898
Ni 2.4307803736634903 0.5584642920442122 12.349468478131184 0.0669443272310331 0.38375720142657777 1.2505601521694272
Ni 7.385801667144525 1.5192388918351671 12.065271877657164 0.13668267226743555 0.427751861839973 0.7152945263164907
Ni 5.314120693154648 4.623572723643203 2.6838225321164404 0.42403070423464395 -0.3009921051132042 0.9184705543204699
P 3.7520989992578837 -0.1001360346975185 3.9482049114497815 -3.62366831543165 1.5973891131110876 2.4127273203157418
P 1.1882536401916355 3.307591523647138 10.79352459230724 1.3294217996633364 0.3563237878059734 0.5116209898508027
P 3.8690219787712548 4.7706113857860295 12.297714909191564 2.138249973663614 -0.17892512587641446 1.0085792354831082
P 5.098964990085941 1.5935551302007747 6.460816544590414 1.0595071326812269 -2.465542150123928 1.0253058042091696
P 1.8150768252591545 6.680316319048872 5.385397564165652 -0.1305927573196138 -1.3519300080681813 -0.4686678833280445
P 0.0886577897519477 2.2335550847141654 13.411705129291743 -1.1819577205096805 -1.2102406266147738 -0.8353074512377292
P 6.8387248096798015 7.734874861093502 2.1898169205359235 -1.6932398389638257 0.2533176818553767 -0.17217855118120023
P 6.42550984491203 8.679358266536505 11.537252224160357 1.4180029884378547 -1.2833404319242414 1.8366369471369595
