# total energy = -340897.4387096245 ev
CRYSTAL
PRIMVEC
9.02004237609900 0.00000000000000 0.00000000000000
0.00000000000000 9.02004237609900 0.00000000000000
0.00000000000000 0.00000000000000 13.20174377728114
PRIMCOORD
 96 1
Ni 6.464429923624615 2.0148970889682984 11.37867534680115 -0.28686157924909306 -0.45863672434428754 0.268486419176015
Ni 4.632360075664009 0.2979374151082294 6.018503377575494 0.03962275659794466 0.1513832117024038 -0.4669048778903507
Ni 2.8978059069443214 1.5941481874909271 4.808088543240697 -0.3748928090574124 -0.45421082736245 -0.04334108598979632
Ni 3.6767857954768273 4.243271523288073 4.941835027107181 -0.666082069147582 -0.22312058944670607 -0.059010674206253215
Ni 5.136003167523772 4.440377491540089 2.608202109082478 -0.47492929085672403 0.3296516778314258 0.3012286466040425
Ni 7.2111631602945465 6.08248524489208 2.6356753544651434 0.09565300801963528 -0.20360154557717192 -0.4841626365295339
Ni 5.255960712452546 4.590299617584239 11.556648000946623 -0.5145800724791267 -0.6693684532083376 -1.064873539199463
Ni 5.458803427721231 7.696513606006815 12.480400473271995 -0.3486786125558898 0.4360282429161523 -0.1307925320352457
Ni 1.8080404547964388 6.5159524062648995 0.4470693854312147 0.08973741386614868 -0.47027636546574486 -1.1162295250739358
Ni 2.7653646232245546 1.6871809056197613 0.4916617694348524 0.1283420136122241 -0.8049298673871363 -0.46299011621697683
Ni 0.4536188382752468 0.07684534989594648 4.659410281054407 1.0186669587364134 -0.08258691886429649 0.5279400387258004
Ni 8.474239708634734 2.3171226322710643 1.2240946307585128 0.7634877981922658 -0.08090721716902839 0.0777316476545242
Ni 6.959558095384162 0.6000917000754107 4.627633573404991 -0.9912775109798669 0.07208627644328876 0.4508066867769075
Ni 0.6998623899360892 7.381723143530744 2.450863704112061 -0.5993642561050581 -0.40459033612184514 0.8493639293307953
Ni 7.8216576753610365 3.832110926965923 3.902871356205508 -1.0828162397208125 -0.23371944800847488 -0.6924731575466009
Ni 7.5680952612327 3.820087210341361 12.619348815636142 0.7753999762488194 0.07913881241469597 -0.044640007306877956
Ni 7.975034477674659 8.64754178478456 6.821103149343618 -0.3831943869445723 0.7395045479037908 0.41397589110180316
Ni 6.896625259007889 0.5166409730720621 0.3320268616492711 -0.5100001664179281 0.47038486601915114 -0.5653148798298329
Ni 1.5932101030731067 6.796746328637463 9.166155441146786 1.2840731963252079 -0.8529611597637504 -0.119782039857355
Ni 0.19487170372995707 4.81454689365569 1.3888502166594459 -1.1877465592773158 -0.024692617650673602 0.06135654873061045
Ni 6.461814111305693 1.934429290012769 6.924683905147444 -0.15324340483959414 -0.30300887843291685 -0.4914915660907794
Ni 3.3568899889576196 4.224130993147547 0.6856946092142586 1.0391751059920942 0.4662821567046873 -0.9173631801889041
Ni 5.942485165574876 5.578661752182735 4.7625427407470236 0.1034179966770348 0.12020112967264461 0.4122486239980513
Ni 5.127903169377594 2.909369601402453 9.471828444685043 0.6160111206331197 0.05729806239052068 -0.5774823684303022
P 0.14318686032504907 5.6151297839255 12.365849541805158 0.21999207112005334 -0.8730008520234448 0.73269266718828
P 3.866892210765107 6.025397396042226 12.602979242545178 -0.10323416280100287 0.2638419784254682 0.32933286103942633
P 2.335830200372597 8.376733049436295 1.4164280945348675 0.8412999213757382 0.7653029970241336 0.39920721743306087
P 6.215918733284542 7.768015482738177 5.826998855702964 0.42524940713309345 -0.8017602114099031 -1.01029853216706
P 4.706207163439922 1.0786707998986613 12.495754389579819 0.32331159454601094 -0.19819811517341349 0.08178190646449786
P 4.0100763650774125 6.277074621292443 8.160169947552738 -0.7781975935986145 -0.44080586681045375 -0.16390962630418868
P 4.739978202481454 0.9090669411652432 3.6747319318043496 0.6260466504922508 0.4242379351494436 0.6389985826672285
P 0.08262629512076419 5.572636363806736 3.713241199160122 1.3483633737628455 0.3139787471808592 -0.9850338440630003
Ni 1.3570473508868413 1.0094690339994545 2.5682406148875807 0.3034894176137612 0.8129331973075871 -0.4613991175807731
Ni 1.8728223998809155 6.3495687026965 4.795533546114118 -0.18233055201353762 0.610045132857672 -0.13710407607557032
Ni 6.002982590481808 5.526020784275049 9.152253751678089 -0.41480378631973724 0.23421541380828692 0.7592850729648278
Ni 8.539716196990096 2.2546498180612224 9.980412715814825 0.8517769096476621 0.5611954583448205 0.8295690060920551
Ni 2.366994447137685 5.241285103339145 6.970203549517928 -0.3826403142133152 -0.41911115544583943 0.5178330321987856
Ni 0.4984944516127264 9.013737469348687 9.070311175777237 0.466753439914151 0.13850661285005178 0.32573563060647126
Ni 1.622985263296423 1.3705954546903616 11.417937787703924 -0.5393778482490968 -0.12002552332672876 -0.30386119913088316
Ni 3.9585538824371267 6.723756144897059 1.608566725393675 0.9984904837885384 0.6024737482683172 0.04492822797125811
Ni 5.659210731520576 7.811140305830474 7.949535719590656 -0.7007084009721998 0.5236671223820595 0.8082627884151112
Ni 5.55546220292664 2.830651690687857 4.575156770270424 -0.3765825380550095 -0.2969557302603014 0.682309843860354
Ni 0.7961026351704708 7.28699465741585 6.932605306452539 0.009781247756479929 -0.30783638172854727 -0.16863608524558055
Ni 5.074657858623811 4.518067117412074 7.112782458979889 -0.324963271216821 0.17064077438043515 -0.10857562961857428
Ni 7.9066354955560865 7.190390002465315 9.15026032229022 0.5673974733904745 -0.1396515250877724 0.06423464160935388
Ni 4.813906470639678 0.36194995056924345 10.27317443054858 -1.0337655049407488 -0.5624869234627344 0.8277070131826519
Ni 8.118967295512725 7.201295233822476 4.751770104014305 -0.5794983704190665 0.010424794877749789 0.14189584103725889
Ni 7.171357712834537 6.106280116951791 7.058206691960449 0.2439902338068637 -0.5835110911228854 -0.8254760669696043
Ni 2.2545866777638692 5.245344122454713 2.5225495897099957 -0.4445645625219376 -0.368577665472662 1.4199431428833609
Ni 2.166172221384304 5.356164364352217 11.445014151217508 0.115019328361389 0.11914826292809805 -0.5464599519068589
Ni 1.2104806806448953 3.295553700100137 4.000933650020656 -0.1117404004998011 0.3566050664918181 -1.2584097301208328
Ni 3.682955504532492 2.510494302936757 2.6499856518581426 -0.06849855909203043 0.5052022308086525 -0.10338328678435742
Ni 1.2266265566823795 3.3442168292745658 8.37555593389278 -0.9261105873642308 0.23273754371117983 -1.099758524002106
Ni 3.685372875916875 2.572380814385461 6.970613059446476 0.8977389782000732 -0.09408566353251538 0.7024510946949193
Ni 4.071069892320692 6.823896656499378 5.947834050764948 0.2152296167344035 0.5948769097576658 0.15135878622237162
Ni 0.5122409963507857 7.445557984154921 11.239278708325795 0.639655499524937 -0.2674844602740619 0.15462254457530789
P 0.0907073511777375 5.432031941643436 8.088603126515528 0.9086108879175706 1.3779863388356008 -0.6998589084877108
P 8.491188368452853 1.5169817240827266 7.859315450706787 0.9517452572131996 0.7417020697757419 -0.3974897205213219
P 1.7754690814046201 3.4544146882410165 10.481286654633521 0.7276224517542242 -1.4414571056957368 -0.1325480812737717
P 3.825210594469456 6.071787474511936 3.815357100065351 0.9368112616111867 0.1635977514907247 -0.6383889741076877
P 6.984092610927156 3.874216485258089 10.27159051108926 -0.34151397648665055 0.42892865575689354 0.40828449714398074
P 6.0988566219915405 7.569078445862916 10.350378778135193 0.5230932521564604 -0.30232445077138254 -1.0677516320782063
P 2.2877533739593052 8.447567443024207 5.821744680958922 0.6602052986518306 0.27623341011128555 -0.07568324976592773
P 7.0109723375146995 4.060534482705171 1.62335237902532 0.0988540314554362 -0.32224304407218046 -0.3459388450272236
Ni 5.321599561572532 2.7764592754737754 0.4859665146135856 -0.22016073548743373 0.44914344014187163 -0.68108214210084
Ni 1.5545321609229765 1.1960125325085125 6.999775758785465 -0.5642226752069186 -0.1412147558098342 0.022068292653949093
Ni 6.986888824095658 0.6774331523077045 9.089572574486981 -1.0980122307349607 -0.6426171532564223 0.0714823243107027
Ni 2.8896427685007886 1.7767499274366438 9.264653403013673 -0.045444248375728184 -0.5657280561078515 0.1678642400765625
Ni 6.372380390125996 2.0616389490946916 2.4288962926586035 0.4606283008530196 -0.6599425319087473 1.0393214017619714
Ni 4.05404907216274 6.7057341000239346 10.363276536875974 -0.3877179858465387 0.7040798885475938 0.17408708105782278
Ni 8.198415829668123 7.201295233822476 0.2510440182681883 -0.8076146133081511 0.17000931144402334 0.8783510605917647
Ni 7.6638971324025995 3.778712275489997 8.078754142132661 0.21536382831942263 -0.17718526036717225 0.37011132850836903
Ni 3.143764425262826 8.482303626610998 12.475265363088676 -0.10456368024570378 -0.22194430975041776 -0.40452271610870333
Ni 0.043715635874674814 4.86198329705297 10.191640462572028 -0.4664359086737322 -0.25475030053684516 0.4136264781821844
Ni 8.699921171460353 2.3992591390852165 5.794483406574515 -0.04651151329797796 0.020423815071990634 0.19455820442798105
Ni 3.707922982114479 2.882976957108777 11.578074209851339 -0.694936788595745 -0.40824387371403237 -0.06695024076830404
Ni 1.278185119492581 3.4189118010435093 12.756172035992227 -1.2289610858424125 0.34865084464174795 -0.47758909707707425
Ni 3.2019978195075183 8.647695125506702 7.969324790785426 -0.1607155448469232 -0.9519537736795799 0.5430678955061743
Ni 5.3890243791033665 7.805196097836786 3.5702527797696115 0.5441734698655273 -0.25071701100773597 0.10250036995877185
Ni 2.965735846853983 8.403820237000858 3.608393127387991 0.08184515560226549 -0.46130552942570224 0.20384168661243604
Ni 3.31510013215222 4.373656237322619 9.143157940842224 0.31716203000484733 0.6366097707200777 0.4184604092357181
Ni 7.143972863868167 6.009657421916298 11.508158056587792 0.7804167127371204 0.18456329799879828 -0.7886285591239515
Ni 0.7763126619714535 8.92073181134729 0.07490964877994415 -0.8363137810150566 0.9923941410828134 -0.04805520363601402
Ni 4.518328698643965 0.25464932924706113 1.5248408870947154 0.2291392848369602 -0.4936854884183046 -0.23389171192028105
Ni 5.852618482356186 5.492718787442428 0.385397550993512 0.4842256285569855 0.6607143770777653 1.161196062482297
Ni 7.639669298303895 8.753743764932794 11.257100508255887 0.29376550545777796 0.5498234690624532 0.4429342260073662
Ni 0.029299803984670626 4.995687386719802 5.828767686033104 0.016489513014590958 -0.9942142250106877 0.6825474137924568
Ni 7.866027264315441 8.904315334035434 2.43188012271067 0.05030029091644885 -0.48632416295722697 0.031910475555351495
P 8.534421432054899 1.6915556262220965 3.509511813715746 -0.6476462310398975 0.39617023037895 0.2880352878422201
P 1.7458202017760105 3.177634684771627 1.7303923211198577 -0.28406653300245915 -0.258403066798084 0.33901126466945486
P 4.963720356174079 1.0944558742369839 8.208686050034759 -1.1764367906914512 -0.18117406981159123 -0.2998546490746513
P 8.528459183976253 1.6034117711169027 12.237580929736197 0.15343495202510993 -0.048685895241477435 0.6533692495666038
P 6.247948904127618 7.610272979864698 1.3512510715898092 0.08981120452687757 0.18775069458784438 0.6239216337294481
P 1.904275288005333 3.2301132919146904 6.009882922978274 -0.4515723612983384 0.3134976937793827 0.6366503941500261
P 6.847989189960898 3.9031527815308538 6.043520465391116 0.3168522120739124 0.8131833656451801 -1.2733403832887362
P 2.321244791683986 8.53893145329442 10.369402047723492 0.21580554384253153 0.4267604444609811 -0.8017581545273741
