# total energy = -381166.65540644823 ev
CRYSTAL
PRIMVEC
9.28527430073418 0.00000000000000 0.00000000000000

0.00000000000000 9.28527430073418 0.00000000000000

0.00000000000000 0.00000000000000 13.58993750903349

PRIMCOORD
 96 1
Ni 0.7202150659926896 0.41645939684211514 5.462027166180611 1.6267544536470822 0.8807858952855024 -2.4074146498535764
Ni 1.2383677125773898 7.3821456970668065 1.0759394853815083 -3.254815027700098 -1.3353217100875392 -1.6854676512175746
Ni 5.754251453508948 9.132716981155616 9.986320579804334 0.5843343583551291 0.5037624130383325 -1.0389349649568302
Ni 8.340933808494714 4.312350534116658 12.59644453761514 0.7311389495479149 0.09873601782033319 0.8653456494710322
Ni 7.722255999640847 0.9361041869640032 10.646954827906095 0.823424069536582 -0.35105045522217604 0.51570621566377
Ni 0.808570019586114 -0.13697079137816215 7.564104569664808 -0.9053263036290279 -0.9390946583287245 2.176742730422174
Ni 6.95439169289031 6.410432484184229 8.761799067865738 0.568128438019228 -1.1425108273679678 -1.311605854527838
Ni 2.73685309192999 8.370433124099229 8.600718133932121 0.2501878779771433 -0.5685768384105563 1.4475205382809972
Ni 6.657606478956703 5.19083959570263 4.55926082710658 0.22993375571379754 0.6245983480814985 -0.19613326222458477
Ni 1.601941902634152 7.316387386361372 12.141806879529375 0.646103569143126 0.4752488789796718 0.6626514461994781
Ni 1.8341108945684474 5.656198959714908 8.29491691891196 -1.6502574218650288 0.7331215271955827 0.1720929334459294
Ni 1.5220606901237237 2.5959397731971925 13.582136730555192 -0.17587759729934227 1.417765675616068 0.4318509716100111
Ni 0.44632455224354967 2.3192850333682715 11.539908489381492 -1.2017685845880206 0.36190668121038966 0.4048191643031996
Ni 8.469581280229223 2.53350559059576 0.9769083237043351 0.27474911225627524 -0.4080109317676199 -0.919013057087501
Ni 7.444171327610763 3.4369256129617503 10.705391700036094 0.9759092560539129 -0.7389160223901726 -1.2707119445269535
Ni 5.342988096015994 8.248276058914154 5.3566643761399755 1.146010355880794 -1.5919196053560842 2.2893920158894896
Ni 6.968932432026811 5.734510960913671 2.1116180225536456 0.48535922794079633 -0.20949605668473598 -0.167057427904551
Ni 4.369278549216209 5.265103217422775 5.2745268420394 -0.7086520812993086 -1.1430864973657795 -1.3660451073133248
Ni 4.6665373121255245 0.6212739714736417 4.237179741123438 -1.3672216441199292 2.430868510001143 -0.8491029623599248
Ni 2.9176188068146827 0.4443746446965091 6.709840788032307 2.1283455700657083 -0.5388410019090204 -1.8374663850167905
Ni 0.6175905032645418 7.525426760678153 10.099470929176887 0.4443601598206154 0.24197937402442196 -1.3789345616814832
Ni 9.059400457386891 4.303185968645568 8.335659772843671 -0.35139138350136256 -0.7585883040081193 -1.034618082749031
Ni 3.0949953966771386 2.5424287389419793 1.7545555951765959 0.3003989516138955 1.268554017643686 1.0715928602011673
Ni 6.635748943881782 3.9291472747530216 7.4193443618999195 0.8517303726804429 0.7434313937620228 0.6113293988867343
P 5.984238406045365 2.0097789940087343 3.119637585434715 0.2313640604024209 -1.360539347003747 0.9239660302174022
Ni 3.221070847504361 7.1043767243538625 6.625460860252635 0.29069997915857676 1.441275328702234 0.6404959931483615
P -0.02746398353636455 7.107459435332993 8.05544877305991 -0.8572525880502527 -0.31785417097586544 0.40278387904072566
Ni 7.950070198053418 5.9797071923170035 6.563287593851545 -0.2300620537615457 -0.9680545358961843 0.47934336076401957
P 4.29400283262641 1.4541017694723435 8.202600867415834 0.38510265971087865 -0.4959439454351781 0.15175679299173866
P 3.3182319549911816 5.013286585633537 12.422330793048065 2.973478749144608 -0.40269723286419035 -1.9553928597226453
P 7.583283303181056 7.205976192828709 4.774375556223498 -0.6973230294397346 0.7869835673213608 -0.49698729909802797
Ni 3.1944035404800726 2.5922442341318486 4.418563855258764 0.7869884524173673 0.5300280316030808 0.6544863938901825
Ni 3.5963630533914337 1.1263315960888596 13.538240597561696 -0.8046228776696788 -0.03441858668918588 -0.12828647778394034
Ni 2.6379927792950335 5.185909115190827 0.670675343441616 -1.443794752689978 0.36867408184121025 3.5361500207040066
Ni 5.820929006343701 1.0802209252383672 6.30342062947524 0.1680861262793815 0.366994123035626 0.9949999541367768
Ni 1.2816092337515226 5.01519006681041 12.323681256133671 -1.8170361421868966 -0.31597572300623 -0.7363896564238931
Ni 7.7488583097469 3.462840812789323 3.03880463233585 1.2261624400513527 -0.3734439924260278 1.5241764363728396
Ni 4.340577767178579 3.2835793122980608 -0.017144329975503247 1.132923955010481 1.742180787638903 -0.33195050116793157
Ni 9.59930200134032 1.761527907448371 9.257845334031419 -2.7244260132131726 0.5923235472081928 -1.1151074956543505
Ni 0.15300274552444892 4.775045024481315 1.3152637094860393 -0.14936155328668468 1.776104179859225 -0.540131695695986
Ni 3.595740940031187 3.0726828831745747 6.847208060611701 0.6481409112881289 -0.65872434323093 -3.0979846768401935
Ni 3.00642316767133 2.760149844480108 11.6931489379212 -1.2418307427162292 0.0752747014735994 -0.12786610241707008
Ni 2.765832432188626 7.80415211661655 2.395036155988587 1.8546380117000703 0.13419590128983985 3.0092798180036175
Ni 4.993230393721119 4.773243681318811 9.163436381768136 2.6540973428909385 1.0895065072567947 -1.2555424358753668
Ni 0.8347349932851882 2.694670091995679 4.410559949041864 -1.1062037654068173 -0.6376693223328438 0.4775950106143452
Ni 6.061844726417579 1.7718809879957529 0.8820276795201484 -0.487941643955992 0.00442024055488271 1.648512414149464
Ni 9.041024900074541 5.670581849192841 4.059137397112779 0.4541259809581276 -1.113292553932799 -0.25807088026964586
Ni 5.075052228504555 8.713588996556265 7.778948168779945 -0.05056048655637099 -0.44265731819689574 0.18475741628747536
Ni 1.4822175792458616 2.026817471860255 7.150413113012086 -1.1929934094985517 1.119853237869452 0.8388568591518842
Ni 0.16420450011849524 8.033702661273391 3.7176630877832126 -0.43247035036156484 0.45257997662724636 -1.444880272444673
Ni 4.884899101571967 5.749432396285548 0.5368569025978359 0.8879325336326127 -0.29304919611704366 0.08822380543509967
Ni 5.770964946769296 7.099046977058618 12.072118112325548 -0.7379341180928775 -0.14157856690715614 0.32191471419848433
Ni 2.267900326866736 1.4194955531493905 9.936880209685418 2.4246119875684693 -0.37189078900629496 -2.2686529835699254
Ni 6.21782804490679 7.7569086423339675 1.1378388361986091 0.6663029269091364 0.19209534470978532 -0.24063442996075332
Ni 7.808116928628866 9.031043230488502 8.537782546532878 -0.2172412478477936 -0.8183780224722421 0.5138426800924699
Ni 9.038731437388261 1.1715601659061672 2.8474314203952567 0.4859199855402729 -0.6117490029226561 -0.2373539594372686
P 8.43605215569416 7.145278356471546 1.7220896345183707 0.9175297876737553 0.8330353673741008 -0.35185495340134243
Ni 7.4460283824174684 7.591992890224504 10.549270030963783 0.8138379685100436 0.48936115001133784 1.0849631108604865
P 6.459003752653605 5.255855084485383 10.764031919667424 0.0010250988304046863 2.5536996210974667 -0.13696935026991897
Ni 2.1957723181743027 0.9243963849351295 2.9435943609234734 -0.49296326554029946 -1.6749320417935736 1.0552604415897309
P 3.6428637057513336 5.098256128314338 7.476761710941037 1.1650776569248902 0.5096276135698579 -0.7242391371042882
P 0.937989097592809 3.1213655749323537 2.3249936198440837 0.17205205290566497 -1.507499489937791 -1.0862414633522774
P 4.153655915609658 5.304946328300636 2.946611146456966 -1.213482273480523 1.744038923893564 0.12315686986685886
Ni 1.4565902229133287 3.9079118530383465 10.121173400175447 -1.0228066919363998 -0.7155673203619032 -0.47289503403551464
Ni 5.635808497937284 3.971729541470774 2.4032712655289217 -1.5736640015800059 -1.4008246768863553 -1.3283110830976608
Ni 7.957823401871414 1.4904164762174654 4.95748673132906 -0.587469304439685 1.879746890952556 -0.4531029390102519
Ni 6.941011613007998 9.288431026697856 3.478711203167426 -0.02532356636645316 -0.8856756192776359 -0.5751277521551966
Ni 5.089871525862064 1.1875586930659332 11.582105417226854 -0.09631018198765995 0.7949131065810825 0.6906574444941008
Ni 8.815086327016743 5.250590334108372 10.372070789835366 -0.02213359867424575 1.7710781873995434 0.8060740082939085
Ni 0.5509166645394017 7.159039132589232 5.928759822222448 0.8583278233923024 0.8298400003652547 0.7811247945477385
Ni 6.443896611801058 2.277668435150006 9.157321100289654 -1.6285768515678016 -1.379997455728359 -1.4733776085534174
Ni 8.507790182877185 6.793737881562235 12.684806919427793 -0.09755253903519329 0.2675397389920296 0.9599645597991984
Ni 3.101365094664138 5.524078795491861 10.311935641084636 -0.09946389712529322 1.0237785689313659 1.2549572527958581
Ni 1.9410215397904709 0.5253385201592464 11.822117680137268 -1.4785303563989505 -1.3093818502933257 2.647850590650278
Ni 3.4264611091259662 3.328520038620329 9.00655424875248 -1.192373773636682 -1.1895082791634288 1.798585905901509
Ni 3.6467635208454148 8.655955300630167 10.826165259390171 -0.6182438666183804 -0.5151567709182032 0.6510344307858401
Ni 1.1345862047046646 0.4682990817712934 0.6555189906366906 0.002364643577434637 -0.7949388176126955 0.29480937334126006
Ni 1.2810799731316116 4.055919121132758 6.201537031614968 -0.4409706745230922 1.5717356742090414 0.08595814932937454
Ni 8.064316209761929 1.6626583095393812 7.262231025560829 0.6496779167579457 1.5447249499481526 0.32093846632814405
Ni 2.0912479883788953 4.550796371297618 3.450851666957233 0.76921493048403 -0.581746800133611 -1.7369719897444535
Ni 4.99130834199618 3.568265814165982 11.11939514189634 1.097592883809355 0.628418236048221 0.4577075276617988
Ni 4.87224327306427 7.123801517632 9.6166338938513 -0.21559599893488673 -1.0011487473469918 -0.04620478069083655
Ni 7.189689822173903 2.2040919237083423 12.554343248092325 0.0063308273140342585 -0.21671417169973 -0.8798991218051748
Ni 4.611977041904523 9.35027095176114 1.983355889691528 -0.17865490293416328 0.5317254739101617 -0.5259854861025909
Ni 8.098978137729082 8.807518828679418 6.219624745432277 -2.221529033498929 -1.171967442066188 -0.2968803969376758
Ni 2.1929124537719766 6.001527586295791 5.000390268528371 -0.6637346519613279 0.9673698511243339 -0.8446372132790873
Ni 5.72658133688904 3.2906639763856416 5.528223741820427 -0.30991306175191785 -1.2390506088679305 -1.7496022769139545
Ni 7.684047096992885 0.11353568824494474 13.47599954866016 0.8171750033030765 -0.9514030433824324 -0.11913155075754966
P 8.982704093869962 8.719475860293521 11.701072062254008 0.8780353291235589 0.544542680279488 0.7881001974243073
Ni 3.3215282272730837 8.104521446327096 0.13994207906889064 0.5800956376834332 -0.629909990102399 -0.9671600491063729
P 6.673345018443531 3.871392870264487 0.21644438035851846 -1.1255631437700357 0.8957875109006572 1.5427552278162915
Ni 5.132983053199727 7.390242456024041 3.325838451479447 -0.1452524162143176 -1.6023654832797565 -0.9422483734663579
P 3.114327337214941 8.303198454822462 4.617126654883517 -0.5333131301122557 -0.11111896486571832 -0.06154938146770691
P 5.367445507820303 9.238559819863784 13.339324957523669 0.5917931286260195 -1.1619329406483216 -0.06464961765958543
P 8.252073735993866 3.7631265750335685 5.706169518981138 -0.08392286406690064 -0.0949068738822301 0.07998933334044933
Ni 5.509538056355358 6.444026605637528 6.732658420442294 1.2161359090532862 -0.6151348886757535 2.070705293844421
