# total energy = -340854.5768116641 ev
CRYSTAL
PRIMVEC
9.44734615738179 0.00000000000000 0.00000000000000

0.00000000000000 9.44734615738179 0.00000000000000

0.00000000000000 0.00000000000000 13.82714605370857

PRIMCOORD
 96 1
Ni 2.4968296786580892 4.78189709234442 12.233152244303463 -0.7444649772328599 2.6344625993791464 -0.32998283591859945
Ni 4.033856220586051 3.218484112492473 12.34058935470774 0.18438974853541149 -1.6303899935171404 -1.660284724194044
Ni -0.07740777578731207 2.3639527544186163 11.674384229898507 -0.8414457029249831 -1.0817764856023886 -0.16594336890476583
Ni 3.6435296651734626 8.070461618914988 5.726595811977209 0.012583493091965424 0.922809805125772 -0.2011481989406729
Ni 5.609673565992668 8.644926399023742 9.387981906194755 0.8611948605274524 -0.7172385374167389 0.21094410198517222
Ni 0.12281172160280487 4.526006273293559 11.312720922843013 2.4189874422928406 2.666529655117021 -1.5913002266045304
Ni 3.5360755495460356 9.34538098799546 8.572512490435361 1.4855283849833383 0.27303161534453624 1.0525237593848584
Ni 6.639868879225341 2.4846520494121114 12.586740904565676 2.1500173986121878 -0.29810012827738985 1.7301531670504073
Ni 6.545376522578117 0.6039395555040421 6.9685363849584885 -1.5090776330581883 -0.3296730179876645 1.8230309263177507
Ni 8.078435179103977 7.240805123373839 9.889866504422088 -0.7875309551843985 0.11092227547387994 1.1374814924741765
Ni 0.2816716820837154 8.467996499474731 0.9351039948366556 -0.33193713143149284 0.012444396410939858 0.14918234739634306
Ni 0.7757480486804822 9.270246243702783 10.74380267968563 -0.9860422307228567 -1.4084608532753744 -1.0205628902075454
Ni 0.7912067412601516 6.48326966868901 2.0548525921255543 0.6197669881311262 -0.20891575870123377 0.4756417435427163
Ni 1.314654907178676 9.043198172586733 5.498406501440743 -0.7741961857487054 0.17083617822069289 0.06522374499550057
Ni 5.881190295650859 9.331134389932672 4.317332345793104 -0.8000242025554029 -1.8305753143239119 -0.06029571156626389
Ni 9.295848551892542 8.306862562764566 3.4323956487237037 -1.1618704628415022 0.5524102559530227 -0.6539960845173254
Ni 3.0457299399618654 6.831064271529533 3.0205811043894886 1.528990569932031 2.5120323232656676 -0.4137743166139584
Ni 8.14077821664797 1.6721046978309826 0.7671575767849291 1.2088640579822214 0.8329502638594622 0.45120855020101647
Ni 2.4150912393747674 1.238131402995261 3.5946708248542816 0.31390418518918195 0.0193596354735344 0.837178443008197
Ni 2.533532618627542 8.532606900105641 12.298513708956916 1.1969230835702613 -0.33216853071600855 -1.391368416569462
Ni 2.1666827185107294 7.185991620747645 0.19771028224059659 0.18783039878584426 -2.0308549946167025 0.21717337072433562
Ni 8.119474450977156 2.7068347372374877 7.669558759436556 -0.8411137735068611 -0.3641255432385794 -0.33032119309462465
Ni 4.324938404215088 8.168591203847473 0.5655776615426626 0.5976593575988094 -0.19664131220925488 0.8210612257313602
Ni 5.107707720588053 2.970141723051803 0.5369720419973587 2.150909057188521 -1.879498779497492 -2.339526984872667
P 2.2485628679869833 4.991410888921654 0.476566655158058 -0.9062472727814006 0.3498140117119137 1.422006453170293
P 4.408689128238047 3.125805646314782 2.382195579922095 -0.3467963079315124 0.27211938794291196 3.1526116201564545
P 7.432453988295413 8.611482793491732 8.169409344028002 -1.0978546221111738 0.7249029959405322 1.2340464707851198
P 7.537177820872346 4.999252186263905 4.403047173090105 -0.18227270219240865 0.12449847149641785 -0.24598078187433123
P 8.432927950397096 4.220422413254456 13.009781730383985 -1.4279379881633796 -1.9279481332481312 1.3239574341146554
P 4.838590616863515 6.348238749516967 8.202664002636103 -0.6903010895959467 1.6420967404311075 0.059626453413381186
P 2.0153362324590867 3.3523907974672533 10.73390280560738 -0.011776166699321656 -0.555297861913463 -0.2661264035842707
P 1.0798222227975471 7.070771786547531 11.496497314179894 -0.5015654053870137 0.15666554314726566 2.4306625646379234
Ni 2.4538820428534223 0.9845835258008799 6.966821691624007 0.042043450224295335 0.3097539104662343 -0.009897461619370052
Ni 0.9918012982942291 6.4842994294243175 9.583401206982945 -0.07148669518607689 0.2542448216553363 -0.1651851505825026
Ni 1.737593701658073 6.281597169454027 7.437275913793588 0.9949940405995059 0.36942227286114443 -1.5653667945682201
Ni 7.962960266556584 3.9647772252046773 9.858201834178688 -0.20285721121197967 -0.17725622281442377 -1.0819382079912334
Ni 5.691138032236321 6.1445350708499555 10.284271479187266 0.8347158404003173 0.4667958631163122 -0.11433310092764179
Ni 2.7290548954892646 4.801632598546785 2.6513277994005455 -0.791118929645973 -3.3078435161809865 -0.7751096987019102
Ni 2.4183316791198184 8.73727420808459 2.1077548966164024 -0.9850716392794713 0.8968560613744877 -0.7505415224442429
Ni 2.280050872856529 1.4202478956055928 11.592430391121928 1.029639141477201 0.42930737925255097 0.23257890664612846
Ni 0.891433637048034 1.8352887086655656 9.436474189481551 0.6990181577539704 1.5432218830400648 -0.13823279036337482
Ni 8.03665901422755 9.078890246513268 5.23325633838369 0.3778146106898977 0.2808673093388711 0.9690945471249246
Ni 6.458668779195971 4.230172074528195 1.6981396944764955 2.2932124180768443 -0.35762528022621637 1.6972224777606577
Ni 9.176679726982716 4.436199800359295 1.8067652810321624 0.795497775439959 -0.8305928193708793 -1.445078504498408
Ni 0.32666655780894377 4.188490383113722 6.1260759011186 -0.17862842057160205 0.8689729618109745 -1.178131661895371
Ni 9.07696298788939 7.548269005305843 7.857027173666629 3.5126622219947117 2.1438428943703594 -0.35892188755045284
Ni 2.883074980514229 5.87604149197432 4.999204949532927 -0.6920656376955372 -1.433721684724692 1.5654009902402652
Ni 7.7784441480126 6.189145439585028 2.014490694974591 -0.6182415526255353 1.7340738422610522 0.048098655279439746
Ni 4.611797624094743 6.624318547387576 12.52099209871821 -3.589478556923818 -1.9949713933462159 -0.5936304389450744
Ni -0.015890436300802932 0.4482066666138366 7.8350696516390865 -0.4414031340748204 -0.19910494325839906 -0.6780559536800064
Ni 6.384526006253818 0.3502206813435228 0.3703378603321849 0.4460362619714576 -1.024806753085564 0.7885390847339386
Ni 8.303631570365711 3.2957728517177216 3.4635199307647238 -0.37224380147033953 -1.84476780377421 1.2719157350270673
Ni 6.004393137386156 3.704701231789217 10.839458949384138 -1.649384275231456 1.2254962672222638 -0.47709390260821055
Ni 3.6076769863616036 3.457388603083855 4.902552929545416 -1.7755169398971873 -0.6705807283488838 0.13653251984281647
Ni 3.879722767406741 2.8984080233894987 9.24465054865536 2.4339936858936855 -2.9447369011252253 0.8486381069083642
Ni 6.352480607958739 1.6269085936317904 2.5643545855903063 1.6972199066574962 -0.25156084706527 -3.2042460565032944
P 2.6477604814771305 0.6505914957519583 13.748967604553329 -1.4510082397192816 0.25760679614903376 2.1124741502510913
P 8.208789661909254 0.48723081954351954 11.745856238071196 -0.43002394570360136 0.6881477906983697 0.7633885536102402
P 0.8962621756885455 2.324925767285075 2.4649099300674098 -0.9473008482886008 -0.087692615521978 -1.5421204224457699
P 3.8997227993025794 1.00842862759828 5.39644507289137 -0.6329390067367099 -0.9176498581913872 -0.45273501414787193
P 6.9640356692309595 1.9171877528342105 5.526571874653338 4.288914261831181 0.9579881527991179 -0.5781179451317721
P 1.311962413512963 7.270110791272228 4.435541320329469 1.7436020934664613 -1.1196187532611428 -0.39619517007961447
P 7.779162146323456 8.56434053597627 1.6883909779373762 -0.37937192787468854 0.1856788996604802 -0.19101753826457427
P 1.1011921198917305 3.683378571426011 4.151835624609866 0.7368210875343568 0.04649351557584896 -0.04006884299642777
Ni 4.910796683835595 5.761473524661694 1.1092705456234881 -0.8617252791096256 1.2088627724306407 -0.0973306528323743
Ni 6.48805947321012 5.128992591566477 8.058170621514664 1.2836165684037637 -1.7555065582135316 0.4203686820020245
Ni 5.88367494770027 7.663791154584214 6.660038963352698 0.44242463336079935 -0.14904607892879493 0.3769952001123959
Ni 7.72500051058475 1.280077620103207 9.89615749225366 -0.25698716028716384 0.38824531910491844 -1.4349686697579158
Ni 8.482649333423925 8.062620321572737 12.580089972844057 1.4254309054708096 0.21761457202681234 -0.8699666931828115
Ni 0.7126992943756851 3.2170008791397824 13.801178363302666 0.02379761664022998 -0.12770797957265104 0.21047538987886977
Ni 5.045657550776118 5.381652418218483 6.02959015442413 0.24755763944314788 0.42363706834065107 0.8586700372230696
Ni 0.13794070180025184 1.8113018966752337 5.573017862754192 -1.3971289732023227 -0.5641465705533445 -1.847484945595057
Ni 6.740511458245824 6.855684055714962 4.204959941736308 -0.7713985683989102 1.7312417721288957 0.019077842567057465
Ni 6.482589459762935 7.376960276743145 13.13410219317421 1.007149445015117 0.9951205388750409 2.1320803545177927
Ni 5.323135555883659 2.9414312379637297 6.754920550663176 -0.22783059332786568 -0.10108034968279365 0.5324099015716959
Ni 2.893353693174915 2.8353375401884517 0.6667048894229747 -1.1358979500371404 -0.4749704285073046 1.1176222916564043
Ni 2.478586853154611 4.359959716561744 8.847534185532076 -1.79095435749818 2.235371595808976 -0.6852619845101424
Ni 5.401643002768125 2.089970267403405 4.339787742965148 -2.937966158060295 2.241683396959617 0.2698856135163868
Ni 4.191041166586502 0.8435799943640524 1.7229455913819758 -0.07293191227303569 0.7440973094807959 0.35025289902154516
Ni 4.9404330088508255 4.903531674611267 3.713570400397537 1.3878827720137066 1.0937151460215035 -1.4601091735792853
Ni 3.4474688895785977 6.346878331664817 9.911326151305127 -0.772177869767096 0.4191772327970845 -0.37040057761401374
Ni 9.36801682947984 6.098337547954042 13.358351015612538 1.294368664713945 0.02147591048558882 1.093845500951781
Ni 0.22158656028044155 4.578061150830672 8.398041735101035 0.7249171370079193 -1.8758632396274337 1.7995984063264232
Ni 7.519010574138432 5.743788092583749 11.741182635908292 -0.7502707852813595 -0.4493802387430261 0.12672324706187854
Ni 4.546497567191563 0.7239340784713539 12.984160527501833 -0.13656285886011965 -0.24551746908466746 -0.3473339256025373
Ni 5.3680293450045955 1.379813253888924 11.069819260076324 -0.06476840262563684 -0.931541271461499 -2.993449021618948
Ni 0.485324345081271 0.559828951382711 13.163207577333255 0.6773990368222979 0.6274381315231387 -0.05844323173855741
Ni 9.07334465429652 6.6159009619274 5.6622716659360215 -0.3015160959374743 0.6643663720080558 -2.9437673381231044
P 1.7048680944369188 8.549413728987407 8.395068655253317 -1.8182206494133009 -1.3250334407876536 -0.19989067238448802
P 8.451406959555463 5.77177113201477 7.388936677515159 -2.7905743269054715 -2.9743115294585487 -0.09311018699312351
P 3.179353204550781 4.445033069052071 6.776159129645243 0.20172104072500743 0.5283179908905095 0.3594705609650712
P 5.4221154019737385 8.314855017645947 11.550478505606264 -0.516020404470079 1.3179356534006077 -0.7139159008014092
P 1.010818806185737 2.493730949105971 7.29547880527634 -0.6484520147706445 0.868144295262092 2.0234134507369927
P 5.085128563180848 7.617329105994827 2.804491010125579 -0.17643809778850258 -0.2245256973243488 -0.24384805180204455
P 5.5453749277862086 4.62483496184451 12.93135458594218 0.4176248007083001 0.7361790830749838 0.08620368968127735
P 6.052508471559753 2.6400514469816163 8.8797798675665 0.6007927610214686 0.05354476599567552 -0.03877943476104289
