# total energy = -340864.93797029636 ev
CRYSTAL
PRIMVEC
9.37079986838177 0.00000000000000 0.00000000000000
0.00000000000000 9.37079986838177 0.00000000000000
0.00000000000000 0.00000000000000 13.71511282234158
PRIMCOORD
 96 1
Ni 4.685709063358858 7.20453315633981 5.4565988339702445 0.4435502623248103 -0.146374959854535 0.7044622115876771
Ni 7.951517079954028 7.216621487893393 10.598682707915383 1.2615955840479822 -1.2000613720889268 -0.04573401170200511
Ni 7.712683509174044 2.639613700520246 2.2678487770893585 -2.573813875348838 1.215439911427526 -1.246852878521169
Ni 1.232475682885224 2.501169506432928 3.4282705072755024 0.6696942119788725 0.43277502608617724 -0.7269609069108254
Ni 3.7902635608272606 0.15550186069738578 11.807093240209323 -0.21132976745936508 0.3935338211973674 -0.7018371152600043
Ni 4.570438856815736 2.766812935022835 10.27148062223881 -0.7921178032241325 -0.2329982535717342 0.19279339921807442
Ni 8.522470532068972 0.6166651499068315 2.6113438721242375 -0.17509315372483394 -2.322326304723665 -0.08525700949729188
Ni 3.553088621586025 8.022210392543355 7.966437267163031 1.9590677374710712 1.0861897841787358 -1.5690822957465944
Ni 8.778180913025702 1.7823823189774175 8.826566099958859 2.1065012204971074 -2.772613885772309 -0.8066856737359784
Ni 2.431385161410032 5.376018390666043 7.984623178051434 -0.13472811964422604 1.5523945506782684 -1.2881252549073945
Ni 0.3379400850000237 5.403390496455204 6.241446410666174 0.9997575234264201 -0.5264963643007384 0.7061789371684677
Ni 5.389755982958721 2.913156713218424 0.6085434778467613 0.7179813291200344 -1.6783523803290321 -0.8196242361745174
Ni 6.404398057088442 8.168891519526488 7.923508696868365 1.2812802069611031 1.2852168230113479 -0.10626909297258472
Ni 9.252727578300906 1.0641386379018356 4.985196071978938 0.30203545877605403 -0.13936613263686964 0.4841636649707984
Ni 3.138055904912998 2.723294941429935 5.061507178960802 1.1847095722232048 0.06916627458301637 -0.38512579963933025
Ni 0.1447310635751465 3.1041992057633103 10.533549090760738 1.24651940644115 0.721719456006228 1.551855904565979
Ni 2.7777861414175993 3.424474396335691 0.372955014986938 2.659758397831458 -2.3811176638302602 1.2106154934556894
Ni 0.0795149833835472 9.145366326665709 11.367181050455084 -0.02039707559911326 0.1509270980015917 -1.9751103927562308
Ni 0.9340794353448639 3.755957063294184 7.894844357806926 -2.7340535090006077 -1.5191201048958545 0.5143201339495207
Ni 6.189741149415625 1.3597311421857368 11.819245293200554 -1.1054856562938704 -0.3659947352368342 -0.32891479966540127
Ni 2.1108850716459577 1.8621371948321057 9.538394531591353 -0.2094999133394779 -0.31392372557320775 0.0429703329139389
Ni 6.07436786407631 8.5199216745631 12.550932323459678 -0.35726763977648146 0.10168121649158617 -0.625908839362806
Ni 1.3186401857032073 4.142118346233421 12.773597516516752 -2.744121948980203 -0.8013328940644974 -1.081243238806738
Ni 3.34385740691284 8.763534353166593 2.2508829443158986 -1.365433956091887 0.5267840707444863 0.9757657884975129
P 0.7525267516095234 6.946901761454022 9.286159780226269 0.28404904950096244 0.16111560849881928 0.3502297590930936
P 3.418833174944019 4.956534544157394 5.455652383205196 -0.2505578597220523 0.1566532018520915 -0.43808846787929073
P 7.997930650639995 0.489576490840159 6.675995691778462 -0.3449834230924897 -1.3053627018316036 1.4774870027361005
P 0.9656234211399586 7.3241795263213225 5.104902415078235 -0.6625953961505621 0.2974763786504619 -0.03878149164357192
P 7.146902738468076 1.7054386830189114 4.154650853690601 -0.3200776609897455 0.5233632179883955 0.18370172132945137
P 0.6515741898576564 6.135184353830383 13.01795985909256 -0.13126150125186425 1.593951033963816 1.2764910131025757
P 7.241379140579105 5.666494438338893 12.240395267887674 -0.14464769275078315 -0.43577936013013985 -0.8442602895556427
P 6.755006526140628 8.328860440418905 1.190891822340897 1.4689074885972058 1.8257956335470813 0.9127102547979249
Ni 7.392839375385746 5.11725312902213 3.308825609486549 -0.24728510250805155 -0.4855435760374606 -1.122980470644524
Ni 2.332204617872726 0.4776184134017655 4.2737115486937425 -0.5525010158946162 -0.5731510880448001 -0.12890817052833928
Ni 0.2406721216720861 2.474359648623004 0.7993582599600567 0.7505803461019783 0.6842163168544475 -0.1769114378804953
Ni 9.196380959981761 8.747360352963891 8.464199151500909 -1.1666789399737392 0.6918658629799053 0.001858136254661316
Ni 5.185444438103855 4.855217458298989 11.658490162217168 0.7493233337664256 0.018556679956264817 0.17099995749206678
Ni 8.308422726373662 7.573705179506453 6.135222774108965 0.6289995624729877 1.5121860967801828 -1.455599972855022
Ni 8.524419658396992 6.288827984956392 1.153898716547036 0.6608807274523004 -0.8221909684604292 0.017783806345982273
Ni 4.929837135943318 0.5165925062424697 4.1022727690249 0.19624150566767493 0.021814781882246302 0.027807252020255337
Ni 5.818104605939997 1.201561414826874 6.4861236121103545 0.05603822184149059 -0.44813993857802176 -0.7352946235875014
Ni 1.869652576154566 8.084722997034794 12.688179866431188 0.2575695151531951 -0.6760813464521389 0.26838434638051195
Ni 1.7685322770888934 5.36150302200209 1.1657143578306897 -1.954168243286925 0.11898268388451123 0.08929621256367201
Ni 4.390294604268382 4.776230988015923 8.96796959257689 -0.3802952110199063 0.23080818789895088 2.035087287530495
Ni 7.140905426689554 3.337138543560965 11.839241642582097 1.0148527271966457 0.915939303258184 -0.6765508298893896
Ni 0.178479061448848 0.2598757014029065 13.647373981928578 1.6015679270791257 0.1994813527612113 0.9989201151267894
Ni 3.0681028854963315 4.260827636249539 3.0773556130746322 -0.11493216796422141 0.22458431847642613 -0.04637318794790079
Ni 1.9353231401293813 1.8990675162682853 12.055584357112657 0.7444829749549888 -0.671312721418902 -0.1046590681729875
Ni 6.818793559385001 5.359188434487566 9.455322392659168 -0.29358527112617183 -0.4938045304946722 0.27359134450274813
Ni 5.3966903747026365 0.49418598718993234 1.6306175331820234 -0.1907444871088457 0.4073146770315436 0.2954956007750072
Ni 2.7675251157965346 7.101604292940927 3.891690285041617 0.4920124715912559 -0.20927494181286535 0.3700020566240144
Ni 0.7006378226857584 8.033061778542619 1.59946993221229 1.2826179519359202 0.17199446019485218 0.16934648104904382
Ni 5.183870143761992 7.16407941423375 2.6708943668450646 1.39802705953656 1.642524057776513 -0.24248896667098882
Ni 4.3388020601699795 7.848897452943724 0.3886792168062502 -1.0444798060344593 0.1594122526544674 -0.7990613244215012
Ni 7.07690286505314 9.038145637025321 4.630290154205453 0.12718116053490353 -1.2310305667769315 0.2787767453584296
Ni 5.004644229580725 0.25816834170595854 9.534828942323028 -0.030990020623611142 0.7914567726013659 -0.24485155336589445
P 1.24949305505678 2.6363432914410203 5.979034970876911 -0.9824257170161919 -0.36766749495356676 0.1984976486917033
P 4.071724899233019 7.37201745855469 11.953200874253634 0.5754067168481961 0.32145705783577544 -0.06456040037988882
P 4.09612646153188 2.4773301921133033 12.301166777803408 0.518733689636184 0.07865673057195487 2.186196676746222
P 8.237795009381912 3.810026577297421 9.030702410860195 0.03830943710315983 1.8569059817986409 -1.2730040829952396
P 3.320439778577643 6.534464756285137 1.8365492892970556 -0.2987555024732016 0.7039130239524265 0.4970310078517698
P 9.215160042488257 1.760239119395156 12.224952190057978 -1.9685206553538548 1.4875076201968962 0.4947275565295738
P 5.358616815708675 6.431517151286945 8.04145801503255 -0.8296579662614356 -0.9793437356567585 -0.3816378410907298
P 1.1555414177263719 0.8384251237173349 2.029068619867403 2.0624713359704026 -0.8944816476050402 -0.648812740544173
Ni 3.0163292174083103 5.643273596796428 12.258773280168981 -0.6561653242545022 -0.20344008029864322 0.5115204597171965
Ni 3.2100330170549154 0.7999148854595007 0.3689293194556051 -0.488563593810707 0.864561205896524 -0.12359215763206455
Ni 5.769029728152311 4.070815931666587 7.309085042238756 0.7037505302326331 0.2498376937265762 -0.854694083294457
Ni 5.478478714082229 7.245071235642757 10.261386396851586 0.21610147781639555 -0.03565451597881601 -0.07754190024122129
Ni 1.4874457706692925 7.494887383617159 7.286852820059782 -1.1922812139228756 -0.22384615475882094 -1.222411457649353
Ni 4.56654997495935 4.9602828640189705 1.0947239908923323 -0.015415306113805708 1.1434022288339856 0.12077988499425005
Ni 6.313913615629992 6.671137869237859 0.2329187220384157 -0.39361583938821243 -4.282700419710985 -0.3436811593412984
Ni 8.67528016202578 3.4292816165581623 4.2693634976543136 0.01189906543043112 0.2011731386413374 2.342746006030598
Ni 8.030831528224981 4.196468984226276 0.11737301398546705 -0.1990920877425926 0.23860428690460198 0.19356318750456342
Ni 8.542739571720446 6.296080983888543 7.917610715566175 -0.1641759925916979 -0.2096007005834003 3.6885076805045376
Ni 0.8691397937430558 5.5724865762105615 10.971363158472462 0.02912134284598856 0.2742312920795923 -1.4381812631579427
Ni 1.7938334361545327 0.6550076508508601 7.339861559542192 0.32658075221558597 0.2176924764525993 -0.4153799705381814
Ni 1.0961586603193505 5.334786872188705 4.203133496940159 0.495129934174315 -1.1453950908942985 -2.4357669757440243
Ni 3.105670421308979 3.0791510582883275 7.53730430825072 1.1172975613271339 -0.6255069759386969 -0.43848184666296747
Ni 6.7056598951629764 2.358902026086802 9.322367613009131 0.35638600850247654 -0.1403441802794228 1.8427114354658136
Ni 7.401938421849722 5.383318243596464 6.250127519465584 -1.3608306529919207 -0.6151827111945535 -1.2907914888856478
Ni 5.105717674648128 5.275076136793795 3.8724482850322155 -1.1244308299378054 -0.691035653769126 1.287720306159492
Ni 3.1329769315005622 6.81455795794142 9.802259382406943 -1.2011751739783958 0.0005625573716893538 1.8733355881095737
Ni 8.319021100782269 7.82099121157429 13.025763861044362 0.21549186925685468 -0.9150725843825144 0.09691721944403953
Ni 7.343689531200828 0.9349340522733033 0.3606989461195491 -0.20062369389577062 0.5151991941203643 -0.6636426064681539
Ni 6.23600478730713 3.516364457742232 5.064470225811378 -0.025553422989072122 -1.1173286716753856 -0.6775144793542396
Ni 8.059843523953582 2.649359332160344 6.751305060277322 -0.13784095424159487 1.2519187230798505 -0.49082410771010954
Ni 3.701484604905828 1.8413152780010498 2.6702093613903615 -1.1944206288633816 1.132763518173217 -0.8951856156506004
Ni 8.786033643135704 7.025325983757852 3.3360505937211427 0.047611945451008324 1.2397376076326263 1.9976479117371142
P 2.6715119025422593 9.155177553903386 9.748948903175673 0.5641576262969381 -0.19906791937287652 -0.36279679712482676
P 6.954520221572676 9.058302227080947 10.554259495075915 -0.12508314035529425 1.1126364084060387 -0.4418235094416907
P 2.310211351084927 4.019182825573374 9.810543169301024 0.2561006439171524 0.40268771978249357 0.056241338991232175
P 5.09114608118625 2.2927160681310204 8.154046298714714 -2.800354546220687 -1.0741480225228535 -0.5105660662237271
P 9.172438566865944 4.2641167869280725 2.28101568768311 1.0641137782153027 0.8257720009434683 -0.6880200068712538
P 5.275853913165073 3.3075642998531283 2.846955761983196 0.1405714657988805 0.5361277167429154 -0.6269570781216621
P 3.7581217180142445 9.184058358436829 5.705308290505514 0.026343780100851404 -0.16135137865870922 1.9578724316113896
P 6.744276960536866 6.681333299261348 4.575197348880007 0.30074656476130135 1.0922498743298865 0.28629773632582306
