# total energy = -340884.91214620846 ev
CRYSTAL
PRIMVEC
9.10413504414116 0.00000000000000 0.00000000000000

0.00000000000000 9.10413504414116 0.00000000000000

0.00000000000000 0.00000000000000 13.32482189717793

PRIMCOORD
 96 1
Ni 6.586987402022214 2.0311416421731625 10.835012340011744 0.12500086505413308 0.12495432808691383 1.4715688374794529
Ni 4.9915696651404105 0.3140516919134577 5.880630335463553 -0.6419846618787459 -0.08508037471011154 0.06012293343382548
Ni 3.2160448238211026 2.076052340560172 4.419896441826814 1.8101016198505921 -2.6633132050622517 1.409455613088476
Ni 3.5657801732103125 4.5089958806883885 4.428598174143518 -0.053736570291507454 0.07679345211097097 1.0187669746493875
Ni 3.7977899517820846 2.4814412677397306 2.2646463197263142 0.6949267612934161 1.4555202686570223 1.5108442380403078
Ni 4.94347251947275 4.496896485157 2.3402516095610846 0.6775587023286137 0.9118162822287457 -0.13879303374221905
Ni 5.405352604870712 3.5601082970507525 0.10860686911372215 0.20668789781197952 -0.6896426300763413 -0.38942879789005835
Ni 5.675217377136623 8.233096963071638 12.329791146808471 0.22664222944671933 0.20106643786014403 0.38960697533913546
Ni 2.0499052645886557 6.986276558693096 0.33362922400577993 0.15510899729342317 -1.457452966903361 -1.103131554239397
Ni 0.9702823010934375 0.46993724495046774 0.20143445129365858 -0.9559806354507858 -0.5764850375140395 0.5262824485177194
Ni 8.311392524824786 8.91865654343624 6.576559525692905 0.5074794568786034 -0.6885995335238075 1.8330158054446044
Ni 8.65446364732989 2.3933041359569125 1.0370520278257154 1.0192588266841414 1.595916128109987 0.5611674333203626
Ni 7.242175587734667 0.7253528444188873 4.887331870455215 -1.5097278650476773 1.1340462415403825 -2.260471219090081
Ni 0.7631768840537281 7.630275762382919 2.175263742263516 1.2193762703674549 0.27951670884824764 1.938638523082442
Ni 8.076378381674113 4.233195212345379 3.4405227514349237 0.9888318776528517 -0.17951262294876827 0.6780868069179419
Ni 7.699931499937958 4.218410096963156 12.679607522999959 0.8600041826534609 -0.6278201974529058 -0.6740298632397489
Ni 8.341417962343609 7.3527271001030945 9.102412585216845 -0.14307134940259877 0.2446540926431077 1.298833642463834
Ni 7.194196795823144 0.9376166643992168 13.44634412387293 -1.5971913952779848 -0.9985704450968544 -0.3155311792696437
Ni 1.993350377424637 6.963252201056618 9.152286858053602 0.23815820050611888 -1.4304005907712591 1.3139537859347241
Ni 0.4762800958659815 4.890695848370075 1.4583222082520402 -0.3045559112050626 0.0612966420269525 -0.49210194598126855
Ni 6.780058794824426 2.1022995620176523 6.792541474443 0.47644187084650846 0.7045971945036446 -0.029698812616013367
Ni 3.219213062831579 4.416425035117921 0.33736738187273835 -0.3221211737823355 0.5886101029123475 0.1603854152010141
Ni 6.574451008006622 5.772868330085958 4.516715276829143 -1.1309071816907685 1.8457070277590277 -0.7619734184302683
Ni 5.657637292282516 3.342073365838409 8.95931743156437 -0.3916306906373836 -2.05176783350997 -0.7134312478555068
P 0.24603196743365555 5.839929389141038 12.493486226923604 0.13729150949602806 -1.256892779255674 0.3866203819069857
P 4.1366822762819915 6.395909814804181 12.804793932521665 0.09675678260677531 -1.0088317178135464 -0.441534260336046
P 2.5375500522844576 8.767564317522838 1.4662500890863008 1.193381903186222 -0.5860487699430745 0.12166125915793885
P 6.595645434490498 7.731695827258508 5.609403584588541 -0.04004107508228588 0.2392786872638073 1.0451025272201226
P 5.240540447380335 1.4977394715272065 12.657235021435753 -1.222981214109894 -0.2069789466898371 -0.701364803609276
P 3.9520959373814 6.237780092468083 8.531576942331306 1.3537632046221781 0.9566275250061654 -1.4432841316021465
P 5.174708446562077 1.2518185745416197 3.6850197616928138 0.2854235612509859 0.7963904624575575 0.7544331441891652
P 0.5322750787221141 5.809057267059069 3.632640030879957 -0.04764434135084053 -0.033703820010348405 -1.7506417739220623
Ni 0.9115697339136635 0.2875013027575615 4.756255085531849 0.9474075490697941 -1.3932180681836908 1.3520765609483747
Ni 2.0009523302227628 7.002973542443709 4.652761098683309 0.4801530011495086 -0.15072166685900493 -0.21940148872390602
Ni 6.321547239408865 5.588218262239753 9.005581004425393 -0.4008054151581162 1.5278543994450589 0.7295870316797629
Ni 8.903033847625961 2.5157456487497147 10.017308059678001 0.01647022974088131 -1.3449726029137417 -0.348523060814632
Ni 2.577562725994351 5.229178486791041 6.758868920408093 0.31624388906595213 0.8021188803009025 1.2725433413087373
Ni 0.8476687201474805 -0.026802573697822022 8.930015772785008 -0.49341423703478904 1.8034643170397329 1.0738163502150475
Ni 1.842012339863871 1.5532291748859788 11.680512455181363 -0.6832333841158879 -2.2441490848912897 -2.8795224121011054
Ni 4.260962824362483 7.166319934184988 1.4920065976625605 0.8975196631004156 0.29999323153504465 0.41368715621679075
Ni 5.792296554362843 7.491419494027219 7.773647681742056 -1.4581777608845274 1.3079325194413087 -0.09964053191247356
Ni 5.700918350488849 3.376286705497518 4.604858781506522 -0.4007683912725936 -0.5176013758039536 0.9646321404781968
Ni 1.3250158206457259 7.867374752468645 6.978436077555676 -0.5542887039226583 -0.7399827730917901 -1.0819243240341623
Ni 5.143517679752045 4.840896229441038 7.012706773265837 1.5095460880541745 3.546470943014041 -0.2934402609078753
Ni 0.8959725296816293 7.562368018764693 11.461132843216586 0.1795013100948586 1.2970223002867083 -1.0648637690074498
Ni 4.754880361133625 0.47717139069105513 10.232064591845306 0.19466747631233572 0.2595569778968691 -0.3062548961740403
Ni 8.438950561536805 7.570889489206664 4.387077855663122 0.09239156365954411 -0.10377743689898256 0.26004471616656505
Ni 7.68726764803114 6.304586235740712 7.142557231192907 -0.8090518599753099 -0.16440507788336847 -2.2749843251045916
Ni 2.6209348255515605 5.6168962877656154 2.463479719625453 -0.6307178307156751 0.02810344310443547 0.354467451323525
Ni 2.368613721599408 5.519809791191711 11.452310936316726 -0.34467411938218706 -0.8318295199914578 -0.033474991828993966
Ni 1.4458185891227642 3.3497117351768853 4.05133192024948 -1.3646561973855982 1.3664665111214596 -2.366498885475821
Ni 1.573941082210213 1.1430696809205312 2.643178048397525 -0.40876812164861864 0.2671864694176689 -0.06126913122312675
Ni 1.2818258037902681 3.4263230319388325 8.093443172482266 0.38219602758704496 0.44897657554670417 -1.2235882515662735
Ni 4.396996810841035 2.9462346763657177 6.958461605173536 -1.6991616037648996 -3.790975140342845 -0.4427753318319987
Ni 4.235225434469908 6.73381889271463 5.648751656437042 0.7718459403489739 1.1570645568124267 0.5146222385709718
Ni 8.612402543225292 7.621563105104109 13.560138529159554 -1.0677554887329483 0.2514315205762573 -1.3935669668826773
P 0.5353012932252242 6.024015000611813 7.931000821355184 0.12330136586452313 -1.5403728436270439 0.29415631313829343
P 9.151385548679931 1.579895186557487 7.639307064389794 -1.2990519291222273 0.43314963581677657 0.4643939385430389
P 1.8168211980765496 3.592018290532705 10.189998025259657 -0.10621098604113967 0.2173345788925483 2.3677309581107093
P 4.487145956478207 6.22739227433316 3.5901200783669456 -0.11994967578347085 1.0360864397644414 -0.8063352323750952
P 7.1006973284737445 4.10499988617723 10.242857543991628 0.9965706410580063 -0.2700715042749478 1.4900694673868016
P 6.3172774000527925 7.940435436546438 10.067236046911772 -0.0683931438624177 -0.8555808567747847 -0.28433804149629094
P 2.844186426169085 8.741845135900439 5.723810698166558 0.6955996189907245 -0.359088237924988 -0.32337330102188183
P 7.047165014158801 4.4235990935669305 1.4840787168282998 0.40187653673510787 -0.04461121095147155 -0.08730437894462384
Ni 3.0666277587638153 1.8929044550034175 0.3331831213864887 0.0036620222326195 0.5784120793334232 -1.259901484175011
Ni 2.1679221677288956 1.3778835330992765 6.8675203997837455 -0.5541856026858908 -0.07493094498093546 0.1256176727025256
Ni 7.111167083824456 0.5715193634306168 8.708557686779736 0.8021296789341799 -0.2089412126225305 1.025964520839091
Ni 2.7250041937376355 1.9401367078377587 9.328081333700121 0.8928052883438818 -2.0375655738676586 -0.8134523030358507
Ni 6.616949110595424 2.570024502141839 2.628161687984078 0.311051032011103 -1.649473749621469 -1.1459995572475168
Ni 3.9183013879363204 7.235766276633013 10.807403139945162 1.1722803453209167 -0.6868774086263784 -0.7215996425989121
Ni 7.364416809555541 6.301135768542521 11.326232321556436 0.34156565566019237 0.5019572415087935 -0.5380488450250283
Ni 8.152935053625535 4.050192992950025 7.914251033621062 -0.956786676291849 -0.0809853787051315 0.31174625830591474
Ni 3.313368027907284 8.939450387976263 12.736504725643272 0.6709121435463735 -1.0855140982679499 -1.0925141837348669
Ni 0.04492526500314964 4.8411875617638405 10.2251090326384 0.34137873646036687 1.8517882009561013 0.08055163360182258
Ni 9.029080597913444 3.097499880845783 5.707793793306986 -0.9068828494828703 -1.1973329174141703 1.3381499235649537
Ni 3.745304613002212 2.7633326024563276 11.324526206641025 1.558950092408599 0.9685659283149641 0.7636212384463364
Ni 1.2099850738142104 3.4798098255783376 12.57756564569789 -0.9983642426233194 1.68805006723277 0.42698438754632917
Ni 3.192537947024983 8.740816368635542 8.163572325061859 2.727963851163102 0.4133847944850235 -0.414309363181822
Ni 5.8969212747892605 8.241026664732916 3.5132757157467562 -0.19855884094694193 -1.0582408643742935 0.16479485712261943
Ni 3.4292272510317687 8.773172464736787 3.5103041260541716 0.09931091648719671 -0.3249876966968532 0.41244917004463155
Ni 3.591808895425691 4.368264160504647 9.343192377118479 -0.038759637266700994 -0.08759311382963625 -0.2375082256269458
Ni 5.134568314960958 5.0583758084130395 11.18979866354754 0.17091099732268628 -0.5222974957280425 0.7470779893756746
Ni 8.144805060992331 0.26584074455720214 2.28539373317739 0.33591488513231826 0.02923909937077545 0.6605207730097205
Ni 4.882401981305294 0.48799802813719984 1.6177001075086441 -0.21680930251669758 0.3710983750119867 -1.2454035476691518
Ni 6.433546309256218 6.107709314471894 0.18356303411674804 -1.3072758596939162 0.5393076571327938 0.6100070805308848
Ni 7.878891483354428 8.929071673976427 11.171477502097304 0.8494570032652338 -0.1860681646790989 0.002692716340814717
Ni 0.4328888776250884 5.534094179144117 5.788635781644129 -0.544960741653513 -0.762020726728436 -0.4087892046945411
Ni 7.766100353754456 6.693660552843335 2.1901480927181938 -1.037421356525781 -1.751418247076771 1.1615588451383543
P 8.849437804365405 1.7018541801906473 3.866103739825215 -1.2269615389138804 2.2780318536816635 -1.3315223909461067
P 1.6991775644749003 3.016345620675136 1.6679075916896051 -0.06096342705724985 1.8230563802390471 -1.1452074003635246
P 5.182501586197041 1.1037762338825556 8.019011405660283 -1.0387195065119144 0.4491745504901232 0.15074146435334684
P 8.741927073116226 1.5880342833257797 12.09070381361962 0.40334052287514405 1.3139026209818145 0.04621583643443008
P 6.495490844392081 8.235345684438268 1.3447007815320815 0.9330764771591027 -1.3376634708468382 -1.3108090696581554
P 2.4832711988923326 3.2609737304782875 5.9777286674130705 -0.8882575210721991 1.5291669476088954 0.6265464729468048
P 7.183881810768921 4.372524895725633 5.8906102883465525 0.5145674740736363 -1.517355042575632 1.3483042383901358
P 2.678982790869942 8.832913799181455 10.3345452884586 -2.1612024686947295 1.8595830144101715 0.4376426385911237
