# total energy = -381167.3932734624 ev
CRYSTAL
PRIMVEC
9.24918435505675 0.00000000000000 0.00000000000000

0.00000000000000 9.24918435505675 0.00000000000000

0.00000000000000 0.00000000000000 13.53711622550522

PRIMCOORD
 96 1
Ni 5.352576859872605 1.1839325676699353 11.775300974190644 1.9885796308872592 -0.2013996528298467 1.8903750600903637
Ni 8.084813604719656 7.216111731179019 7.1890476934438 1.0491746404069673 -1.214794050313411 -1.5264408069269841
Ni 5.268585018625373 3.763659515101987 7.0224874603897005 -1.8809604516446832 -1.1617426790143863 -0.510166002571831
Ni 5.4171454144092115 1.3811066753352246 2.6239805939061744 0.58781897446962 -0.15764179101760595 -1.1987678500884837
Ni 2.3250136651825724 0.20640201868966576 4.291631618735933 -0.47132306156270437 -0.2043692769811319 -1.2636663505340817
Ni 2.300669812505255 4.61834887465853 10.251806808571901 -0.055633530203904186 0.11297067336247642 1.1348625667940906
Ni 2.5151583928954446 0.591085761504086 8.4726503944101 -0.13974871278726902 0.1624250713388622 1.6084587406616877
Ni 3.3980855116555775 2.9120038879459607 8.511272212656555 0.34604503158778466 -0.828564990307573 0.6776268365623878
Ni -0.39972291623893286 2.769677442277818 2.241272476825749 0.38082434405049903 0.3776860555318334 -0.10848152724287123
Ni 3.6470550505492008 4.238022422496193 5.155529466030141 1.3780418746638847 4.240087984357097 -1.459764388645357
Ni 4.575330919186569 4.193052889169022 11.013743499656304 -0.9970475806944248 -0.21389624263496065 0.1704857368598096
Ni 7.444464838606935 0.7801649832031184 2.2669528366124396 0.9006376399041071 -1.1558623089742093 -0.6186956094438184
Ni -0.06349287442020408 0.6217246089124749 0.19905261696573112 0.09371645311855471 -1.8667749041729202 0.8725524516321166
Ni 6.854033919340522 1.8767242079013433 7.151469183169229 1.0539219252839656 0.684403493164589 0.9395988516586528
Ni -0.08108482266954176 2.7216186814452423 13.155788879106373 0.7123231023929926 3.1574794897717173 0.6776741448605554
Ni 7.997445811258435 1.3051801226649757 11.57020031571059 -1.705319138725863 -0.46131170007328937 -0.19792275002483978
Ni 7.755024694741536 8.728325591810963 10.000950436112102 0.2910159677370988 0.6368712519115806 0.3271517942277075
Ni 8.521523083447693 5.59101157802175 1.553479095707875 -0.9985838148332931 0.024788519798589564 -3.387951377377172
Ni 3.747177468950399 5.1470414897376 8.574774336260909 0.575502618996112 1.2412738417714946 -0.3329000095653944
Ni 5.7135910155340905 8.22415256390802 6.060932102269712 -0.2212593678682512 -0.7815603394232604 0.5948442567475174
Ni 1.960993524673013 3.3337389375385205 3.3060885015283237 0.1538941510497156 0.5408194657916299 -0.34998730406498435
Ni 2.1717546838515918 4.355561054647919 7.058482510338147 -1.0177994685297955 -0.29105479139483426 -0.456136326519937
Ni 3.672860274321888 8.788713515112711 10.905432778528956 -0.05657841061567675 -0.10928833941488274 -0.22406649829974315
Ni 5.717512669612808 6.1316818865723715 4.7479132960393775 0.21874174365272006 -0.5428979455872134 2.219373934829139
P 6.399797236652183 3.346179090217469 4.11483623850375 -0.8335698997213321 -0.5960583316602767 -0.19047606393880745
Ni 3.3669805053661337 6.773935984619563 4.716561336533184 1.0490733389424125 1.3174108912453892 1.4838538254943927
P 1.9155152862177063 1.5303885074826007 13.024898124718712 0.5222136777649845 0.6192193431577722 -0.16521780359265095
Ni 8.222496959945545 4.34525746350714 8.33310980300731 -0.6144869706791094 -0.8001270466818542 -1.0532002166265926
P 4.284370084261404 5.950777093823268 6.6479824447300615 0.21857307928533973 -0.09114406440568819 -1.3953428278361775
P 7.476235786155029 4.367020793807188 13.361146664905737 0.3393257105860801 -0.002667776640150244 0.4627103801930289
P 0.3787337426520654 7.142589966387229 10.78519615936128 0.48978718180516295 0.6643311478947462 0.03285818418060148
Ni 3.9006306831484863 2.2462476129789133 3.789525783490051 -0.18237837453233752 0.37120250469001875 -0.7334938229333368
Ni 0.440213069683268 0.34069924759900216 2.741401761419221 -0.1823457215221892 0.021977532712355696 0.5054832523841811
Ni 6.441945768814239 8.002264636199499 8.37141992374798 -2.462871031049668 0.787851828858927 0.5382149382892473
Ni 0.78004751856444 5.68287447497886 8.89896194031905 0.2968765402829339 -0.9033583812693797 0.28755037778600157
Ni 4.835122003533254 5.946550216667671 2.819876464322221 0.15688382980565885 -1.2813755948883867 -0.7617060237014946
Ni 3.801303694584008 6.240276557653062 0.824320588325273 -0.433008482253222 1.0547387647583062 -2.55269920485741
Ni 1.5551763209990177 6.766564384853674 7.134262925898859 1.6949329103955326 0.41989739879256077 -2.831028578265776
Ni 1.5151643503751298 4.727452250867356 0.9993022035460508 0.8681849186920403 -1.4249606507026105 0.6391258522737122
Ni 7.050227613486132 2.019392873382959 0.13013879571643303 -1.14539431956335 0.7263543836750781 0.9020694872546271
Ni 2.6192764588485433 3.787614902045091 12.415836573823151 -0.3103308660156268 -0.957748525984486 1.0362183373566154
Ni 4.560430483524275 1.2703754427163652 7.336223486360695 0.7204483026032882 -0.35196679638885836 0.5111743892316875
Ni 7.362609558897872 -0.26142911485928166 4.58931198594456 -0.5261292107693069 1.3323022065349248 -1.4889993742510743
Ni 6.711235765280835 3.3352743021070745 11.58352099072042 0.018556937066580945 -0.8228478853181378 -0.46993338030402937
Ni 0.5564235189913532 0.24688939737875654 10.642948331758395 2.2845436866582527 -3.677251647974744 0.8912654546605877
Ni 8.065677042717615 6.490134018224886 9.600089870222975 -2.0099647814312545 -0.24362847959207076 -0.5474176878344379
Ni 1.0991175490335388 3.0917062867558354 8.994493063709223 -0.09436822776994071 0.14519096684876284 -1.2042242452173648
Ni 6.269938691215431 7.674260818761927 2.7166009990449975 0.9743671083777735 0.890226471873112 0.4343056037980907
Ni 5.700484921596493 1.2626616231370027 5.210842361989928 -0.7214209509292027 1.2287515409347678 -0.877142127885328
Ni 4.96482331283949 4.278681836010435 13.32324258334916 0.4562731092081174 -0.43734953283073713 0.7174773929004225
Ni 2.452707901528711 7.292713474292066 9.289358904181636 0.6455790640982236 0.1712375274241696 0.7883881609783713
Ni 8.041721655774511 2.0319625146399782 4.661682227309934 0.40298108265319627 -0.10929425295215371 -0.15141586471255214
Ni 6.456873952028977 6.4565502305838 0.5032841813063271 -0.48656841775754917 -0.16273283238726813 -0.32163163574042675
Ni 8.776282611617912 4.330190542530183 10.57626448880716 0.4218136419786671 -0.38736214516901674 0.37219906427533317
Ni 4.232204685667154 1.7963025517352071 0.5036319506302888 0.17924548533031068 0.5132222728996516 -0.6273887663424421
Ni 4.45234451757172 6.393887007981664 10.413087607314369 -0.03692875470554931 1.1147308290412221 -0.8046344476339045
P 7.881035579572754 0.07989630250653444 6.663902140485457 0.4809600704318362 -0.5373757302174036 0.3403253554951881
Ni 0.030218934448073595 2.79208821546822 6.67243081318825 0.4845752985869203 0.26933231211607805 -0.0495497859036695
P 7.251915323015605 2.4708548008269235 9.307674138631343 0.8895222467172358 -1.0253135175186534 0.8155855473287696
Ni 2.051404299718899 6.790815745689511 11.994399347960155 2.52406148651606 0.7196175791718769 -0.7675755951083941
P 1.104861292389395 1.8783983102321162 4.67268783152754 -1.1096876101903599 0.7823897773030912 0.12185743432914496
P 0.5382978928166807 4.882163354109559 3.0421149361099498 0.6786701902252377 -0.3747362288748901 0.4168259589560886
P 7.894095427589612 7.949239063479492 1.3202239206815625 1.1092816330011928 0.6476549727906459 -0.6936157557914764
Ni 6.975188982494083 5.698348360058324 11.47853997588632 -0.7779541101292409 0.29159138062459455 1.2388078967295053
Ni 2.2568841747490174 1.4515022158850188 1.7746344880318827 0.14255841432192223 -0.2950842242692015 -0.4169997655297915
Ni 5.911930520402017 9.202050305498963 0.12703846919005132 1.0857958911744268 -0.8107706424386294 0.08991764819775482
Ni 1.3611191883915763 0.7196059499946336 6.508253169970654 -0.29631295446998 1.509651246173471 1.669300554539409
Ni 3.6504772486839294 2.0020968990263546 10.882771352448144 -2.681019878313396 0.9144488347555864 -0.8524392258220094
Ni 4.39231731245174 8.853911014171377 3.9970904246271095 2.0546875782599257 -0.5189818010912481 -0.06704562869558775
Ni 7.7488554889148755 5.01167043054869 3.50729062889003 -1.0637522811108262 -0.4210906477697135 2.4912066447695675
Ni 3.178815103060915 2.4016431558480624 5.822327199132245 -1.9287202355274657 -3.5367714563380894 2.7350539252406643
Ni 0.29744728776809903 7.171604657059243 3.089833326965882 -0.43557572875976597 -0.06167896506703571 0.5763953060137105
Ni 3.3693390473238525 8.840767923497188 6.2433990822214 0.49107530448896713 -1.2333432740705081 0.7104335986797636
Ni 0.7561060053975573 2.291744349802516 11.096143556311679 2.1063248428202432 1.9935721990058441 0.3028286441013107
Ni 6.019997987986277 8.054587270924264 11.374669788068385 -0.7639004602496522 0.19061181818572334 0.47208385098812894
Ni 0.3277994104679026 8.6597891372749 5.154460260342643 -0.7653924714141462 -1.8139667592329536 -0.4271170564694515
Ni 0.6017445213161452 5.3197700036999445 12.546740277068618 -2.4747605833984028 -1.2794850627338932 -0.3160135182227009
Ni 2.56299517330847 6.00223030523813 2.7475876157773484 -1.5389363682908335 -0.4832347253986259 0.7198867736728634
Ni 7.86125157468036 6.918972441243046 4.800680816521656 0.7362703572372093 -1.5899701949391973 0.8431925104127608
Ni 2.6865180276038982 8.694566069671067 13.234439316508183 -0.09396970677994139 0.8978919588381696 0.7461179394552505
Ni 0.9611567182832125 7.102587244947489 0.7425226535579268 -1.3348547977534495 -0.15814984100227603 -2.760515816957194
Ni 5.892174263062067 4.051272145365606 9.229023701229533 0.3395637947388152 -0.24024387939055397 0.6931521858914965
Ni 6.428700937114423 3.9128858521444756 1.9794243739245665 -0.8932935408342099 -0.5116790967822478 -1.30683131595733
Ni 7.2125507952820715 4.187188906419243 5.958970946059908 1.4258119429593121 0.4529684703149166 -0.6739928393542263
Ni 1.5201589098150048 5.506631271040306 4.943145999952018 -1.3388420645359718 -0.6021469610565178 -0.1726853156142897
Ni 5.46340983351709 0.6978611180628812 9.583885299595826 0.2927771734025797 0.3423760673766297 -0.735843554112436
Ni 9.076964339082537 1.1271425770017265 8.771631196909924 -1.5445053777381788 1.8196830928914403 -1.9209135949988532
Ni 0.4870204159006303 8.267327755510497 8.33377389442913 -0.14485235256242152 0.8459978410720399 1.1767535506009217
P -0.025900490369411267 5.370233552410978 6.558177491245865 -0.3225091532493736 -0.9679375507023459 -0.2171384037213422
Ni 4.3118309119965685 8.718946919084976 1.6249817636001749 -1.835880528586909 -0.40735350068927917 0.49532276691141147
P 2.0867639307163848 7.99502252501168 2.093325301950917 2.676943908471809 2.9672291686904706 1.453906130092367
Ni 6.283525742728721 5.699643245839033 7.739250211177264 -0.5587752789391022 1.6559596144561288 -0.7762075597517794
P 4.928806989767503 6.368719977915183 12.41457775986062 -0.2305996714325706 0.10028742146785309 0.828028915298445
P 4.202986512943885 8.407730370875873 8.517228687247815 0.24541179674473862 0.49000906800798194 0.10443872463206531
P 3.7916475463335826 4.205770517372407 1.8153817687955298 0.027044405712301812 -0.8648982775209686 -0.4068871025758219
Ni 8.206477373001352 7.950663437838271 12.359657954227119 0.45687988955418085 -0.2734787301842838 0.6149500263584571
