# total energy = -381160.06405130285 ev
CRYSTAL
PRIMVEC
9.39923322821663 0.00000000000000 0.00000000000000
0.00000000000000 9.39923322821663 0.00000000000000
0.00000000000000 0.00000000000000 13.75672791855844
PRIMCOORD
 96 1
Ni 4.555423062203746 5.6110321673064645 1.8351335875152217 1.3964548299534336 -0.3540961840270353 0.24373466615263184
Ni 7.290280408744666 4.94338582017486 11.26367850058447 -0.12301391653109138 1.0348353409661597 -0.5436034562946703
Ni 1.2525136456768255 1.905619378732907 4.6685249776738065 -1.797990695519671 -1.9838871105075964 0.5496617466736081
Ni 3.834840232542504 5.36751682828341 3.965982096684285 0.8836069096740654 -1.3174052348184344 0.21107060026070748
Ni 3.195814551125165 1.8651744773967867 9.792823482709718 0.31529798021291505 -0.8134828991634699 1.5650204669723948
Ni 2.648252809959229 2.31324533298456 0.6943401699981123 -0.6368383417911162 2.628212247594061 0.7856028849237503
Ni 7.151998886909433 7.89286526225586 0.6821080076465375 -0.7615293889143143 -1.136986555115629 1.013287696702371
Ni 8.524098979181531 5.638825700481205 9.09021198731635 2.008378153670425 -0.16553559194338588 0.04522261928322534
Ni 3.913962979334849 4.376461658197302 0.061891132193342135 0.3300910793616896 -0.723664752658057 0.04951456179035989
Ni 4.72376333246401 7.864911942113257 2.2757893878708164 -0.1967341290333773 1.028479573951461 -0.6725095699404805
Ni 2.7868821034303974 9.008930236611175 3.957920374193932 0.2758641996973249 -0.7290581557594863 0.6352563420159769
Ni 8.999944569477238 2.836049493365151 7.203202150799428 -1.1261282722448862 -0.37102149902746423 -1.6630098364346908
Ni 4.996265907304075 4.2832306620660034 5.979141864482283 -1.0342817824555348 0.0649810328570752 -0.47813699916074426
Ni 7.200950094475902 3.0287901735414198 1.2447235610318392 -1.1213295653046622 0.230216577061539 0.7099977966939257
Ni 1.1064495585833305 1.1471482392213508 8.778347302828271 -0.1321153646117273 -1.3871790610784627 -0.8938872085541509
Ni 0.6768857935674418 4.978726937772771 5.714379558350164 0.26599450599209673 -1.1580076374519863 0.566477018458734
Ni 8.91047326670742 9.404966936076066 1.61217813163942 0.9961914033417165 0.8467707146823222 -0.5826968227517062
Ni 4.268332877121139 0.8562438452235224 2.6215787254828693 -0.04877254141801277 0.6053947785698541 0.37538131865805674
Ni 5.968785789118086 9.010706691724474 12.982816148664632 -0.6821373228382316 1.0952938033625332 -1.0427923910297072
Ni 8.813003216311053 4.109495231832017 2.9144588383421555 -0.3855415470205102 1.2169015835747172 1.0283651598607837
Ni 5.46334201283413 2.8713530140294474 12.747892648895899 0.5399257503327669 0.2292285021166568 -0.7870357607155348
Ni 4.49293695853595 2.628965583014837 8.085132221068582 1.1654399253603154 0.37084100758554195 -0.5808127183551158
Ni 1.6947757750211128 7.7897650710506765 7.715956650824784 -0.1738065737029265 -0.16962544574204333 1.4860048103991248
Ni 0.0070268668926059775 2.5571460405771664 1.2979664585704371 2.179032554897615 0.2704887943180245 -0.4842665090972499
P 3.933823559516867 0.6013601333986928 11.574113561671846 0.31088545296751624 0.7564833418499746 0.09887434317041036
Ni 7.026406330169197 4.788411259814657 13.455882385642864 -2.438681321177342 1.7962258903097645 2.379783261289553
P 1.2087978111162179 2.2752066353997873 10.628846757111862 -0.4114765217187172 -0.48681164411660677 1.3181655100232266
Ni 1.286416680563971 7.860146530777581 5.4979593894599565 0.31043576702460723 0.21879290860562964 -1.2489354720818104
P 6.9073650391113395 5.376624685451595 2.139872713159956 0.23526493811872387 0.20483644642553753 -0.23101798991691183
P 1.5741272150512222 2.8260957051906335 2.734095068711879 0.4889446312992095 0.2896813080860753 0.532068201961561
P 6.589285581496734 1.8681916313193743 8.404604645073615 0.7684119749667605 0.8615234475114646 0.19522797680149603
Ni 1.28280737493695 8.145836230083036 0.7959364838587036 -1.2182182455036115 0.6447935920824508 -0.46525885764649555
Ni 1.7242235732749043 5.546196255287743 3.4441065805639797 -0.7461590771058311 -0.3675857338730379 1.1066192556776813
Ni 6.415437360461901 2.5581423593179586 6.361620169762338 0.6014548200854997 -2.32758781023292 -1.547458803939548
Ni 2.742489524064723 5.74701087695779 6.056207119082559 1.539906959734219 1.4920870120374625 -0.6688362348539514
Ni 2.7561372109668953 4.112540583454815 9.625706052715277 2.477045008557205 2.412308230500452 1.3456824844965727
Ni 4.42589222666736 1.092717278580525 5.680758500465131 -0.14462918080802187 0.6435381224087949 -0.31654059437076454
Ni 5.476717121967594 6.658228958512872 13.358718750255457 -0.48360419292290263 -0.7947868654158634 0.4412915481976206
Ni 3.8128178286776357 8.034962872852994 12.390643765918055 -0.8030856150895459 -1.3553112658355884 -0.46993389452466156
Ni 3.625914072445065 0.4486366894386764 0.12390445442093238 -0.28912877801671494 -1.646832969564512 -0.8355938721298964
Ni 3.5167513756944953 0.3492651741247409 8.14919645602486 0.09837297805395961 0.04661924252043584 -0.3679572582798437
Ni 2.9120140977338527 2.9052184519829782 12.032281073781874 -0.4042126410674522 -0.49470750192491575 0.12117763465330098
Ni 6.3599818833800725 5.651965828779577 9.253862040108167 -1.5288010796290443 0.37982212803822973 0.5945202977491955
Ni 6.257727623181222 5.600787002896432 4.521864039259176 1.7306535037255935 -1.2975146665420945 -0.6549003414991494
Ni 8.938774358485961 6.854080784945764 6.721138027683834 0.36036376220330196 0.20407899943422275 1.9622548769498014
Ni 1.1824047637186286 7.648494592993069 12.38597986630314 0.7678602162283485 -0.5803193236584651 -1.3192872823324957
Ni 8.959311683473045 6.488460004775246 4.295469403880961 -0.36818762912309494 -2.160749183207395 0.6371489310529994
Ni 8.556704919858968 8.828041989756972 12.980848889113238 -0.2523339777858687 -0.15824162938513392 -1.4817447495711902
Ni 5.946960769154696 7.603979823593147 11.001531061185261 -0.7412387569860783 -0.7168626421345589 0.025507914463117363
Ni 6.90464866065767 7.542922403402712 3.164157933021504 -1.6736812001056078 -0.20615490812664494 0.22878447260070275
Ni 0.42261303191385274 4.315780207343016 11.2963239180422 0.46889362618560537 0.7162705170765148 -1.7369128543717443
Ni 5.511926650297854 1.4729162697601825 0.737847341577158 0.013368707997422137 0.6055408172294152 0.2787291799499458
Ni 3.0067489712097433 8.242751725708585 10.040127652717805 0.06083358634760491 2.446803178953528 -0.013797568004724625
Ni 3.679893869882513 8.393393239469683 6.459155074869191 -0.5117330899486348 -1.6557295007231936 -1.6219688593329809
Ni 2.5675885888886776 3.369333798990867 7.021255550263969 -0.5835715120471756 -0.06478820011997874 -0.20666064411846988
Ni 2.5186937767226305 5.383448528902681 12.264178020394615 -0.7374978018864073 1.0638432981627355 -0.623995681500493
P 1.7519607110492224 5.346706925527619 7.867679076427306 -0.6410474947764573 0.194214190825001 0.8947762960273236
Ni 6.411649469400211 0.21273378954927818 4.35178961043593 -0.7035957498223238 0.061527012870203714 1.3070087220754587
P 8.965872348388826 8.607676962607231 8.362275197440054 1.357247563626353 -0.6784215645495414 -0.1582100048162501
Ni 2.9392060799707567 3.2091426640916114 4.65024158885693 2.1999595348582694 1.4622251914810236 -0.7966917957480603
P 3.4429767927088553 6.280868535821132 10.420680055073442 0.739368793656875 -0.7671786167802916 -0.3679940250550501
P 8.168591774153395 4.254074240047727 5.392100523250787 -1.755659281741312 -1.0794049000464185 -0.46578079158823654
P 0.8475580136351634 1.1409541444083124 6.7185936552014525 0.8379531163906924 -0.05114412697398289 -1.3192973096348246
Ni 5.6785750585454515 3.117941902375512 10.346064240698169 -0.6161412184530808 -0.19970838117035283 -0.6851465419782006
Ni 5.653432109190554 2.5643834502980156 3.7674317503411903 -0.26866922461078246 0.2927959424556571 0.10588676993250151
Ni 8.280292263922963 3.2906434169350924 12.568160507750353 0.6351277868579126 -2.3741013804134274 0.5980617352435507
Ni 1.8959287690936923 0.5890508973332075 2.008371798302153 -0.4542661060804176 0.46071597547081944 0.855359741902914
Ni 4.701665734731912 7.277845222951571 4.547148917038469 -0.027163962009301608 1.903759966037702 0.7386306299392699
Ni 7.140447229056287 4.2406521347472435 7.633016875347196 -0.08684466569938593 1.0872596202041467 -0.3408783997851807
Ni 4.654124412175998 4.830679612431095 11.484171357308501 0.875518476238976 0.9438110899677874 0.0004705118785153187
Ni 6.83582747367578 0.3993283110028672 2.1737973662839294 -0.9379880555281073 0.4161405028532898 0.29000912373913923
Ni 8.926545955827747 8.585297387873021 3.760236637170658 0.6292404748392002 2.24502043175265 0.544548593816759
Ni 8.317973790638396 7.251085605451237 11.07179973011132 0.6359880779756789 -0.3457719804320561 0.04418955003302067
Ni 7.108142063847771 1.3401145009993078 11.513253525382888 0.2246866483822453 -0.140922421380396 0.5681893731641504
Ni 5.902117026585644 8.88115705772128 7.103369133125372 0.15927238464249346 1.1800201371673356 0.4630430809420993
Ni 7.902349088760194 3.170229837800294 9.883589999842567 1.0472493983597964 -0.5243924305838581 -0.9571150061655452
Ni 2.78361117020591 6.634890661971485 0.49757003846167797 1.7172963656923972 -0.9330767342694188 0.052221933419193935
Ni 0.7907424674798191 9.181471964202894 10.612696994277625 -1.0459178240325664 -0.07616944537372689 0.61376037692573
Ni 8.081648865169171 2.046391697420119 3.980495452982938 -0.20007424915020383 0.18643608954147892 0.06002754550654177
Ni 8.683340791507014 6.928315930368186 2.022679311389265 1.5577738127123106 -1.0594163727396335 -1.1263663563976214
Ni 7.175252590350187 7.591027679962847 5.560827102003942 -0.5993442015004 0.6140498831416908 -0.6947236441436746
Ni 4.234899803904179 5.278816262652694 7.932376819714993 -0.2591314603236763 -0.8222717010996936 0.22811084357244588
Ni 1.2358864017856805 6.719258181003094 9.97881457337879 -0.4286900573835262 -0.9957610006725174 -0.09176164338502905
Ni 5.42625263782313 0.7507590685038205 9.784019220780472 -1.147711654842617 -1.1850101341827592 0.44715392051566866
Ni 0.8644850930718864 5.35768523014314 1.360230740329906 0.4327642274528998 -0.7680648760399869 -1.6622238501982856
Ni 7.378473415771581 8.893855422049679 9.69860368722435 0.3689417336803001 0.311372934126896 -0.3482397252462583
Ni 8.466359488382604 0.4543815008950177 5.769269201581092 -0.2853955362265278 -0.35367735132206185 0.48349260704570285
Ni 0.8549693091739807 3.4862414640660853 8.877766754232566 -1.8536882461922912 1.2465379183839114 -0.26042883897886115
P 1.4986419715861088 7.561147516972486 2.7764104174953355 -0.12288124760796904 0.41471534037098895 1.3593065030379106
Ni 4.847833213392848 7.340265531985541 8.739167538308289 -0.4656116130002239 1.8077750285999448 0.45379559420190235
P 8.245016940958877 1.4124510012741816 0.018607662369304515 -1.6264955435587405 -0.988214555783827 -1.28538137361367
Ni 8.825250417436074 6.2122071358071045 13.220050919927333 0.40202206117403666 -0.030164182288206113 0.09271912220229192
P 1.1092411309042294 4.072866419257799 13.299000720825052 0.04282275159248109 -0.3300584263515412 1.1451873457588666
P 5.993101605933457 6.61125158996118 7.019136963054776 -0.38316044838284335 -1.1235173169846007 0.6087611239389258
P 4.405815464117056 3.244793956391845 2.028993716389871 0.37678308410158984 -0.34438152784243264 -0.2918952850182586
Ni 1.0232945406607983 0.8306534923586092 13.094383169319869 0.6369486421167353 0.5614939634218459 -0.09345651458894873
