# total energy = -340862.7708004462 ev
CRYSTAL
PRIMVEC
9.35143843920082 0.00000000000000 0.00000000000000
0.00000000000000 9.35143843920082 0.00000000000000
0.00000000000000 0.00000000000000 13.68677541365526
PRIMCOORD
 96 1
Ni 4.9571602212419705 6.990948504037141 7.61909960028608 0.45358322108078014 -1.5852900158547085 1.1575605226122387
Ni 9.08154677661538 -0.20440374595527414 10.53658667839206 -0.06174658508017753 -0.019884140518436726 0.4183866185749891
Ni 4.332540228226298 9.018097265392646 0.6146111482313409 0.19961633567717882 1.4904111669969364 -0.1896132017178799
Ni 3.2767628049327464 4.502502625643129 7.737558949352254 1.217435344591 1.8722971195427305 -1.8931446524157007
Ni 0.10263484458701255 8.26550283448705 5.5155785746409745 0.9399642054178715 0.09309758858763321 0.3257518285563874
Ni 3.070806720162001 6.915286013940878 13.647755142900182 1.3499001221223461 -2.47235197395691 -0.37405411520620097
Ni 1.1706037384452037 2.5682884615656714 0.14496319648068776 -2.1983237990270594 0.829234762681088 1.0806521421899582
Ni 4.340937820131679 2.4550331881067855 4.004161654690602 0.6069294700468256 0.09639657105387914 -0.20143513405347244
Ni 7.716788468972473 4.797054240159518 12.142455934112952 0.23501245578828556 0.2154198783683387 -0.6653331067966993
Ni 2.803598712250664 7.807768615573207 1.8027535098597782 0.06780873211385742 0.9473502134692974 5.396016627792868
Ni 6.810568603967086 6.813589118650202 10.3425078558474 -0.9242259687470082 -0.656371012507405 0.08494307780129888
Ni 3.8026409572703272 2.2797872278541624 6.325781608190127 0.3860719656026835 -0.10858051471458076 1.2557681787329276
Ni 0.7140290979236416 4.8961794898221545 8.524849087927501 1.2151110673331977 -0.37579578048765605 -0.4541342084882437
Ni 1.668745523754541 0.8110007112657774 2.0620773198474764 0.43865693878825096 -0.7579355009154689 0.4559807747786792
Ni 4.961153285544419 8.020569953433863 5.735566493102171 -0.6998619938115043 -1.0107554171988204 -1.2663536675582578
Ni 3.6943793520491632 5.918749954478724 11.707517717189923 0.5675802788252419 -1.643507761846021 0.22181806858519865
Ni 6.737992088624471 2.734482229207593 6.561002085064104 -2.8625022233940247 -1.1108343222002934 -2.341249623990729
Ni 7.9245774357181125 0.42228665557693734 6.492527110712246 -0.3093798149562672 1.3392752954186482 0.7459747290091668
Ni 4.0025653641134875 3.222243917618296 11.418644296220245 1.4756646048153812 -0.36940093270490576 -1.4114531031344788
Ni 9.052042987682773 1.9780256541406138 8.857889353628936 0.10744511555855689 -1.5382557972840412 0.6999450404436138
Ni 5.090446276283627 2.585523162992864 0.4394203614667376 0.13144764912074136 -0.5409428787433715 0.11893897513076934
Ni 2.7170511475688053 0.6223466582804855 4.786525455386389 -0.6534368695797457 -0.552850685924551 -0.3417479468743276
Ni 2.9813882638153846 8.64735012877709 6.914230236517585 0.8785449217701257 -3.0986503354486503 -1.013551748997035
Ni 2.8127537706864865 6.618181456673744 5.990181853730894 0.02627153210201927 -1.7211455642351583 -0.4842533964711273
P 6.763858167923231 2.5307517868349336 4.297620086029108 -0.7979104986465096 -1.0711272334186586 0.4489341523445429
P 2.316173675631268 5.997554527960519 10.117429014186548 -0.8714777305106992 -0.6536063052780744 -1.462274042441088
P 4.0926384211654225 4.352440089668004 5.7061262939523685 -1.241648965722726 0.20437390496682223 -0.163860261123492
P 9.576247232502467 0.8855980725000998 12.601401164331634 -0.15214322979687994 -1.2427162306449757 0.8386424291482331
P 9.37967999213373 2.1723953064272084 2.1078862772057207 -0.29420439276740945 0.6505898870492538 -0.2969775846371724
P -0.2794799008483443 6.490309884608943 13.188905297355705 1.8021566539719027 -1.9283435689143371 -0.7532494082937092
P 1.6555319409457387 3.092576869333191 11.328571239168312 1.14472686118268 -0.1658523518528563 2.291313915502551
P 5.08692078391355 1.4558039143141739 12.270180688590989 -1.2276662782903889 0.15613203924129884 -2.1593222209528813
Ni 4.813129363194431 4.15607858094951 2.238567956584071 0.9189253824697013 -0.4301357886911173 1.337473209212903
Ni 7.6204780023427094 6.668398682210382 1.129346126276658 -0.24899180078651312 -0.27415030233001175 -0.8915487902289614
Ni 5.534798586493014 0.6785693777164953 5.358660498993426 0.9588551287851035 2.586445705180236 -0.5767156654676068
Ni 0.9311704384605645 6.721468096534482 1.278365041698731 -0.8675850803245123 -0.8427585081991358 -0.6251817313887942
Ni 7.098377831218685 8.522611288659174 2.5233763071737143 -0.9250214680651101 -0.8164869760971164 1.257822233048479
Ni 1.9896401409407078 3.158626080499908 4.941774299235374 2.4151531561484147 -0.31589756147012693 -0.8724017849868654
Ni 0.5221740474893383 8.208786359090457 3.218513628741841 0.5634860541512102 -0.575308757817751 -0.7827841845280326
Ni 5.819811733589035 4.861345380860521 4.603903080328683 0.8295762051809068 -2.61196313272505 1.4086328600768643
Ni 6.552927117792058 1.4730292643027187 2.2166827847175177 -0.4502937516962309 0.540499877668682 0.5498257830552982
Ni 0.5246362812852036 9.182776099973685 7.99315901647055 -0.24014000682283804 1.111299691872486 -0.1053085288315283
Ni 1.2137512763643927 7.00805228532327 7.793154187255022 -0.14530152428469817 0.10107160793204528 -0.3728688366488481
Ni 2.4344039144505802 3.737349212634051 9.568329369399697 0.7162476342583793 -0.6331716915728064 0.6562519704310376
Ni 6.84337345074223 2.8588937689728495 10.65987698066349 -1.8894142388389912 0.29399921873513885 -0.6625938534886653
Ni 7.981976566135967 4.147606177534949 3.566760268827842 -0.3546836810993892 -0.612954593194983 -1.235434609381898
Ni 1.8978838249322372 8.933317122615149 13.784773357106022 -1.688735523335569 0.30470914895347523 -1.0295429822189688
Ni 6.220614394017393 4.708944985223541 8.930196547538506 -0.27626812000396295 0.08646234265930271 1.0384348853919598
Ni 5.775495265838918 5.42410560722352 13.54823806795822 -0.1778591465057453 -1.0154597646530252 -0.9850338440630003
Ni 7.92480187024565 2.287913628038769 13.828981348167831 0.9950390349048281 0.7733430937197906 0.4955343687015853
Ni 8.394552687821426 5.8644180959372205 5.151470024321221 0.07455479258843935 0.09623741976819555 -0.1001167002179437
Ni 7.810761075940381 7.208079557991552 7.020795490768108 0.49204846703551386 1.4550014200390748 0.47652903124367607
Ni 6.537254106618985 0.5382921871420289 13.370528938765867 0.9771135607746592 -0.14261780680494793 0.6070402845930771
Ni 2.0004036468238864 7.331948714315258 11.804611834378338 -2.3916679285422813 1.6391723676954608 0.04136467898971586
Ni 9.334699572239646 3.3439341887371534 5.691837295699112 -2.5801943249538852 0.6398370194081239 -0.08383338967688787
Ni 0.05520902348662949 6.041917752903872 10.507761803905257 0.23266221038855414 0.9270850354623582 1.6321357725636538
P 2.472052806445087 0.9331707111872473 7.682824978948913 -0.9551445127027358 3.973498267983163 2.885044884581231
P 8.768685045227347 6.14176306334236 2.78243921202315 0.4605079732250714 0.47772382288272563 1.8268747255438729
P 3.213724757010498 5.174749495690105 1.6346529838776473 -2.3867041567791025 1.3784743342156132 -1.7053677325756114
P 6.752440061334732 4.066445041514004 1.4952669854062801 1.384794620006686 -0.5392390086783875 -1.489906716556692
P 6.187921764506018 7.898664599226116 0.12335856777355675 0.5870167902832987 -0.8716047430068666 1.2785391538808561
P 4.746481659954279 7.848746619726195 9.537821235956361 0.298422287503499 1.092011018846203 1.0686078094309144
P 2.762181190481247 7.7224554407928085 4.071911892547284 -0.18512019894353277 0.5261546646906035 0.30007370706399294
P 8.636465054191495 7.463102641345302 9.151991163946384 0.4244803901775528 0.6479323948217486 -1.074349082790066
Ni 6.753777317061314 0.12777431710286777 10.948435258150749 -1.0745781680817366 1.2315195905982081 0.198323070787052
Ni 2.376574617854944 3.1036863784463242 2.3955552328776095 0.5403479254718501 0.5778389804387726 -0.08581031089760059
Ni 8.662433999315375 9.112565498608866 0.9745573732091274 1.1449356347593767 0.9637371394677531 -0.9567532519507523
Ni 2.5662591993791817 1.4187722172703965 12.576175658580224 1.8731347849526772 -0.5348331663012079 -1.5657316341068068
Ni 4.730818000219853 2.855873254289733 8.947113300051685 -0.07748764996451817 -0.0787865712815998 0.09147907914760375
Ni 3.914914329671234 0.3000540010165298 10.64394586978375 0.7436167702999517 0.1893568627326997 -0.06708136702952962
Ni 4.760312437713811 0.7028531935961116 8.004368585977211 0.3879416718215706 -1.1784903307863703 -0.13050431137086557
Ni 6.788237368477049 8.578832137807455 8.828366861819035 -0.43833812199625155 0.6107102772454966 -1.5810404965497353
Ni 1.6816318062106839 1.0258808739377545 10.170287085997217 0.2881335039829812 1.8815325220980692 -0.4962244527900745
Ni 3.1730740532101698 5.440657653629451 3.8743290859414374 0.956096849313676 -0.4430861782041982 -0.49987361950688747
Ni 5.031831458841608 6.746922712532755 1.5194376488782628 -0.7135184082526743 0.3598585404321093 1.7344983313929805
Ni 3.0246854247529327 3.8499966425808543 13.294471817958682 0.8688976284883487 0.7687256495524374 2.333559968655955
Ni 1.232398045027345 4.981034444108831 12.50263688020079 -0.7974600413726524 0.4586804330980294 0.05766213059815875
Ni 0.8875048308403083 4.818160437186742 3.6290623585285386 0.2534989446282473 0.2970716870128755 -0.16894924561062516
Ni 1.5666371651633784 2.895130593731596 7.411142307644787 -0.30763840678512827 -0.898662261345291 0.07447046040474917
Ni 1.9966256656103294 8.171324495868898 9.697887940996493 0.9263314451257854 -0.14903785139867884 -0.8464151311151166
Ni 7.8207764667317665 7.729899185956153 12.233705402146734 -0.6974834662769988 1.284067539898253 0.38441720360807985
Ni 9.015983840258329 2.474970455303082 11.164535783566212 0.016488227463010312 -0.6120711621487652 0.9961561792284069
Ni 4.65591297665403 8.78869712393282 3.270564671397237 -0.7487633474978975 1.1251286273357783 -0.21797529780034072
Ni 8.117104854591165 3.5998643616397037 7.803953228605061 0.8124994522042782 2.657287824803779 0.44182196677979396
Ni 5.704807741103082 6.832563187665814 3.8768754826851293 1.0626397647729378 1.2963085620491352 -0.5503610867334779
Ni 8.84463742992168 4.5823826145693785 0.7094553092811892 -0.08210895078661343 -0.5258312199129138 0.7749441196583233
Ni 8.414779849615792 0.6577325021223174 3.9691517386823967 -0.3636002668627286 1.051547254404202 -0.2607674532652025
Ni 5.017018780024097 8.005832086125531 12.125881444254267 -0.719901943181515 -0.5413164600327065 -1.4289875124738165
P 8.568844801332013 4.236482250440015 9.784812368655842 -2.4221694395652476 -1.2545250503544458 1.8534943850139303
P 6.836387926072608 5.399240131860035 7.0132685178008005 -0.638577693079726 -1.1964034636213654 -1.3427290582952038
P 5.5221367385644085 5.1299374016916754 11.242290190487905 2.322233745009859 -1.5462637551901823 -0.5293011807393853
P 3.9629713728803178 1.3107350465767704 2.150616740961235 -0.25151173899488943 0.5940387301270866 -0.14602888936902592
P 6.9619216384755545 1.3026741064626957 8.27735110725333 -0.35812973066646064 1.265794195510362 0.7206262229420493
P 0.582939695820264 1.2323512878341083 5.597275548096417 0.5228870496829253 -0.33571999551269277 -0.11301618188843117
P 0.9383140024433274 5.372261231362232 6.430773015316288 -0.38896111422502044 -0.5136989554257541 -1.7376528178615622
P 7.127535616921337 8.381591593856102 5.055361548766243 -0.15461200305234662 -1.044067401087389 -1.2720656303413707
