# total energy = -340862.21717531746 ev
CRYSTAL
PRIMVEC
9.28122102697146 0.00000000000000 0.00000000000000

0.00000000000000 9.28122102697146 0.00000000000000

0.00000000000000 0.00000000000000 13.58400513317040

PRIMCOORD
 96 1
Ni 2.6603877685961903 3.553844514446108 8.635691721510575 -0.5370875095530233 -0.9985421629620803 0.3482757206905163
Ni 2.821500485068519 6.663758944118442 1.0043970374875149 -0.8922345034420763 3.267934595801191 -0.8546652869390506
Ni 0.9292544154987328 7.192723576292382 12.728294412598714 0.10437496127366541 1.802698899628618 -0.05640871780703189
Ni 6.891585077608059 3.8336733295645318 6.25929261131427 -0.1786577311476407 1.274050007761251 -0.17651445955239278
Ni 2.937200186868395 1.7070671468751664 4.07741582905901 0.16073842766505864 0.12168594174828722 -0.7478441781177378
Ni 9.15778082511935 8.084008516413023 3.770335492648689 -0.9317029938503438 -1.0760624659367468 -0.8852076785022819
Ni 2.883898134290448 4.926323641917654 6.801090387855184 -0.9730933838716725 0.9072196639969988 -0.4727749635178826
Ni 4.937962293133524 6.858404712299655 11.852004213231153 -1.5750428842054036 0.4183141134658408 0.4000991331197109
Ni 6.845392440366122 0.43675106027977484 9.853579118430263 2.1517567499007977 1.0408332104208076 1.4068940230088867
Ni 4.912633840846355 1.0285541996762455 0.7982898894127779 0.12309259228782671 -1.6458736909750362 0.3544597380140412
Ni 7.8988481561605335 0.6356587651741681 2.524655479248997 0.7577794349535788 0.8411492547304869 -3.208946033082125
Ni 4.304379737111661 1.3348252136096737 8.94173905801633 -0.6142404018859421 0.9354832868283826 0.6694499571785503
Ni 0.8216238072930176 2.2009116385380585 12.206545929803035 -1.447373728290488 -2.0818078315154858 2.822638811540184
Ni 4.849103882654461 5.167496171299153 2.5073357926190636 0.44093776440262766 0.8212594577850952 -2.038647494077928
Ni 4.742935994888634 4.232236805771181 7.986688416688736 2.030818999172445 -0.1366947564522936 0.22579659361697238
Ni 5.056882578643055 3.2063277540985418 0.1987842646542249 0.554905768681367 2.266409181841071 -1.0471645519554742
Ni 7.297935498288483 5.369585478774728 8.25254156912705 0.2464800901082529 -0.43848184666296747 -0.43115034599856067
Ni 0.48938857742944736 1.0847334307844319 4.368181635080768 -0.9511883562684652 -0.25423993655932986 -1.3134765891879896
Ni 1.6252810268478513 5.5489357946403475 11.372868600712529 -0.8261453251224868 -0.7391111691201142 -2.6696278344263695
Ni 1.7338713133117174 0.6197776678093544 10.315137026373339 1.3484248231284004 1.2106679439601795 0.7917581058918687
Ni 6.507286838178756 4.254381799232957 3.8314634708288864 1.2119606946296742 2.4929861052674935 0.3982391970928368
Ni 0.3512784392453276 0.28830164182892454 8.608726989949595 -1.2911306173926216 0.7053695538932948 -0.5167094601173037
Ni 0.23958079996880344 4.842263622729344 9.353104122438328 1.0117787162570122 0.5613594947265107 -0.46300605705657677
Ni 4.943076245940498 7.910477526155339 1.145039092778245 -0.16479537134325167 0.038860424510623395 -2.4877122584630644
P 2.159146143744264 4.476852668167902 4.85211192640172 0.6010059054735392 -0.08890154822841465 -0.5654935714995422
P 2.6715809212009267 6.054901561014505 9.325487849158566 -0.5395989631209674 -1.2422135799769445 -0.6545216180034922
P 8.721043686671173 1.7658822447658944 10.238577161927886 0.430903005874445 0.04554889227439252 0.47598884246948997
P 4.638819256978238 5.710698196587246 0.36959400089556627 0.7336172358850785 -1.0377198616028063 -1.0883590239159127
P 8.541340684405073 7.722430706151546 8.335648406911956 -0.2959997941049354 -1.7622217654501782 0.1760560318587355
P 5.31466849373142 3.1393080567860996 9.858211375863947 0.026780096307321623 0.6159365586414425 -0.20391213483905524
P 7.916770194037604 8.232136804615013 12.857899239798604 -0.09598982253376372 -0.10617216238340424 1.3612901091268426
P 3.8631783313310812 3.4170207535016375 2.9362098805807286 -0.00877671775136553 -1.2793361958608547 0.48751869748596044
Ni 4.278865660403185 4.9899000062148735 4.762579699273316 -0.08453710061213182 -0.5852617552654049 -0.06481596803412064
Ni 0.7953987890509409 7.478538778997916 10.061686369644569 -4.663602411076955 -0.9198376098713255 -2.302171427042345
Ni 5.0225606231436215 7.322038829395035 3.223633518896877 2.150913942284528 0.9006479243167521 2.070948520203478
Ni 1.1846179318890577 3.2721037677882356 3.110846264267288 -0.11427396555493224 -0.6488039987934245 0.10676480166208065
Ni 7.699747401867983 3.6534227352555795 13.119894188640076 0.6696749287051628 -0.06399192947092851 0.1901042824216855
Ni 7.301295300314117 7.186161752999223 10.83654488835592 0.7866572943301936 1.1673008898284543 0.3779287676702588
Ni 6.356968181805358 7.607779782332047 8.443640982739216 1.1045214926083882 0.5356844585579097 -1.341827886637173
Ni 4.084962389907195 7.088625400824116 5.411270226945255 0.10453436966966513 1.901969964016815 1.9931266268279935
Ni 6.645010877566561 6.725033565591471 13.54291368235376 -0.10514449244983828 -0.6154462492685853 -1.2158669716626156
Ni 3.9918067740749033 4.5566618881083105 10.880910053170103 -2.0515081520906797 -0.09008348435165775 -2.4233585747773425
Ni 5.9939981883840865 2.3700711736739914 2.4811052056443477 0.5362691274167861 0.38206078756076134 -0.21497584885238463
Ni 4.890275379300077 0.5031507720250559 5.010460695240806 -0.8053954941696453 -1.0930916535048916 0.21087725330297877
Ni 7.143663041741271 0.6899344178418639 4.439429856710556 0.3092579446664222 0.5976758126590417 3.8924128733650583
Ni 7.681166397295276 3.7871744120274404 10.394752268793484 0.6196939688013456 -0.16222041152722386 0.0935786419891098
Ni 3.9780334420140164 2.0421841958795084 6.564864749301482 -1.2874233437443634 0.40107049589404475 1.5381110441760606
Ni 0.19611405735374163 4.204077581059098 5.319210723320773 -1.1605448020515432 -0.8418730202703888 0.49010445593526564
Ni 2.5873352775913108 4.61309171218526 1.5993808513430594 -1.544901841845649 -0.9916665188881694 0.874126738097772
Ni 2.680351675107624 8.43652785491478 8.353117521201039 0.34387810584345296 2.1024864429107595 1.3167179789434227
Ni 7.202561670621587 7.746645411910881 1.964994136523724 0.5797896764072402 -0.2422228574937958 1.0507227016203775
Ni 2.6647220988336793 7.702420393534785 10.761262119929054 5.0118740180024135 1.1038625188681506 2.0103273069769956
Ni 1.5238279993831918 3.1506033028225544 10.609475174383125 1.2687939015686343 1.9550902408805622 -2.5588310287867606
Ni 5.6608023521402595 6.035420277998466 9.79592881378323 -1.858048065822884 -1.6194872305617076 -0.36562295371971226
Ni 3.303465013767843 9.028530540564153 2.3765763815186514 0.49795480521761987 0.7514668624719897 0.010042986058298833
Ni 4.235652295123206 6.709849487928659 7.862272720186448 -0.7050605072933084 -0.37135445688685076 0.5787782044235903
P 8.672901993005526 5.690353760012135 11.476066497737463 0.41172874693883926 -0.9230946833560424 0.3290628952074914
P 3.1725162657576984 8.21942153175557 12.84496771448834 0.7347595770196379 -0.7697463775074679 0.35522824074894954
P 8.96261530855848 4.078298473182319 7.346678615079162 -0.7715075831729488 0.012871970866661702 0.9885629402621813
P 5.611890317126194 5.815659525614584 6.483332934731355 0.9424283506876479 -0.9366978759617739 0.09971740789699601
P 6.928552181111098 1.7614643835388175 0.39885583467020524 -0.05315113010168266 0.1722903941687162 -0.20699051665406287
P 5.131605689439687 8.724171458170174 9.697132071787452 -3.2798161777301256 -1.4007267178559102 0.6671015115510317
P 1.0659853642325507 6.353246412158177 2.458379207743884 0.241719435494816 0.8355702179808125 -0.3622131567072149
P 2.050750762922769 1.3584366399997654 7.942703781938231 1.9711274968490828 0.7883331393707198 0.21588216271673788
Ni 9.22090240958437 1.7098329507526222 0.8618551162447201 -0.3741538740088589 0.043578141701266886 0.3106663949781746
Ni 2.5276663073625762 8.96694963879597 5.386493079189362 0.39848756565821697 0.19390977221070474 0.30656471410497527
Ni 2.85283388738493 7.157362124033636 3.535563293313811 -1.7246571769328427 -1.2912799984862922 -0.7003057662171422
Ni 2.030397045126593 0.5342057377095085 0.14932092510888076 0.2745897038602755 -0.38027027131924185 -1.1235409711336843
Ni 5.0664051114560404 2.881782015887562 4.7568058516486005 -0.22475375417475488 -1.632180766868976 -0.014630862539297382
Ni 1.2541249964469972 7.0124358570991685 7.583379452151406 -1.2992002817746335 -1.3733041028685833 -0.4600549448480528
Ni 6.455200625560362 7.770563118596127 5.841298898807441 -0.6603868185350176 0.6964131160309556 -0.34995670793736505
Ni 6.893812570663727 2.549003834591673 8.408757513365332 0.1042695460440527 0.1303418176510723 0.24238278011042774
Ni 5.573614561452947 9.064161148233794 12.454182829656508 0.7092282655177528 0.14879436792930506 -0.6153539466650951
Ni 3.0705342086923175 2.3677787120708653 1.1789907275571738 -1.2999764978190256 0.029407763738155804 0.750909704416939
Ni 8.805818359881512 5.059007978267006 3.2957105535677944 0.1200293799814707 2.4710378831311766 -0.2543342960453491
Ni 8.229009033116013 6.262763787992688 6.098770180501694 0.5245580096274449 -0.34965357487464943 -0.13996160012902348
Ni 1.5489151399226644 2.1797782981723985 5.966950853955625 1.243580121307168 1.5130034504751555 1.418175509459977
Ni 7.4414695820631565 0.2106048278029753 7.6304890740345925 -0.6555480023854774 0.3494815680731594 -1.883335893855395
Ni 0.3073021575937815 8.556654699162797 1.1189922739806217 -0.9402691382528001 -1.1614117780375288 0.7088330869618631
Ni 9.106390704080852 9.10393118049855 11.494133322663151 0.1573170606883355 1.5472718847397224 -0.7436003152397194
Ni 8.519251378269688 1.9891977048177811 6.545874442879796 0.48947299299885383 0.20621275794777388 -0.20483284688111175
Ni 2.9050500370982384 4.739000757156952 12.834860464748242 1.0049249265599725 -1.3640692145338764 2.137131286678139
Ni 0.03815788416571722 5.55708470673567 0.5549279199819763 0.09877972657407504 0.6135811710353883 0.21204067748346064
Ni 4.554350864063054 9.086222610705983 7.207564248775777 1.2860213211905143 -0.951156217478949 -0.35455049795563454
Ni 7.254675726903177 5.256549487420589 1.6012686517077392 -1.4782652756630217 -0.6658568405106532 0.13573084987712755
Ni 6.01959579608215 4.770640439768518 11.648202520469033 1.370284342205653 -0.4325156017772035 2.2364396320621744
Ni 6.274476688977081 2.2003362028320104 11.505910264072893 -0.19958933909398532 -0.5113211992221968 1.1298918530523767
Ni 1.3028142821554964 6.703686757141309 5.188369637474986 0.23650755227657333 -1.4788969957097498 0.26783721562779034
P 7.1309292064396965 6.708438742326736 3.9426896240752938 0.5406127490974624 -0.44374952281980995 -0.1413746784264662
P 8.154638608719862 3.064018791504486 3.448177812617808 0.7509572698254228 -2.397731104017226 0.19136283741913496
P 5.5035506236310905 0.28933928234402373 3.0611007756015596 0.10308478170733214 -0.8191208141755377 -2.233987570977256
P 6.2008023561608265 1.7879808321223445 6.445108225773968 -0.14011869453217804 -1.0570535289344116 -0.3721399289026236
P 0.7315458443659747 3.6085109065206527 0.30773373437331736 1.2999207048804258 -0.029856678350116322 -0.2799630523570469
P 3.594106451427326 1.7493338276064865 12.504823956155038 0.15240882475344075 0.1788698471584468 0.7194949375510834
P 1.5884624228818551 0.9784541683658227 2.3280272422482384 -1.3977120993993024 0.3268401765245597 0.10114308459992903
P 0.479425186615861 8.653949739590209 5.796186595697504 -0.8833618835427949 0.07752081719529876 0.5634418311768361
