# total energy = -340854.6776350115 ev
CRYSTAL
PRIMVEC
9.42917329210573 0.00000000000000 0.00000000000000

0.00000000000000 9.42917329210573 0.00000000000000

0.00000000000000 0.00000000000000 13.80054822843365

PRIMCOORD
 96 1
Ni 5.387131802974919 2.3363511042895344 13.44577750009365 -1.0062521300118283 1.1934222695058543 -1.852927713877183
Ni 4.9825825563541875 4.606697996236511 10.956034492154648 -0.9385788950345707 -0.33566111725029935 -1.1953747652465347
Ni 8.594106755582372 2.245755608262777 1.9819518582066789 0.1613971442949801 0.17301184571577302 1.2651622183533178
Ni 1.4184493815879604 7.872275260230963 11.228318840579446 -2.5555852681559537 -1.320013618975559 -2.0972565619703882
Ni 0.2429351039480199 8.095463789680728 8.752293393799867 0.5328032803553727 1.3147030053959228 0.9111786486447468
Ni 4.268020953533652 5.644284214261526 1.43939723275085 -0.4191846889962523 -0.23886448254452405 0.10649509294046175
Ni -0.12989157530355874 0.8248225824560983 6.267753403628097 -0.777870292166183 2.66373306620849 -0.10209156455612739
Ni 8.293061543087964 7.154281438368615 11.455613774954237 0.17582977478054235 -0.4769275522336755 0.7462418666276245
Ni 9.258043127536165 9.292346459607911 3.9480881642187615 -0.5974852939147903 3.072482418804031 1.7990417624920048
Ni 6.663681557199571 2.8288745367897037 4.244206633720458 0.6175846357678266 0.938893598061512 -1.87128898999319
Ni -0.04872053788199978 4.7294092561545185 2.3176775697005056 2.106798440022552 -2.238725085662241 -3.3301684049304323
Ni 3.069846486879192 2.298775849120235 12.172138531633303 1.2253540852174445 1.4705810196448865 -1.0170016552188483
Ni 2.5822167952655635 5.041316876165872 11.597594493206996 1.405291197298141 0.2698611880363546 -0.8737212751292373
Ni 8.613672289955344 -0.09052949181441454 1.9327664620863236 -2.892803188370411 0.8231656736688726 0.9278849056558343
Ni 4.828717308210493 2.5373150725262406 7.412743561811562 -0.17092565261070564 0.5354204062632456 -0.527515292483556
Ni 6.87259431843696 2.5788694387824767 8.924262654471805 -1.3679374392400312 0.24317699387694894 0.17155608710585293
Ni 9.175801878957339 3.2445407786035605 7.733054460971443 -0.6711659114283925 0.8425623330279296 -1.804234362436538
Ni 1.8407537613288398 2.2688570825826724 2.9684423296226816 -0.3972025282982063 1.0155003880829736 1.1135972296574113
Ni 8.829440060103167 5.785071199188202 13.72784650153957 0.6391749603440927 1.414160988983945 -0.6520294477092576
Ni 1.7506108656152888 1.8552841172173944 7.71803944558083 0.27464266858539793 -0.48037977244833396 -0.2065796543688894
Ni 0.7821291720782934 5.546673413380074 6.493475551914496 -1.514136535638334 1.3087706990718881 -3.0554185213432086
Ni 1.9272381378439747 0.06913469784223386 12.783861799954856 -0.2806521080042715 0.6128417217662026 2.26376403090874
Ni 1.7614355564394684 3.305868121042989 9.907979063134784 -0.24355905980671597 -0.40423115301021356 0.5960765864927219
Ni 6.3136046441078335 5.454984133263069 3.6181312208836744 -1.3189520104802641 0.22187694684759204 0.5930781659860302
P 6.2961229570102475 3.7023742829311197 2.1275750660634265 1.162321691446308 1.86444651315006 -0.45398379895330854
P 6.760622886784406 0.8001841529059405 13.93717320348008 0.11729758287260444 -0.6488901307493277 -0.7395469711059521
P 6.800083976592064 6.393545174427864 13.682152728252138 0.05164909163485944 0.5561265284623454 -0.49660523316826094
P 5.03441472138948 2.432868121080738 10.662207311738557 0.0932495407844652 -0.37831983246109036 0.2528340573507387
P 2.2143847490536785 5.492606534298328 4.406266776285141 -0.3982865053910044 0.5146147823718041 1.4234886941427742
P 5.009691429280596 4.211493060248847 5.3060069685019995 0.38514688268525277 -0.38597014991749656 0.6350763647946869
P 8.966229075596525 2.14417512546758 4.307716829753786 -0.17683276212375995 -1.2994962157484975 -0.5155938584556218
P 1.620808867457052 9.120075465393835 7.0552270310714995 1.0538280800185784 0.016505710964507057 0.9619628211761498
Ni 7.2680161254080335 8.83076957352321 9.984586380731512 0.23923112185532347 0.429705386021918 0.20008761888664248
Ni 6.339270853535897 8.700628125130068 12.274028291309191 0.5111489353103906 -0.6996048834953758 -0.690051949699618
Ni 1.6297005777769138 2.80982760694228 13.709368150835612 -1.9449881194495537 -0.18326797622614244 1.181764887772584
Ni 5.669309239912548 9.014817605053839 8.067469517391611 0.9975150072491465 1.7763183527525601 0.030452660062902395
Ni 4.108394480569771 3.5640483122075013 2.8804087399521348 0.7620721487916617 0.9179378217454514 0.4725276233937669
Ni 4.548604860201867 1.9129623696315985 4.700010979977143 -0.8223028114479451 0.5480422087923142 0.22103079679721288
Ni 4.724157206686688 6.3481154179898 12.847592638640874 0.24185776084489316 0.3118832981044113 -0.2534953450838215
Ni 4.623067040897465 9.117142992531187 13.73081386234303 -1.5714963045047257 0.7935619918698269 -1.0282484317772613
Ni 2.2499421611599337 7.521972046982624 5.720948106897407 -0.0047012621304112585 -0.7505500070846751 -1.6950408967283066
Ni 4.6311855590155995 8.799162984984317 4.5841415281271 -3.306172299126151 2.441928624470046 1.195952749237192
Ni 1.9197796618492655 8.786575038773272 3.5228654553750216 2.453817148377516 0.07459387335649088 -0.1450590692565889
Ni 8.997166192838801 0.19775993518613466 11.503515860603189 0.5851915641491019 0.6265626708967209 -0.5549844444381022
Ni 7.759511778030299 5.980943413901341 6.180865458500354 0.31234301134964915 -0.7862006664087492 -0.6107524433373417
Ni 7.330088372529614 8.272213641160906 5.54820659694106 -1.79214246426901 0.474047402472403 -0.4240312184552762
Ni 8.388192471419973 7.116178149500574 2.1697357281558953 -0.0005779839906570691 0.48251661628567866 -2.0940398548053034
Ni 8.359056326257331 3.94198843208099 10.75548446462106 0.8530107820547631 0.36570034392486694 -0.024610085239196326
Ni 6.200520570018647 4.7954606143630345 7.629715437375976 -0.2004840829941128 -1.1229655582461886 -0.9502542744899698
Ni 2.2010707565068652 3.356351914311854 5.56000626427327 0.22656098258682272 0.5989040286391879 -0.25657064157503556
Ni 3.927986109891176 6.842666122726205 3.7160739286614772 -0.8177378177850819 -1.5736025522144512 -0.39964147675700207
Ni 7.926276135100368 3.7850209859571944 0.36405943401784857 -0.7174848490995901 -1.4973973685067823 0.4310063642215287
Ni 1.6549047577185794 5.225760932970556 -0.06249938866716841 0.054540554250041555 0.26138271825169823 1.5206231718039425
Ni 3.3126194090483136 8.400148663027169 9.724666507113115 0.16188128302025023 -1.5016543440109233 -1.6946788854031976
Ni 3.851600377864452 0.4183535561735177 11.268189156503626 2.5014656034934144 -0.5236825490010271 1.4943349275313749
Ni 7.027496775631752 1.9396657881107593 11.470574101140338 -0.9361453458924136 -0.6983041624060812 -0.20472743165149904
P 0.43519971699797694 7.898158340642437 0.6222386822650419 3.188355610525283 -1.3849897667366275 1.1607268361553622
P 2.9892270560893532 1.2159578872941834 0.7049872203615879 -0.42846097209185563 -0.3631508380301358 -3.525467087068863
P 0.5325823318881875 5.38009763977384 11.610373851633833 -1.6459271699207911 -0.6816166744480713 4.897065777210567
P 5.447770815771346 7.6295777714473765 10.497304273456548 0.06049471495094742 0.16254462763586197 -0.7572233053397927
P 3.650400680297951 4.367376151455586 13.399628297741051 0.717020764978978 -0.7922044494006679 -0.10622307022599771
P 3.114738780445324 7.627163903110278 12.254058245406291 1.8209187650707543 0.6484646131761348 0.6021901555896274
P 6.059167834700464 7.86300638298343 3.5705883867333292 1.292215365816368 -2.826355084049507 -2.223416737439945
P 8.082187513826682 0.15401234324548707 8.030649538994975 -0.4085902013098576 1.0881011422688358 0.43267166773909355
Ni 2.4859637953237304 0.8404882107969449 5.354736935557192 -0.5417517477979121 -0.20773793634304868 0.24249359465667916
Ni 8.977364929136034 1.936921898711947 9.400505676539025 1.015834888604257 -2.5779582365345153 1.7061470339437972
Ni 1.9277567423695232 6.615687065653339 8.14640866951867 1.4960719648271397 1.2043803111792548 0.21979023952189244
Ni 8.882394296748283 4.175954506488975 4.881157654916655 0.16982650600925592 -0.5550276389712119 0.7255853667195376
Ni 5.812613814081433 1.7321391153325643 1.7843559906340813 1.143834688385714 -1.1482559573818611 2.194188436702447
Ni 0.4523155521757215 5.89841929012676 9.764273749105246 0.9138176289294907 1.1856223138454614 -1.3213549634948016
Ni 7.498549980774206 7.50781885802174 7.951848052796513 -0.2895959474611206 -1.4970297007547186 -0.00975347984233804
Ni 1.8098732191257143 4.277619851842899 7.795350179497669 2.6362544011722466 -1.2934744350344498 1.9314836572052154
Ni 3.6613196628540488 5.597194923341707 6.685013175711366 0.2981016709392866 -0.9211486153732653 -0.3594471639263035
Ni 2.030327288349859 7.134687616476067 1.7509031699842343 0.5739918387785405 -0.5247408150622124 0.45415811974764364
Ni 9.280003671899854 8.062612550280518 6.303745500618494 2.1673474052502026 -2.084267348799572 1.5487389562035523
Ni 0.3283360684634176 7.253457481999904 4.216274593974406 1.3179973598764785 -2.7020566443790366 0.23751773870864254
Ni 7.158524566304922 2.7881499377743455 6.411569038983977 0.1430960319929471 -0.4667799222767123 0.9940548166146881
Ni 3.7872368416572657 8.233158005800496 7.212332143123894 -0.833577613030816 0.39663868537493624 -0.06016741351851573
Ni 8.341876372701881 8.813608478314146 13.666903869366367 -2.199343241430509 -0.04874040262849671 -4.325314911947403
Ni 6.377770167677991 7.9334517358993235 1.206637149594095 -0.888868672293637 0.8108783716610873 0.7034332561025305
Ni 6.85572552759684 0.3646930744563371 3.9422920514577657 0.2074396883763395 1.6990042522514286 -0.8244861922525091
Ni 3.5516772369798675 1.6302286114756543 9.247416449349014 -0.24023616608107015 0.12239093823511178 0.10305007181465478
Ni 6.940144915182972 5.715974218038736 9.72773004548313 0.6843885807662536 0.19576482314157254 0.5340302107839383
Ni 5.441755003274983 6.965848841303803 5.768850192546359 0.08736274298638502 -1.3089103099735457 0.6589066344450651
Ni 1.1851904951693595 0.584760547579618 1.573621513136038 0.6129047137936542 -0.8429814228432191 -1.1027147784169524
Ni 6.696381929828712 4.737706928563297 12.445016917969186 0.19149756322478634 -0.3998435654654791 -1.069780489582777
Ni 5.213352141050155 6.68737706943055 8.440138729450887 -1.6455936978407721 0.5045298873319762 0.6150518420436439
Ni 4.225325657321209 8.635001079715183 2.07977010089835 -0.6567013992636302 0.20834857334385407 1.5454083491684223
P 8.930973397032405 2.3652609492955747 12.220509247189888 1.4838258004699347 0.5356204380891938 0.7248813986739774
P 2.1478242154928044 4.4869097800079585 2.4006882388117834 0.4865020832959879 0.43776810842539443 -0.812741135901439
P 5.680756256167385 0.5452004514534462 5.9625263528231285 0.5795762748448535 0.9866806356378038 1.9161701667765967
P 8.758325235890657 5.256990354581778 8.248490784327672 -2.633226670089517 -0.05684657667539887 -2.223129545216829
P 1.772844856001539 0.621125096911091 10.66850034192676 -0.556771618245512 0.8115638277638861 -1.018609880246233
P 3.871750520975316 1.4708661553611433 2.5197456941179706 -0.23911285110990427 -1.270871095812637 3.0738692718492286
P 8.417441766660918 5.787353059100616 3.6059732449701754 -2.1812331620933594 -0.4102495912901515 4.428924198699637
P 3.9274957928852023 4.4864477505215605 8.812657074739093 0.03895247000379743 -0.2572987779903117 -0.6084024550479263
