# total energy = -340869.5212949754 ev
CRYSTAL
PRIMVEC
9.23654462595431 0.00000000000000 0.00000000000000
0.00000000000000 9.23654462595431 0.00000000000000
0.00000000000000 0.00000000000000 13.51861670432188
PRIMCOORD
 96 1
Ni 0.5244731786291634 4.760792260644667 7.971077158309424 -0.9112452402166242 1.2741834480153218 -0.640471053447697
Ni 0.5085539937520296 2.7656154656781458 0.47440464050123815 -0.7435710046636806 1.148397882276364 -0.04703473279129964
Ni 4.295168803237534 6.933292241727354 8.721278559473152 -0.4314737907762505 0.007518162753916084 0.03855806277885618
Ni 6.08400118848246 5.136146966207163 2.3061675620910607 -0.9992039649157952 -0.5162335489221496 -1.1162349243905743
Ni 7.4235310908940235 7.020041870022126 1.3281828071858268 -1.027179881303431 -2.6381912131836436 0.0872321309457917
Ni 8.108254626322909 6.710358997634229 9.68279086047071 0.42915028484939644 0.9992525587655436 -0.1943892829502846
Ni 4.113116506209215 7.837189747535995 12.702484275485503 0.3235561064566492 1.105393610800696 1.928754945420143
Ni 2.457715246427054 7.208097921138138 2.0668477639564364 -0.13575810357063717 1.030526686288477 -0.4232035803476582
Ni 3.368050623926651 1.9006407594472492 11.212286931452645 -0.7968985124422276 -0.18665566175145273 -1.4992215661997148
Ni 4.163723534896083 0.9824450823651513 5.215130507675887 -0.8719538988161692 1.2499860248335117 0.21169846365269346
Ni 7.187916070858743 2.6636809578138876 13.400152828381925 -0.4360475261898619 0.059346974499749405 0.0025716173819181516
Ni 9.450832588502072 3.1966572995401727 4.247144312462849 -0.5540416209088588 0.4005935562576262 -0.23711099018852716
Ni 3.0338724348609696 4.985739071493357 5.030831882964297 -0.8410903764680934 -0.5719002463568343 0.7223396060887302
Ni 7.304056384548955 6.040284622179311 4.351642885149788 1.361490655173423 1.7961850097695002 1.3799151804271979
Ni 3.0652489773777227 4.483372639069549 2.491968048979049 -0.7627051543899703 -0.29598565303754826 1.6376885840610829
Ni 1.4549405290665032 7.926230038928841 8.915081588732797 -0.720825740547365 -0.5488873304014289 -2.0265802785007487
Ni 6.197472140739836 3.4221398299843795 7.824791533517674 -0.093109158551859 0.9022687477496267 -2.081765151203008
Ni 3.2019960224058432 0.20759688518973526 3.1972881555466177 0.31482206901776105 -1.6170179430856086 0.4374909435046078
Ni 4.518831734365933 1.8733929524338782 7.740584725992657 -1.4492398349649491 -0.7956492134161587 -1.871396204995016
Ni 3.8014662497895038 4.50780329993408 7.476930327058906 1.0086216586852694 0.7965550130598797 -1.1197151696296908
Ni 2.8204620684053987 4.430059302770846 10.87173922112716 -1.1581505907877536 -0.3318432861661059 -0.026773668549418407
Ni 4.905861432492803 2.766982474301189 3.2200128265957693 -0.266568890438328 -0.15086564863603694 -0.9245165034042336
Ni 4.36072979787513 3.2411312625128446 9.508562840500367 1.0129861063015522 0.8565324220547764 0.9094570379679499
Ni 6.049364145668852 0.6065952980040383 3.89551090112806 0.5669441879031397 0.3549119950601113 -1.257240649513396
P 4.596695806610922 6.375672798607282 6.618566215905795 -0.05017533530281036 0.6575287802609321 -2.1240343442848646
P 6.265203723393751 0.8404101154674865 6.777085644219311 -0.32466708013264084 0.5444071831428882 -0.28936480528692105
P 8.823440286338268 2.3988969294571745 8.75091124234105 -0.053599016272378654 0.16381912347291142 0.15103816965815925
P 6.216831938536455 7.55918822364161 11.920351215465528 -0.8905116072136987 -0.5418275953411701 0.33775373811327
P 3.599730875898306 9.146608514061597 0.8603786015631497 -0.5950558585376914 -1.4558478271997701 1.3771098497679186
P 1.1865450117124248 2.81956612356462 11.808105952696517 -0.4128705738527664 -1.1930949680734226 -0.5021277056483869
P 7.593529697023207 8.245195638790786 3.8637833699107955 -0.15013519822791563 0.048910095437141574 0.09604432992078298
P 4.308395535319956 6.317390201232919 2.7671256407448186 0.6149952777740957 1.226458888245849 1.3685280216361786
Ni 6.971494590814576 3.594567647382891 3.9850047068681453 1.2057373394277815 -0.5742576908454174 0.9298728826201405
Ni 1.322460767713019 1.1391338275091594 9.867751745440897 0.40016341069874306 2.322644864405348 1.7086698003656509
Ni 2.9954391721549913 7.934090338511342 10.586145257448033 0.11256341062172871 -0.22144680128870894 -0.37782412377159447
Ni 8.33072604317852 4.912862733413527 2.723298235904668 1.9286125063050077 -1.1454794230779886 -1.8861373678599322
Ni 0.06709887933851964 7.052295884290158 3.0004028913038 -0.256369581307823 1.7286518999145328 0.314348214705136
Ni 0.8226713312745445 5.611570397594359 1.090061912559791 0.2247658383596129 0.14085685824978322 -0.36924332408111893
Ni 7.387831845434133 8.256242546312139 6.136559899075063 -1.3465214354581003 -0.5046723264471116 -0.6171411204725049
Ni 4.1039723269064226 1.628883139804063 13.36051696754946 2.740370709467887 0.34543388036634703 -1.1022203552790373
Ni 0.2744417595476218 3.9964774191024866 10.266997697654508 0.9839521809630475 -1.1000662850505118 -1.053670728505108
Ni 2.6041791365324856 3.4571093884089974 13.305076454994762 -0.8159416451166077 1.4166485312924892 -1.009105026079591
Ni 5.488142450096164 8.127134123792512 2.113730617799985 -1.0392231856212104 0.35866709122716933 -0.0779609900565109
Ni 7.185237472881157 5.43858838751083 11.603758483949933 -0.04130348673447725 -0.2855220345020631 -0.43497409062002507
Ni 7.862063762548541 9.226430733793649 1.6117844481623165 -0.03365599749154849 1.1461013729327036 2.2620264793923432
Ni 6.924729964743831 5.955040550678837 7.56466641833301 -0.740490308855828 0.8664586800295531 -1.1421385316302137
Ni 5.739505778930698 5.71863118779503 13.458608149143119 1.6877047680782096 0.09443404801086963 -0.1788096833444727
Ni 6.344831975686046 8.193415568920631 8.61453550641189 0.6626270207194459 0.5517793072372432 -0.43388008622489793
Ni 8.073349723711543 2.3504235426076248 2.184635877230101 0.07236267003312699 1.0831270860930122 0.796873572741563
Ni 2.2181285121491467 7.225425679089692 4.4654158724205 0.3808932496152214 0.9563873839709014 -0.06808204037990209
Ni 7.532817888379516 4.383350095968602 9.265497623469498 0.20982670055127733 -0.6768963861542665 0.9950012396883574
Ni 2.2684584444935054 0.06247691234547191 12.272889808185846 -0.9179776738444514 0.6213525874506912 0.6868738090819524
Ni 4.463551014035415 6.062914156817535 11.443427769210885 0.7801811996875467 -0.5178939673437081 -1.948269875524619
Ni 3.020303950622786 1.9234550249804783 1.7814025086477878 -0.3858562500474516 1.9663089924145165 0.0018617357990871166
Ni 6.500791033794781 0.4215328110415982 13.142569610312542 -1.1172047445030113 -0.8192437129066471 -0.036487296292756516
Ni 5.143083611314634 9.071386093615192 10.6179540702591 -4.014389349770569 0.1416929809978334 -0.3442493731399426
P 5.946302779345058 5.86534446460872 9.53040819248929 0.7024683210860999 -0.36548514259026726 1.7138405459333128
P 8.733273136485886 7.27481348386952 7.568424768391905 0.8650489441662199 -0.27422460721137293 0.7290458144643122
P 2.2510660307286994 5.959603403785483 12.719341893309267 -1.017110669992887 0.18369760756439332 -1.9170435705204856
P 7.771739591435404 4.340252378163725 6.406689115878773 0.7956687538001845 -1.0157816667688184 -1.3573663485924041
P -0.08669420902627095 7.852716379261242 0.6800406072404857 3.1678459206077054 0.06678389039376886 -0.4770537933988945
P 0.6547306273157267 8.522181142762639 10.801699425940148 -0.3757453868656948 -1.0443553646414532 1.8555636088381333
P 4.286338666456252 3.77068084613677 0.9018525348009253 3.1204581753523613 -1.8140264088262952 0.5304329803509832
P 2.521004051056077 5.7124796489913345 8.98493203475243 -1.2032264000804698 -0.6421289007660941 0.10432893852707838
Ni 4.999649307887301 7.819501764339179 4.7449940745037615 -0.21579525942988642 -1.2509013375589295 -0.4462918296256894
Ni 7.9958551132565665 1.228598999960519 5.132492065449472 -0.7079092895960131 0.03735452938905825 0.08071309888035132
Ni 2.0934905772886627 6.758767728670526 6.793996834002628 1.144846931700312 0.179190206612343 0.9098974679394781
Ni 0.3503319821794725 5.72986282621139 5.61894577857747 -0.9941412056809074 -0.5186151617804486 -0.21405873635475392
Ni 5.573866821923654 2.843784343899894 5.537698359990448 -0.1542772454207472 -0.49269767058373853 1.054432546371797
Ni 1.1338874700909918 6.162927463373731 10.71354399553438 0.8227517260599055 2.8346898291674476 -1.6877726452016675
Ni 0.31903579760204714 9.05878744657579 6.619228476164391 -0.4241759715632566 -0.7472242851455517 -0.5304689757952413
Ni 5.32440622130768 5.262622973472956 4.505457217567505 -2.536920858977231 -0.30452737195997237 1.018624278423936
Ni 7.194584856168456 9.332974277488304 10.804659738532617 2.5085338231941057 -1.0819032409882399 1.6027832875434656
Ni 8.312659361646942 7.653770441884633 12.223614689251972 1.1495042279666654 -0.09390080121521893 -0.28621160436992
Ni 0.8386791869812811 0.38024915062567866 4.059964809443641 -0.4482093583633765 0.1837513436204642 -0.540961647796449
Ni 6.2941325815516755 1.6910358494287994 9.299578626289136 1.1241973737707607 -0.2594021974865597 0.14446900108107377
Ni 3.6503471411299233 5.728846806288858 0.6109863513783285 0.011224407960909701 1.0659649724914286 0.1346856964420648
Ni 8.68585271573787 9.387746987857554 9.218304421722339 -1.0340789224161093 -0.43269712166039026 -2.563305776728663
Ni 1.4045089947298914 0.2683604184840274 1.092661076252524 0.20956599069072296 -1.1309575753127297 1.257728130672776
Ni 0.3345014681319414 4.976881225077823 12.283123899769173 -1.59050395595548 -1.5917578829672394 3.4940142678762207
Ni 0.28497511518085844 2.2570236020926395 6.605575015714504 0.45956643524740853 1.3718645422085793 0.5702426561487535
Ni 8.189905681915517 2.134297631995467 11.274161621080397 0.6853717706151293 0.900130104140069 -1.1871274376360779
Ni 9.03902124081016 0.815116761323278 13.084412629946783 -0.7071132760572789 -1.4031543534607964 -1.4102392853320358
Ni 4.86011282634459 3.7073828049629967 11.864762918194826 0.8581614730177672 0.21412301393378605 1.4510172385803461
Ni 2.5062717621793564 2.641808819845189 4.067116666043795 0.32779354157676455 -0.4574946403200444 0.05790484273658415
Ni 4.457639625395227 8.748772058576881 6.946351792349796 -0.4754756502784972 -1.3129099180512422 0.9729882257523759
Ni 2.051122546519059 0.8068648322433642 7.5450914090437085 0.21868440805222336 0.9809478469190849 -1.7307555765210967
Ni 2.2146832809572863 3.2551892836227934 8.445458707448786 -1.11844144512359 -1.3193106793712632 0.4130168696226435
P 7.715054916302841 4.633106266016585 0.4500709633565853 0.877435747866347 1.2046322792890607 0.2646719305259313
P 2.8178850724200664 2.7853354887200257 6.180792788229752 0.3027365986081367 0.48440329178543023 1.1056355516081733
P 1.304061570570431 5.374172724422271 3.595357371959041 -0.5812150959998571 -0.9937334287195273 -0.2572782091650214
P 3.2442716877279447 0.7485776165966262 9.103274340711112 3.3741959754642923 -0.7537222341650697 3.529095684960387
P 2.3025690042563456 9.12197464921256 5.6131600069458845 0.46389385897816876 -1.2905978848176032 -0.7760296394130184
P 5.953599649697791 1.939314172316735 11.458461169446464 -0.2510859643113805 -0.6717678066784495 0.37534917986854066
P 6.197509086918838 1.4359963757836478 1.7522833776680071 -0.9511572459202136 0.020284204170332807 -0.4468461594672627
P 0.9819001262248839 2.010998996123776 2.4269704835712216 -0.04068616486545251 -0.13838191434672942 1.5379963729750674
