# total energy = -340865.3463535753 ev
CRYSTAL
PRIMVEC
9.31235112364674 0.00000000000000 0.00000000000000

0.00000000000000 9.31235112364674 0.00000000000000

0.00000000000000 0.00000000000000 13.62956717633479

PRIMCOORD
 96 1
Ni 6.147716117092956 0.3309711971637711 7.627814662083734 -1.021801647710653 0.35631607449648955 -0.03161428447117136
Ni 7.871720965061255 8.085066925850931 0.493433541002297 0.6492601124942367 3.1121805087246015 1.4969942195310928
Ni 4.072309705161389 4.314142147577239 7.355877251442617 -2.407104574812325 -1.2572758736267056 0.36803130605088874
Ni 8.977972386538728 7.51705076590649 10.856713120743319 -0.6124249459437582 0.4556066792687122 0.5822535645667004
Ni 4.727964400112013 9.094888953003782 5.529474723411149 -1.310992132203239 -0.9855850885807799 1.4476966588475455
Ni 3.496042802254937 6.821893078128724 1.5770093878607017 -1.4763474898150186 -0.7859173308403754 -0.3629382077986975
Ni 3.2550019096717855 8.847143167720125 12.498898721828414 2.443497511619063 1.0220369036499108 0.2610518172748408
Ni 8.768742484879082 5.2318463989059305 10.510931560592208 -0.34035260918869775 -0.4004662866511426 -0.782643030964478
Ni 2.916227893627802 8.343652287667071 6.760592665379262 -1.8605001269078023 1.0733556085285452 1.9282800626662533
Ni 5.608987300958359 7.4730592199104 1.927752568610184 1.9659125283070467 0.7608578167685864 0.584286021615697
Ni 4.771574139718213 4.57623826571017 5.322659514358782 0.8270907197548918 0.624707362855537 -2.555981475153108
Ni 9.262585769324188 2.844140984746401 9.631769267470254 -1.0505123853817844 -0.7865259109586519 0.006056747717041182
Ni 1.492620863344069 1.5179970197452852 1.144472103575643 -2.8726943334356783 0.004102195093831644 0.6387427579026805
Ni 4.781193798273244 0.9472709656677235 9.931961282198317 -0.15151639484615842 -0.9295005868823863 -1.2693981108115364
Ni 6.795213192591299 1.3049676788886877 11.244215875723317 0.6334236596826124 0.19515598591298003 -0.6205480892715248
Ni 8.436263618092795 6.353817068825698 2.627221874888413 -0.9792169802709072 1.0170440784210097 0.3911380672716812
Ni 9.003125046516594 1.0255226508931996 3.891418218747447 0.9986398648822091 -0.03897560993224901 -0.11432590183879021
Ni 1.050172443918528 9.111511499490451 13.031446930622282 -1.6721331388921974 -0.47060983754576374 0.3438287406627562
Ni 9.354535922830834 7.353302386398604 6.736441083130984 -0.5665047863728759 -2.829835072178307 1.614216983301704
Ni 0.3175111250675075 3.8572595841436663 6.449688653327043 -0.7182428103115372 0.1139140111123522 -0.6165083719845125
Ni 3.3452479029503874 5.450435213293363 13.126567939635208 0.9260452813439343 -0.8998768504786825 -1.3040331843869024
Ni 3.6680233000228886 2.4347886606786306 5.31737103024126 -0.5367833480490433 -0.1524227087105117 -0.3865100815813666
Ni 5.117574540117186 5.105626793818925 11.216860844740356 -1.5465758871139623 -0.4079695370067232 2.0631930446277758
Ni 1.3486053555478072 9.119194189043112 10.562519191276913 0.6501936800520997 1.0141197056853632 1.3059229452104477
P 5.1604951657513904 7.364011590017466 11.239636061514835 -0.6100965549208976 0.39873310601011974 1.1378306482834792
P 4.72311266525512 3.7378659323198145 13.203929364107672 -0.22835201304897448 0.681842160195316 -0.3787751748309541
P 4.28207041082649 6.798956757682414 7.138090230473953 0.5743890742169592 -1.3019793871816674 -1.50385880786141
P 3.0272311172250497 8.871904708957128 9.216381608736931 -0.38974812890269006 0.47656631223951473 -0.3155244944014244
P 0.9650482436750344 4.474146961994011 1.3469663817765725 -0.07700402545988029 0.11389549916959095 0.04816370418942027
P 7.81061331797693 1.307100207261487 8.504004452775133 0.3688514879593389 -0.10732324526871195 1.454549677213637
P 4.20504795592944 1.9574282374555991 7.5448648957924185 0.08472273426037667 0.15700081499949736 0.5261310105415197
P 7.6484107887305495 6.060841194866552 0.6925697854423902 -0.5747212607453973 -2.03374542879062 -0.36338609396939353
Ni 3.62391069346415 5.700062093473551 9.231278576588316 -1.9027711197618715 -2.2432473990126267 -0.45045984496045
Ni 4.699673477856271 1.998821637530244 12.024195112337958 -0.23285504312565058 -0.2661356595556513 0.13616999429707516
Ni 6.03082748768082 5.446607837043492 7.478761172411121 0.09088284032450154 -0.17296093787317954 0.34790908137971693
Ni 1.9414482431860625 1.7313709175878813 6.902844413901251 -0.04059231960006558 0.9764260477893312 -0.4349200974536381
Ni 3.605472238537761 8.599741939422467 3.1337234380110135 0.46979119829921023 0.6191226696789079 0.14421549030937098
Ni 7.009453139074377 6.892750756681699 12.354534932105766 -0.05817737967168045 -1.0471756076990675 -0.7609796870584313
Ni 0.19807556766427725 6.441502165586746 13.151728049493853 -0.5352082902524395 -0.7143627585308406 -0.42310176466247135
Ni 0.9882732470015055 7.803293810112213 1.4789717505230549 0.62391751996439 0.056467853179741456 0.7620142989705327
Ni 6.727670710984685 7.449228913770689 6.757798028852287 -0.6659208609793693 2.678344902584394 1.5452445698970483
Ni 2.2234448553481316 4.4538274121710915 5.498344465343763 1.4124121246136383 -0.8464529263315873 -1.5554860451193986
Ni 7.632374920355175 6.355428105544014 5.154742926555416 1.7343340379009744 -2.0448852474575236 -1.2745536868705467
Ni 5.133349662665318 3.0170992793665095 2.721115516043109 0.3837073220252489 0.4002706257005687 0.2578785617531817
Ni 6.170661749890239 0.7663943790153386 2.378754382404355 0.6246587690057886 -0.6347480349209907 -1.1046207371904135
Ni 7.067683269708067 8.696860447719086 9.776992587187703 0.0697098057913122 0.5602644618901189 -0.34590619201707523
Ni 2.2788347189350806 0.5012531221142609 4.960985496037282 -0.2490499077179582 -0.3076828868698185 -0.5437620933597216
Ni 7.537780059172218 4.3184630784286755 12.170494939827877 -1.0554095655730855 0.5316388277336264 2.0473861595025062
Ni 6.674134005241348 3.235827779018536 8.245738504597364 2.0977895516557226 -0.9288269578541293 -0.3131454526462865
Ni 2.9797381272631402 3.992372484409813 10.786384383725604 -0.8678054238654345 -1.037416985650407 1.0890959020819373
Ni 0.43286973521479183 8.173757756517055 4.546687382367792 -0.13164588117447648 -1.0703052517379954 -1.1047981433085425
Ni 7.351262981535533 2.52372161247005 4.002608620599251 -0.7836462754180117 1.1704633467168357 0.3467163466231964
Ni 5.754911840704069 8.975765359358146 12.631800869973588 0.7623678256552097 0.38570892583630995 -0.5999486678536183
Ni 6.685783756308475 4.700064596597134 3.319494596334767 -1.3095330311592093 1.6344829326395913 1.2969063435341341
Ni 6.586262661460842 6.27848946180572 9.984093685414939 1.257626314987589 -0.5518093891442303 -0.7667651833919569
Ni 5.7084525217001545 5.262958963506467 0.9506038560809327 -0.7213258201122351 -1.0644457076334248 0.012776840049694123
P 7.327414050693877 7.999998599713275 3.8004142000996497 -0.29100645465540204 -0.030628780629450472 -1.3154648232626118
P 1.1023774834727371 2.5100231441888794 4.872379407765013 1.3700915094685564 -1.5387221953974983 1.8087739021781042
P 1.5877185914795637 9.504092279455987 2.9560754434409415 -0.6818344468858322 -1.0814247586899246 -1.6041426297848373
P 8.315817670609002 9.135416304437944 12.260517436683129 -1.353434874748482 0.3217226527923362 -1.4955276622878955
P 1.4085768958134344 1.9445120066561543 11.028336955469006 -0.9290812399567806 1.5456338349156673 -0.20490869442436968
P 0.497577537185248 5.762883213136893 5.265578527835151 0.40574424722063024 0.7403576399327056 -0.06852735544743682
P 4.911501525437362 1.1360602569418015 4.043606245757546 -0.17564131291882007 1.500883784393486 -1.148615397603809
P 8.185398195233208 1.345318095654365 0.859981643823025 0.1265216725740337 0.5140943910919599 0.23088223566999594
Ni 8.153698952521378 3.783431265630329 1.8726346256716444 -0.4896439713590794 -0.4142628262146027 -2.4742098531012546
Ni 6.845928255989841 0.3401950808024518 5.024239640020865 1.4680207151168783 0.15119012185499126 0.1425689558448835
Ni 8.564224632811737 1.8501033924926558 6.514415079999445 -1.3290518179184272 -0.39713028029937414 -0.12202378470368018
Ni 1.2493077571235238 5.883841339924195 3.2502833414338053 1.7506929388749721 0.6331644924839547 -0.4812151238654358
Ni 5.324439104629708 6.960367737096098 4.630849616755783 1.468248771967284 0.24026804776027008 -0.3832838613345851
Ni 2.1270899598312925 6.029281637419314 7.0819227855807645 -0.12917222282300334 0.3059314513963506 0.9921308601190977
Ni 2.8331244735454324 3.5328824627038222 0.7309683334441429 -0.03183874177715161 -0.7100268501596481 0.42965447817932456
Ni 2.9157064019733183 3.8807639579993256 3.2438233635638882 -0.3493779526157596 1.6641017839472891 0.1602584027048466
Ni 4.730786042456809 7.470610071604521 9.15162724501161 1.5073727345519394 4.133221881230463 -0.9284999135320139
Ni 1.085969121058446 7.419084833671335 8.9475787354333 0.5736681368905345 -1.0130388139163586 -0.1357395916278759
Ni 0.6819015561678091 0.4757205182166993 8.42376737432223 -0.6853437455906712 0.495753683801243 0.8922491587300956
Ni 1.5603216549172227 4.0815382449755555 8.42781545329016 0.7211445573393646 0.34756121112199495 -0.4118611587516456
Ni 8.364707513216851 4.933944291282107 7.873964310410631 -0.12632498318219534 1.0302505498089547 1.1671849330758803
Ni 4.747734521227529 3.4249988766825035 9.340668900997054 -0.7066018836384992 -0.7089708980913081 1.4992804444621082
Ni 8.628563665683664 2.3424008266762564 12.16505652685969 1.594228713105235 -1.5542920248112972 1.0596277174194912
Ni 2.594188172282162 2.0671556689695567 9.141146193991585 0.3762806905438746 -0.7999408988129773 1.0445798219474332
Ni 5.856826209751745 2.3292052253476236 6.178119080549356 0.7579704679184623 0.030281681702676887 -0.5443843003247527
Ni 0.4374728303007079 3.6967705274763034 3.3962702739310346 -0.42906106756969975 0.0877761763747198 -0.009267798455171136
Ni 2.468164126565588 1.6099006114970673 12.759578431378364 0.5264032903662998 2.1068642602634813 -0.18830502442941766
Ni 6.238958531925659 2.6094883649306753 0.5181904260638142 1.1659793428035532 -0.5174193417001347 0.13181197443869555
Ni 3.1398826269445053 1.8096784769191951 2.6148187546275765 1.0179231385918535 -2.2276809120329375 0.30185728132697687
Ni 0.9780110362293439 4.143372255435768 12.316222057732963 0.12728734709546466 0.04742142670675704 0.2507998005295294
Ni 3.084110956967667 6.875485657977899 4.893287498169421 -1.0901515970399613 -0.4657931328834107 -0.321150325228634
Ni 2.8480894215589205 7.202982416993673 11.015102242266288 0.21438578067686948 -1.6484568783211804 -1.062422763666125
P 8.049456495730471 6.979858487682426 8.635693201588536 0.739968632024403 1.0388133517773013 -0.8081871979821694
P 4.596576440235035 9.161109080772242 0.7212490327337028 -0.2896455697521334 -0.33813966069777895 1.85666429810148
P 6.905592488673361 4.212581647866536 5.675583647706124 0.6903874786621658 -0.2012330453449954 -0.21729986899987094
P 1.4709323979281301 5.416929374492785 10.099427152214595 1.196016769705908 0.4988899154373795 0.28348160703326664
P 0.24135006263545272 -0.019926568611861685 6.45793380887847 0.9447451717462826 1.718777064002982 -2.2932833805240955
P 4.3208842896816355 5.519756353935806 3.276383998740715 0.4230290024430069 0.2908115650357766 -0.7181510219286793
P 2.22923713765329 7.146111889602029 13.164376084585278 -1.124729849235463 0.8529153941274795 1.680031567803668
P 6.691054546959149 4.060957949325395 10.266471172731801 0.9541723785974534 -0.9216862330442901 -0.8955545689542447
