# total energy = -340895.20218435157 ev
CRYSTAL
PRIMVEC
9.03708726310124 0.00000000000000 0.00000000000000

0.00000000000000 9.03708726310124 0.00000000000000

0.00000000000000 0.00000000000000 13.22669069233462

PRIMCOORD
 96 1
Ni 6.217714862442844 1.8264585982769967 11.252672912547883 0.8612385692811942 0.6237205734622354 0.8830687777824081
Ni 4.822506069020593 0.42210156140431787 6.185819366607673 -0.4654231511385017 -0.6466617556394412 -0.4954006713371984
Ni 2.8428778784870357 1.6999935989237418 4.948250812517878 -0.41371800945472614 -1.2616539480897433 -0.32292618618213415
Ni 3.4634275505314798 4.160467129287797 4.827583104652769 -0.8180766891817394 1.2878426906699691 0.15605387770519574
Ni 5.024412672961599 4.920151797047742 2.5820883249757864 0.19862131875376116 -1.58391319011184 0.07367727507949247
Ni 7.215590039560637 6.106766541944065 2.348676627369974 0.5356088681249679 -0.4637884437485561 0.30172615506575134
Ni 4.83626051585607 4.511576044170794 11.412253414518693 0.6808561421329629 0.20781121278314535 -0.44873000675353686
Ni 5.634876955604997 7.799783509490022 12.26753058407647 -0.3068318517234328 -0.2565151057467518 0.3020197750467702
Ni 2.0588653717776153 6.390991973890558 0.47037316309399996 -0.7569032029962126 0.5462596629705947 -0.16159434790745072
Ni 2.6163903971528018 1.3931573746103885 0.24942541626051923 0.5152976673714416 0.017538008883763345 0.5256126761442044
Ni 0.581740804442428 -0.06992084797027788 4.290897602538166 -0.5233058823878988 0.5149338562741196 0.42839823717472025
Ni 8.735528711578974 2.2304977333409295 1.293282197152023 -0.5701508677658955 0.3330002825886846 0.6128576626058025
Ni 7.040469362308431 0.7918250686603201 4.973976688869094 -0.7129537939984559 -0.9660809571095814 -0.6897621863733412
Ni 0.6127154210840803 7.397777719063398 2.2749647212870268 -0.04580291726672757 -0.6721516723804295 0.4226307385633237
Ni 7.376757454057275 3.8740908705693973 3.7585489986077585 1.204894531811512 0.0878679647575777 0.06987461350395063
Ni 7.714554739381366 3.7674532407017103 12.598091873617927 -0.38896034289407205 -0.07102672483052283 0.5111286235954164
Ni 8.151190648253158 8.802258564031769 7.043014206085612 -1.480564870330476 0.6482278145749804 -0.5552832066254437
Ni 6.7022654080568795 0.737823953637069 0.25173710318595605 0.7735588092750226 -0.5072634842130554 0.9822485680083793
Ni 1.7721457037426918 6.4583544224527385 9.107753684593227 0.7190686486469423 0.16687487958009972 0.8773920391126051
Ni 0.29754248375776593 4.823590519493824 1.3740412238935142 -0.5094198684344258 -0.2278943566862656 -0.2104648483559085
Ni 6.425215423408264 1.9630451353804048 7.140415932756285 -0.030065451926812738 0.34987006176082974 -0.24068868023745646
Ni 3.535480247390384 4.2967373683365135 0.3573255272207921 -1.2145446533067663 0.25288985028933864 0.3995458317194022
Ni 5.990359820730025 5.564731084161524 4.704191618682396 -0.4634269466440793 0.8752174000587896 0.8060621812193667
Ni 5.414290692262593 3.013534234624442 9.23320924129765 -0.9421784394603709 -0.5095191130164516 -0.3514672310446205
P 0.10020864597888399 5.757971121403959 12.49857456481573 1.0177596164307958 -1.0006502104440185 0.9234340689733322
P 3.9137727208023643 6.241021510530027 12.455045626528975 0.884994019829579 -0.36808555632759193 1.4075188010770792
P 2.37010265759483 8.423270234899466 1.578526108834625 0.7156771064668901 0.31721268073712466 -0.7603546518799227
P 6.434885106794571 7.6151015938988325 5.973900573672565 -0.23917147226198163 1.1955159188100895 -1.181472553343146
P 4.72364033421106 0.8317952019774211 12.642520905797463 -1.032460927196712 0.879299283437647 -0.7851917655282605
P 4.062550288642341 6.261427253601318 8.169002747275972 -1.6527495921592632 -2.2191129678582686 -0.5092725442232842
P 4.824214078515932 1.0019418663924091 4.029352548530566 0.6474086611077947 0.07187493176343106 -1.1851132354195266
P 0.1705677926820926 5.619062052870383 3.4316386923261772 0.03441370159317944 -0.4556861263563958 0.5663075827604053
Ni 1.5979739206545625 1.2302367651820278 2.521404283911251 0.02557013515962048 -0.7058626914796295 0.7514030991135897
Ni 1.630968326302607 6.830122118850781 4.785641982600571 0.8723765881758847 -1.0886081638122413 -0.7694800112199587
Ni 6.081327141259528 5.4908438585854045 9.145079566173102 -0.383711692900623 0.21738471540419335 0.5173812893733477
Ni 8.760471072463279 2.4281569062617803 10.273422268599099 -0.46670638872629944 0.2968117484832694 0.5361356871627153
Ni 2.356574137941277 5.267157874307016 6.8943595426326025 0.28473219161091606 -0.08970090420125842 0.43975788516191355
Ni 0.5437506969477007 9.204725245909518 9.27184369311522 0.04906204763397357 -0.5477730142913276 -0.10220572153648849
Ni 1.2748347908936408 0.8864298168187843 11.44397087973451 0.6358687787889953 0.7883189983033326 -0.06565851854007401
Ni 4.144670300727737 6.902201926971515 1.5896498595637891 -0.42468633554077184 0.9922002799044525 0.1990200968540766
Ni 5.521316916883188 7.751308573336609 7.9296654315426816 1.4164299875237798 1.3960187708572798 1.2428928654321563
Ni 5.333173796864936 2.8502702158795583 4.952787430330893 0.25534859624247636 -0.04462123825380057 0.12812115585066966
Ni 0.9109564716883524 7.520781513989591 7.095180792391648 0.43599147614094586 -0.8180260384494622 -0.09567717638935136
Ni 4.962409217154633 4.691558674377985 6.90740096328193 -0.07604706086324968 -0.5005266797098542 0.4530800561921165
Ni 8.299317545809195 7.23755016164356 9.056592926101112 -0.1640572076256465 -0.41065119760394436 0.26351930497872683
Ni 4.683931372716263 0.11874280827512455 10.439906201540749 -0.1595562344314994 0.16164191331593453 -1.0980739372108315
Ni 8.040160993968886 7.120031878694458 4.606909181563779 0.1501933051593607 0.26177301171158146 0.18936251915965452
Ni 7.2499128970383895 5.9893295927804555 7.130866442630761 0.7378055629348133 -0.7059346823681455 -0.9315610689558408
Ni 2.5505913646895277 5.139219829727623 2.7155588743861117 -1.0844758868114226 0.14972870681811634 -0.6910662498967453
Ni 2.277255622911727 5.317123929861121 11.48648133828515 -0.7703552147360604 -1.2470408261622588 -0.994164859829991
Ni 0.9512889922052579 3.453369272392265 3.608690595129462 0.1295146937640866 0.1398196752345205 0.5305813330033895
Ni 3.7285124316254508 2.717181031552319 2.7906335732304184 0.4194819085216969 0.20148449923416914 -0.29381589907973915
Ni 1.104594140770973 3.4875384993863094 8.286270702907503 -0.028981474834014608 0.2726842593074465 0.17785606118195177
Ni 3.5397186413232604 2.7120389288917504 7.186193298357535 0.32481466145409865 0.3968045215288392 -0.16426109610633646
Ni 4.144064815880183 6.962587744155912 6.064794693795126 -0.12681940632011063 0.21300818360305254 -1.495958836288043
Ni 0.9496803906699657 7.399006762933058 11.376620179385789 0.360411841832418 -0.08841303862777032 -0.2509808061920839
P 0.2304222291346064 5.503947635136942 7.927231743939006 -0.21776138201732173 -0.022047209608026547 -0.0011958200803140696
P 8.46634099286128 1.6694663181022973 8.090382799092929 0.31597572300623 0.38185741330070366 0.00888598963572018
P 1.8099116914729514 3.289120211134197 10.449257779454909 -0.08016211147288775 -0.03094836875239831 0.16493395380364498
P 3.9029553273318878 6.300467470637623 3.936329290645563 0.11186407056185896 -1.0192801668403801 0.15706252147536823
P 6.80845118356072 3.9191497877321333 10.628254463440188 0.5649778082053882 0.239126220846343 -0.9932855425488313
P 6.385262460556989 7.519055430319699 10.036121912338027 -0.24690406501954898 1.0121808367914373 0.762598710719093
P 2.135689650718734 8.673227031891868 5.724485098208051 1.2044610438185193 1.139155794852806 1.1813311426692752
P 6.8562754494301945 3.8180157440160922 1.5465836201456142 -0.07292805561829376 0.8540873029483935 -0.43425263907296824
Ni 5.185977719298421 2.764372701312409 0.48546419513773303 0.5765395449010587 -0.38419068941957063 0.029397993546142916
Ni 1.4696111329731536 1.3252075153752074 7.331925367785189 -0.2884944868668257 -1.0860586579175102 -2.338802190891501
Ni 6.951689016899944 0.6105157940408772 9.228526222670748 -0.8324414425438438 -0.5080137321155186 0.10747442613459555
Ni 2.7498501020583945 1.4647130316690617 9.264424244460868 0.3468281896107124 0.5934193513755328 1.1365906052287909
Ni 6.472768576659431 1.9189441494690227 2.65031110424673 -0.1201445654030963 -0.32601948039547723 -0.042881886965190665
Ni 4.131259263208784 6.656456412650159 10.281252001015826 -0.016424206994294296 1.131177918853652 0.12127045147742342
Ni 7.863025046253926 7.295830337492433 0.15309729555834584 -0.4068253960999509 -0.18909795264435822 1.2948628307415442
Ni 7.6531025458982915 3.70176265328576 8.324336721935357 0.34127820632676065 0.8232417783224467 -0.14246045529147722
Ni 3.1137826437873444 8.279607658458229 12.267160063498116 0.10248931421517832 0.13410925511330452 0.6113432828438051
Ni -0.11510447693743552 5.1325233480554235 10.400385211461312 1.8867896567319504 -2.0469305600223264 -1.5367046507468374
Ni 8.583308013486489 2.4880095352968388 5.879674479471005 0.1312843840699997 0.49467947690045766 0.24240052072224058
Ni 3.6245226683299023 2.585465484491172 11.48007946565818 -0.38166920854929753 -0.8796638658659173 0.12688162701661373
Ni 1.067469786237375 3.314415018422303 12.683907150690859 0.7264176328128458 0.010871395496865149 -0.6142303745836132
Ni 3.1463613434206508 8.281406038826335 7.946450013742109 -0.5002106911313321 0.9105119615950255 0.06625809979728589
Ni 5.651839568423781 7.789110709415977 3.5773436504920006 0.437311223393634 0.3745176851061808 0.9654196693764986
Ni 3.359763122377901 8.393086363394545 3.727519255733717 -1.5261631277855652 0.7666517977425442 0.2991226560046332
Ni 3.314803613175211 4.371844600695018 9.189441723906787 0.35732497537697816 -0.0989501907136683 0.09976163087137013
Ni 7.218509018751083 6.039864984833007 11.430704435611986 -2.1796812442252076 -0.017064411681454485 0.4996316786994105
Ni 0.550783358266602 -0.19803511575157115 0.30494385823756553 0.4006256950471423 0.5302110941481643 0.13610803071088814
Ni 4.530915410943408 0.5707571285660562 1.7153033284795765 -0.11030778181833262 -0.9432151082550013 0.06947403563142228
Ni 5.754627399111499 5.531935494433572 0.3156473844083527 0.7714332782915875 -0.04389207339725989 -0.028339470374641518
Ni 8.015824117932134 8.504585946217217 11.330512056390202 -1.0237173766761274 1.584017576900188 -0.21227284809892477
Ni 0.3636993848772056 4.9619663998780625 5.594414301031304 -1.3255738866721556 -0.1317566957207279 0.11639178322888342
Ni 7.786381509058346 8.785214617427494 2.576242233216345 -0.10498585538478693 0.5908911856370405 -0.3384973011475138
P 8.572653287586997 1.7942684933965982 3.696198518649359 -0.7877440996364692 -1.0202530722766106 -0.7225319246051943
P 1.9152208695109305 3.131133851359036 1.6063549153951806 0.3897301311805611 0.9338902313096498 -1.2151681458233783
P 4.677858450066171 1.0711569178463591 8.283572228646614 0.6919928754760728 0.09514341537306839 0.24033335378056675
P 8.47952610319831 1.5217370523864435 12.45450340129236 -0.23175846762736216 -0.12422850566448283 -0.6777003701128006
P 6.095235218578711 7.835217928702836 1.4366438385869402 1.024286618916036 0.09995009273309237 -0.7975441164460264
P 1.6753404248322967 3.2408169796390456 5.928547047464602 0.9104695383928642 0.2541697454430268 0.5349969455725819
P 6.838273571574565 4.018910194182082 6.026080715609517 0.9446099317199989 -0.3513754426617626 0.6008364697752103
P 2.5019356867905764 8.45597545375465 10.151895133733953 -0.4176862500738548 -0.13734961642747312 -0.3055427005983641
