# total energy = -340886.6004618263 ev
CRYSTAL
PRIMVEC
9.12669506023250 0.00000000000000 0.00000000000000
0.00000000000000 9.12669506023250 0.00000000000000
0.00000000000000 0.00000000000000 13.35784076112494
PRIMCOORD
 96 1
Ni 6.446230291013239 1.9468791909841658 11.170000431676051 0.027452696894314007 0.13943375265001148 0.7347716612044959
Ni 4.804036684918301 0.1194647864835261 5.805570985537527 0.0929302097718335 1.354856951906989 0.6863107374896309
Ni 3.3127164733777557 1.869347917211281 5.081323018837126 -1.7926111763753128 -0.11671831333036674 -0.3385358676949331
Ni 3.546213837498472 4.607438548562596 4.8129771953112295 0.22611283930581055 0.03491789492310761 -0.1447227689630927
Ni 3.546067810378947 3.004590124484716 2.5937054042513257 -0.7690434379031724 -0.25725815456036344 0.26874635770562105
Ni 5.042462464322992 4.728978745482374 2.6679483298264035 1.0562351467981745 0.2001387838395521 -0.7533895334159992
Ni 5.179956124050892 4.674236829050383 11.796296144607473 1.6078378192482372 -0.11008306740203623 -1.4804573982183342
Ni 5.514266960813785 8.09617246113798 12.321472640615209 0.3883939288676408 0.561989929221658 -0.2309246588721571
Ni 2.0259346228170947 6.167637927044162 0.10958422650865557 -0.4298501391298984 0.6579540407238088 0.4251463058963259
Ni 2.2341966753448705 1.6596073400983125 13.240732524085473 0.7148283853133496 -0.3411241972473996 1.5125817895567046
Ni 8.603488927758296 9.130163114410665 6.352481792947589 -0.9904470446587716 0.18149211527264228 2.26046530555281
Ni 8.885248254882075 2.4522607982707734 0.8873137130656458 0.15625159553829865 0.1345003199041361 0.07497491084499346
Ni 7.099436976734151 0.9038613237163365 4.932662847813036 -1.0180722625752079 0.5166703793492521 -1.8315700741370136
Ni 0.9210934364898014 7.5426292844929845 2.18765326900472 0.24446074568537904 0.3247557831917052 -0.24220845931609256
Ni 8.094839963672314 3.7603626082821062 2.846168040520371 0.9447107189639214 1.8801528681417232 2.047005636234636
Ni 7.774237422754845 4.089909310270491 12.691604842467118 -0.3966926785413233 0.15114281355682357 -1.2678248527871456
Ni 8.227469094981032 7.471650977708792 8.894545619048342 0.1078104693177756 -0.5762014448353496 -0.31916363381590834
Ni 6.944246655458797 0.7128615020554271 13.540174822714253 0.058052938278674214 0.2285682428248386 -0.09098697000253363
Ni 2.271360577264022 6.5360369695212075 9.138966724379037 -0.14310605929527614 -0.18643197577642087 -0.9356748340138983
Ni 0.09981227420393185 5.307574699820903 1.3072219966161942 -0.11282463470291537 -0.4526655943625172 -0.43993400572846175
Ni 6.729258228737893 2.2780960781521196 6.986350837365383 0.07447328861822658 -1.3540462830802356 0.009074965718074693
Ni 3.7188178927772007 4.408832539313421 0.5711704753106759 -0.4339649326292203 0.7760833754690892 -0.5336980242555002
Ni 6.033028302926884 5.741968873628347 4.6087491419603355 0.7141272454812668 0.09564992269584172 0.9484902406110115
Ni 5.299899149350862 2.8561079240125484 9.1569070686822 0.9146342112935151 -0.6520577298440318 0.059086264639195016
P 0.2144417376921814 5.894685860566744 12.139966407062428 -0.36974031832219545 -0.9547048540621559 1.464309327703562
P 4.038078809534032 6.366599877397181 12.531230558448621 0.9235140302816482 0.7731893417507458 1.6666111806327037
P 2.441491298205793 8.948961712469893 1.327520678899687 0.10129169436265134 -0.7188776156820587 -1.1130277303071863
P 6.7274785232186805 7.850235411772716 5.509508302056259 -0.0038373714682191974 0.42970204358780834 0.06526976774208759
P 4.936172974698623 1.0852552989209823 12.572078907127292 -1.3906935019896243 0.3224343341473802 -0.5795716468591632
P 4.284782501276805 6.308106889332387 8.268743660314817 -0.7359921638751583 -0.15637115183529843 -1.8894692604466425
P 4.878866456979972 1.5947256655542936 3.769729335330147 1.7127241729406828 -1.6612676569326035 -1.6141740458789102
P 0.5165371665488317 5.796710790060338 3.5423386428140735 -1.379838047332359 -0.7424196646680569 -0.4883288520920816
Ni 0.7660920378003329 9.072427642028408 4.468518386410835 0.06326147906280717 1.1180151562194487 -1.4742155310736804
Ni 2.115786934799914 6.653251113025052 4.753855377962981 0.6080162753531013 0.2695876226599938 -0.30803641355449535
Ni 6.225537679935885 5.930836699344189 9.051553065292287 0.5531890431005764 -1.215241679373791 0.9394332726150658
Ni 8.567976957628774 2.20751934594662 9.911410941878714 0.32345583343335904 1.185349776910365 0.2134306158524518
Ni 2.628953612896206 5.554296644953617 7.011450161203266 -0.15286133890982706 -1.161376296813903 -0.4150277294050852
Ni 0.9548713345749629 8.782883244094945 8.897376719828136 -0.4090383445908697 1.7206565404138818 0.7116751843963486
Ni 1.3406476042755011 1.1489322497289183 11.073396190754186 -0.3670239478322969 0.13373464538270516 0.8850089322279144
Ni 4.238546664557154 7.251204787395635 1.5950861700056214 -0.06279996604535637 0.6893994037172837 -1.2369675010866568
Ni 5.684415935145497 7.9578117653879 7.709144008887515 0.20020846073522294 0.7890463633876605 0.5089768673597364
Ni 5.446629024388729 3.1765644378104922 5.032072634768777 0.6109948983654511 0.5268565758536345 -0.17125861047009214
Ni 1.0466950126713719 7.5087236126782395 6.9507923210915115 1.1056514924477732 -0.6660489019168013 0.6586114718021495
Ni 5.435649610339432 4.447858287006517 7.175671347151754 -0.49137560933820534 1.2704275805173153 -0.003494129196187531
Ni 1.2416138371525376 7.325131016655242 10.95543274559328 -2.2865434906971007 0.6363274635929687 1.20872136175677
Ni 4.606215571436573 0.5091646223518057 10.102828766169266 1.7959191577026232 -0.4667426412808736 0.6498566084276549
Ni 8.880292459513191 7.083346613501474 5.1671604977025005 -1.8878787760310713 -0.6223362915201991 -1.7340278195144654
Ni 7.289180965167144 6.3038538494762175 6.9228609838043385 0.578215904162217 -0.7327759709307058 -0.7827299342513294
Ni 2.444694768140376 5.408470312717813 2.4548372642608953 -0.36825602046718514 -0.23301059486690837 0.47327041509706236
Ni 2.70646663327915 5.455363271475327 11.287722932089741 -1.5968144715545403 -1.110170206253733 -0.2480312366454567
Ni 1.3005996667457282 3.436839524974134 3.891018548138241 -0.3969130220822455 0.6592815012859807 -1.6552397055709689
Ni 1.6527166853957191 1.398702510981719 2.4821671523495237 -1.4601603385321948 1.2594330291790243 -0.24754324126544464
Ni 1.3273135029238607 3.4032259073984386 8.117893995167348 -0.6578918200273056 0.44023893856339025 0.42931560678266706
Ni 3.6455305321655156 3.0026917719308894 7.174082389557421 -0.18093161478348194 -0.429523351918099 0.6354532885181314
Ni 4.330771917232258 6.970321622989006 5.878344513222382 -0.4647204686445222 -0.703770070616659 0.12050786227978602
Ni 0.3050442640015614 0.1627600020837393 0.24178805383175703 0.6958438737910468 -0.5715438914586801 -0.15853679202804954
P 0.28847566195243896 5.734348083328128 8.106712881159206 0.5952039540797813 -0.17925808373580093 0.2911236969595567
P 8.828872660050397 1.6340617208763812 7.864975936819283 -0.5347269797406469 -0.15532522706928734 -0.27154757459984197
P 2.1304626603121917 3.4046131650339273 10.414159497666384 -0.5524668202225711 -0.6417905435900688 -0.8177121067534693
P 4.061780836371958 6.489499951867535 3.57375637757991 0.18289593759870434 -0.25652359038718403 1.2182426709836438
P 6.8531713663499545 3.9622085942457463 10.336056892788356 0.4920955182233654 1.0958856713102612 -0.305964361516815
P 6.525988478358883 8.014479414458629 10.097579091222334 -1.034631709595786 -0.5551443670547341 0.43173090109237905
P 2.5410361602470948 8.672477615038959 5.5954525632527865 0.7332446830370082 0.20857483042204725 1.4572210533982128
P 6.8236921415958145 4.210810638542346 1.2626654717710821 0.050662302241557905 0.8070471708404554 0.6066803301504972
Ni 5.470248910971922 2.8952523187402592 0.2881014674586557 0.5286990283790121 0.3897072483624256 -0.259944700253591
Ni 1.605193984685253 1.1878849838622523 6.895170591264382 0.3593610319704005 0.14742242728244287 -0.4430694660336499
Ni 6.95595620510572 0.6436519487564818 8.974398724021677 0.01130154105574828 0.5760268669306984 -0.8346844729417496
Ni 2.7171174863095158 1.4802404038465753 9.191810288257201 -0.13851715437301304 2.575280689702352 -0.39185051995767356
Ni 6.8875790063880675 1.8721680659571105 2.4515781214869934 -0.9327160084958904 -0.8088518281493619 0.16459996750299394
Ni 4.471843241388523 7.092089987283042 10.334734434687157 -0.4190869870761234 0.2658674934959292 0.3755684949681984
Ni 8.036648156541542 7.321544225531906 13.354020363413087 1.9045377247439912 0.33239015980851144 -0.39358884280501893
Ni 7.828705538337727 4.050281200709353 8.075976910507652 0.9034414279014892 0.3730799242183897 1.7443626257815699
Ni 2.8699348668925864 8.319402293417085 12.561472774902281 0.5615744389507942 0.7085104135151217 0.14560311468551698
Ni 0.13121996960530077 4.711674531818644 10.256497667393067 0.1534128405379229 0.10141587864534148 -0.3851733650478141
Ni 8.900060880818907 2.6090756712508445 5.634884448872063 -0.4745683079728794 -1.3619771078915381 0.36111580987797803
Ni 3.692487377787822 3.032353530584436 11.905121942764094 -0.6450242200360182 -1.775669920535284 -1.016980829283242
Ni 1.1482933810809959 3.7844479563087856 12.553885753373454 -0.0893697461140848 0.3592687293669103 -1.1411324589632024
Ni 3.1796857674903425 8.679642070590663 7.996644939817123 1.5266038148674095 -0.9835978829474221 -1.380601922081577
Ni 5.4778514478822 8.272153393555728 3.726503482611709 0.46244067147141005 -0.4198853146077027 -1.1242955899115217
Ni 3.102127113632547 9.028309198541871 3.4976032347475434 1.2551799103296255 -0.745439168220671 -0.21038077328253446
Ni 3.935503884762584 4.541160489688118 9.552779288358908 -0.4573871682079026 0.3998816177922661 -0.7869889666379994
Ni 7.267240390458491 6.231515665141446 11.282646664347249 0.13359040649535703 -0.14275278972091543 -0.29956719974121954
Ni 7.929573771149724 8.38278718998597 2.9936791606476967 0.046307367706971865 1.318458101562981 -0.10779709958133693
Ni 4.773781691091684 1.1348406326947413 1.5807937656820974 -0.9670914006519666 -2.0032804274325433 0.14806905972750628
Ni 6.0382213923649966 6.040639966532133 0.08669630086208219 -0.20906848222901414 -0.8363628890854369 1.7390000759180761
Ni 8.326384215069382 8.927048517846151 11.00159739409216 -0.06074745439170183 -0.7791147060962453 0.29148056607834316
Ni 0.20169174481864163 4.831882231272753 6.044622856217181 0.870007830833392 1.4668974001457125 -0.053921946829436164
Ni 7.156989915217002 6.2602647542979595 2.488231841157303 -0.10324393299301574 -0.9146282977562442 -0.5068176549248885
P 8.805617841266017 1.791104761230711 3.5113891075002144 -0.19220101704971415 -1.13434526083804 0.17181936806956857
P 1.6873342394181503 3.5880597339373983 1.252819593237099 0.9977299514734301 -0.5632667390515526 0.74341365315021
P 4.934137721720241 1.2350699968588168 7.828001870155514 -0.4196356604907418 -1.4629561561097773 -0.18009600625606403
P 8.428165117378413 1.6475327226525764 12.097568345577798 1.1035696702180802 0.5418579343584732 1.4903574309408654
P 6.457501759301587 7.989800831258878 1.168284493743989 -0.9634018676155216 0.045260671610012376 2.2426521886307893
P 1.972963285209346 3.4521723725242746 5.838271020946693 -0.020867844587944707 0.2738222295666316 2.147059344425128
P 7.246039078042433 4.198690387621758 5.97680512390121 -0.646951261855402 0.20639993425791553 -1.439531863648566
P 2.7063023527696846 8.670323715025964 10.276560880946326 0.13916892902439904 0.25789501681341387 -0.34678782329108016
