# total energy = -381169.19276703947 ev
CRYSTAL
PRIMVEC
9.24222872615973 0.00000000000000 0.00000000000000
0.00000000000000 9.24222872615973 0.00000000000000
0.00000000000000 0.00000000000000 13.52693595952847
PRIMCOORD
 96 1
Ni 8.078132976228753 7.089177542546336 5.707000400586296 1.7021931915023718 1.4121902384108196 -0.18637515439655644
Ni 3.1095108579185293 5.174187767780937 13.175479006628635 1.042963626500249 -0.36314980958887133 -0.8355054261811482
Ni 3.244937234219868 2.7587960076143663 12.794059624327728 0.016447604033062 0.8437648379764631 -0.3449816233202768
Ni 4.099982017098347 5.9261632168361364 10.914235605324901 0.8421129041953368 -0.8801035245064971 0.35255480768184444
Ni 1.7341840558284511 3.25377280480228 1.0794174434142034 0.8270177004251111 -0.15397796901277352 0.7140855936100541
Ni 0.96433413657829 5.760967622076691 0.1736605519732836 -1.0069676680216142 -0.16322057065696405 0.45269079117349775
Ni 6.678406690521973 8.165555216959959 4.138755014700161 1.4453641540596267 -1.2598976275202687 -0.9218297006006898
Ni 0.48416801079028743 3.840903863786457 7.323875620921673 0.006126681723028158 -2.1589111015573916 -0.7651201915893662
Ni 2.937660858536349 5.140878775752682 2.036291253032114 -1.2030307391298958 -0.33611080319320824 0.5662062812958507
Ni 7.449735366354965 4.66191876080255 13.412890603333468 -0.32522706640116894 0.15274538215725308 0.6060331834848014
Ni 1.3225074653971038 7.583211632412695 6.140498817065899 -0.1907933380689101 0.877338045946218 0.17109765941219565
Ni 6.130647525555655 6.263190326520475 12.354285734599737 -1.0642207361068123 1.1099015259733787 0.08126897138382133
Ni 4.229900025128642 8.262044083989643 12.511712311962135 0.9224693910672178 -0.08233546497512273 0.5855011249697207
Ni 4.404356332988062 2.5896077700812805 6.09798364108666 0.3110664586300707 0.24734166677759983 -0.4279074135812308
Ni 4.556714472162809 6.284105489938883 3.343465861110995 2.325478734309718 -0.9721852702351064 -0.0544870753042868
Ni 3.645902081654337 4.0702220408688845 4.103098496596662 0.7487353224734395 0.4401625767995 1.2725482264047439
Ni 6.123734338530923 3.4186079526446584 2.6979063568705954 -0.5421171015571309 -0.8824938791155447 0.7139758075050672
Ni 8.14164557146132 -0.10299909288559608 1.0038418913571976 0.5915568442454974 0.023516595064701436 -0.5794250939789698
Ni 0.8733508651510553 3.173735104756583 11.771382995219591 1.0826126083504386 -1.042084309219089 -2.1069226243052426
Ni 5.254271678969848 4.638535922336545 0.9185943470256164 0.23052485233057718 -1.4798179648621224 0.018806334073225676
Ni 3.6527967842217843 1.9005441713968736 8.16492582118939 0.1651383565049672 0.26053656820131904 0.8117810859810148
Ni 7.67200172298302 3.481344200671239 11.446005714739364 0.07999601820866868 -1.3463818245564427 -0.7355504483520494
Ni 6.921625179483007 5.325409112832634 3.8423669085805945 -0.47097236309150503 2.1624995902395985 2.4375245818650795
Ni 1.8131588995802383 6.3949382958220236 9.035195327310975 -0.4574149361220444 1.0201188606915914 -0.015348200321296145
P 5.16413222301769 2.027763448663504 1.00972456988827 -0.713087748473159 0.2793724699608995 -0.4209844612091524
Ni 6.033132771146631 -0.11180878522780832 6.080005657930898 -0.6252154128402071 1.1419986636182398 0.9690492957092858
P 7.59813783167064 4.713776905716685 8.301953875714508 -0.40800090446529086 -0.5273340297106853 1.3976979583319156
Ni 8.178013741170306 2.4593570418198483 9.191647773774433 -0.9997413254765041 -0.9284178953411689 0.1585411629034237
P 2.394374932233094 3.320852900290925 5.777367956803146 -0.97233645110099 0.565646809247955 0.6229266168060305
P 0.011338366098852271 3.58891449984351 13.520185484092186 -1.8237222959578205 0.8238398169177618 2.05366787874616
P 5.906865443430199 3.787188030915142 4.9369665609861455 -0.5788825912119385 -0.6646059988226877 0.23033356225537746
Ni 3.2739485899292724 0.21599550449399008 6.388880014946739 0.11078240746190599 0.541811397391254 -0.9198291252308933
Ni 5.478580568127938 8.890284575976507 10.704432394021513 0.13515029478330917 0.3248545135530986 -0.6083204368570814
Ni 3.2871280079737484 1.1384207552920016 10.49811997247647 0.4577859463082181 0.9844879988618594 0.02692844895972782
Ni 8.009047317124644 6.972660766047941 0.021740494436200034 -0.3256196738538973 -1.2031142999826376 2.002689845036396
Ni 6.962457345626411 8.648581812512875 12.459200741482963 0.6494192637799202 1.700062261202298 -1.7735248491678228
Ni 0.16930468961398373 5.345344600014917 5.137976715958877 2.3226854878352965 0.4907053227440581 -0.8790966805085376
Ni 7.636779589625728 4.701318381506338 6.142338020565794 -2.7186657136906276 0.29856832616306 0.7617301920712107
Ni 7.5783871890612104 2.519468496911905 6.8786497405173606 0.593271770054075 -1.54355226979629 -1.0794568363302763
Ni 7.9197119350644005 0.9559884041139408 4.78228584975349 0.37009847299256265 0.5148960610576487 1.0421586141004504
Ni 2.5367976756169486 9.025766405649701 8.472731776574138 -2.4492598680241366 0.2626692982736057 1.6650271239750358
Ni 1.4217043054190972 2.5216589051002223 3.830760517851104 1.4317576190197858 1.2527527889453716 0.28727758374058915
Ni 4.681281229808986 3.0150737656475215 10.073062483416235 -1.0213961847421185 -0.06492344014626238 0.5394629517637354
Ni 8.959028272620836 2.318394570561538 2.1780799795310806 -1.7986653529891927 0.4543203563571207 -0.7612439964634116
Ni 1.4156968568013488 0.9364965439065073 2.0072216712822604 0.875232826677757 -1.0890894743240342 0.4408328633936472
Ni 3.5164092161416054 0.4224068178855105 1.097102447921991 2.520244940983446 -0.3552387822719108 1.2907781191492091
Ni 6.110305380313094 4.782991956021791 10.167318428005846 1.8606577355315894 0.39585064225600214 -1.28999573245723
Ni 2.1779958752504323 0.6696253434031006 13.005715902473973 -1.4035199643303313 0.32163369262295577 -1.1984750014384133
Ni 0.2935997257380665 7.231267565699055 3.577752660311733 -0.1282579385388501 0.48070244589507544 -0.13968109277412719
Ni 7.381999072632688 9.24629522329293 9.113056482511317 0.09170482200516464 -0.04374320652422144 -0.2506630178413489
Ni 9.18111902690468 6.056044255951861 7.6689471664166105 -0.7884845773469195 1.4349560713524254 0.3412116147548833
Ni 2.017023978980698 5.398163936707891 6.655441600790616 1.6893376756959424 -0.6759615330448229 -0.21570552792955755
Ni 4.4705861434415795 6.6622327903972645 0.9686789082632187 -1.6626177432025944 0.7687436472745663 -0.2675297116897005
Ni 3.307895295733873 4.858528690718498 8.69627725764634 1.8138816557183148 -1.8873714973773497 -0.23115862925983413
Ni 5.124630937798832 1.6888047131928425 12.220545140802825 0.8124169197928008 -1.185727729075074 -0.1519948771444737
Ni 4.688148205690505 5.376324550425214 6.331580045807789 -0.3503076635188806 -1.380179746942494 -0.7346482482527542
P 2.592611494390155 7.549569920153303 13.638938879922112 -0.26513730019812404 -0.6434936423241047 -0.17419481028028067
Ni 8.043067960758385 4.635421291283958 2.1481314618373073 2.200592797566894 0.23679782982348246 -1.6891381580906262
P 2.2609541195472187 4.228319604030743 10.590562591806385 1.443638686728088 0.2992517253833298 -1.0276313670185526
Ni 6.708887560585564 1.155675996167904 2.3174749688115903 -0.1258207898522672 -0.41396817779231926 -0.040156517614227616
P 3.7552006775827906 7.621150980990938 9.752825730507071 -0.5826448864678482 0.2597760358862107 -0.12015099316099953
P 7.667177279631535 1.2416749336881359 11.179647457925626 -0.13641142088391991 -0.25968141928987537 -0.047277702040041156
P 0.8474975789688581 4.71499687989752 3.122490643824323 0.4346023091029031 0.08556888431075586 -0.15778577279463796
Ni 3.8606360219386002 2.2502238920930555 2.8573754667630276 -0.5420422824551375 -1.7150775036642074 -0.9122374289265645
Ni 0.6699515940741877 0.5576141533680175 10.885206689381075 -1.8643518965537247 4.359530381486847 -0.8508299723533604
Ni 7.381841954745762 6.9853411037457125 10.551956878543004 -0.4648510806851156 0.844970685359106 -0.4720653390453676
Ni 0.5879739502363903 1.0700744744793078 6.890486262740055 -0.1818798376293642 -0.30512206812117776 0.6587999336638718
Ni 8.791919536532356 5.615402520954323 11.645947468081001 0.7050183412014632 0.0734078234681897 0.222300664648572
Ni 8.520881939356824 3.360160098708286 4.272090798882522 -1.1516400433627456 -0.3558661314432645 0.2794804562936736
Ni 2.3338013657089025 8.540752730938607 11.198679979369519 1.105786989584373 -2.921054469906621 -0.7653911858625657
Ni 1.8653682491827952 6.277589718745785 11.321666315917795 -1.6663250168508528 -0.42242839274453053 1.1641029517164467
Ni 5.661373366223063 6.626262036519915 8.927169386266618 -0.6910207413707905 0.23829215498082185 -0.2586347231929159
Ni 0.2557583447834359 8.182745762235362 12.35783012928421 0.21525764175886153 -0.7581288478731976 0.6144386339396773
Ni 5.929120730001797 8.24883693925924 0.8238115954033718 0.7810450903497388 1.0353099666097332 1.4124051826351032
Ni 2.9062372811512023 7.705541770727342 2.685353561928093 -1.4199541986269546 1.1585226294151918 -0.29726066309522997
Ni 0.1856421771856671 7.900977937605668 9.908304970294456 -0.13293143275511943 -0.9963364135600131 -1.4927066478993325
Ni 5.731919297452716 3.5673431381914713 7.974967523227588 -0.6681520643027331 0.73352416195064 0.4499217130687929
Ni 7.179280029583922 2.173457940986871 0.03945137718418716 -1.4757911030909165 0.5783385457830104 0.1394656343292114
Ni 0.15079620253413245 4.290307231537265 9.63223313117725 0.6377320572499791 1.63129656449181 0.544340848681327
Ni 6.216618736389959 7.009592711704131 6.698782107787648 -1.579284690200893 -0.5195937236436342 0.762550373979661
Ni 0.9377719714591984 7.995424272105319 1.272299982518554 -0.6142630275937615 -0.4457639821466774 -0.054284986595809735
Ni 1.3518792680235734 2.211730009796251 9.097878894634292 0.665788449166563 -0.04871443448656772 0.31722425070135046
Ni 2.4339593975097356 6.087024206362158 4.315863842180032 -1.1758256394700137 -0.3141954911773557 0.3792971087726951
Ni 4.108050482703415 7.63214923307574 5.143022048574921 0.25147317244747014 0.49552099896514656 0.1585823005540043
Ni 5.676955763714639 1.4657157982155877 4.367955815478826 -0.6691740778093443 0.9628606504000707 0.382160032142787
Ni 4.883325590166836 8.852428407456047 8.435221267404915 1.0080971536403671 0.9234273841051128 -1.4982951977307035
Ni 3.4457708626255252 7.141497798892605 7.417873707332153 0.791790758902017 -0.39340912269404504 -0.1679413731714011
Ni 5.374956700586096 4.149917778454802 12.13167279439758 -1.0749365798624195 -1.5952309291175044 1.0907329234647278
P 8.584616348076816 9.255537451935622 3.0585889507658997 1.2452891335784746 -0.7645437502606058 0.10352109791380235
Ni 9.23495500874835 1.42305367080093 13.219698449569586 1.0750743909918647 -0.38278892397603753 -0.6783002084803287
P 6.510466153855649 6.452924038326262 2.0463273891152114 -0.1511081036641462 0.02970909702865851 -0.791730852198359
Ni 1.059667725027639 0.3714035791208249 4.677466037825284 -0.990183763695056 -1.057837715398604 -0.36283896321667186
P 3.0686694495464817 0.41898904173344365 4.24737707949197 1.9670463848011737 -0.1503722539393862 -1.6425988768785065
P 8.855672429709632 8.362682711679897 7.588854937221922 0.44248891093983145 -0.013489035625370318 -0.002047883667964215
P 5.883695176222974 1.3568238603474123 7.652782508520545 0.06230322891459592 0.6580016061322926 0.5034590228653006
Ni 4.931181850078686 8.809442802038896 3.012056177995683 -1.455001934259707 0.9549308540300327 -0.3979113814397728
