# total energy = -340860.7245160804 ev
CRYSTAL
PRIMVEC
9.42617289656963 0.00000000000000 0.00000000000000
0.00000000000000 9.42617289656963 0.00000000000000
0.00000000000000 0.00000000000000 13.79615684628332
PRIMCOORD
 96 1
Ni 9.157102655673459 4.038624865400849 5.806291477093419 1.0047300369403471 -0.2558026530607595 -2.715316080492104
Ni 2.9763894574119645 9.25046889683177 10.57072598908136 0.35246970416720586 1.5981033655692929 0.33828904179144964
Ni 9.067167541398707 4.790399847464436 0.9547713828551722 -0.38667514640432116 0.13568277024801148 -0.7892949890633568
Ni 2.0733903858074636 1.7567935214173436 12.816450378319091 -0.0732018781049707 -0.7320398640956296 -0.6549846736828397
Ni 3.959642963869757 2.561166547465116 8.263539182998738 1.7772182388590103 -0.24008010011918005 -0.6915827845218476
Ni 2.3015603235639546 8.324554799254946 12.826507162033558 -0.663826697454502 1.577861070380489 -0.08097560851311861
Ni 2.74193226242654 4.7905789447468194 6.466741927017866 -1.5702122955859796 -1.0219978228818591 -2.8057960289512325
Ni 1.937493253169468 1.769066398346987 7.427726100337192 -1.0977003559214966 0.5157740927872279 -0.11499541710198904
Ni 6.19408893740371 0.8832125923702345 13.273820534514416 1.6595216207757741 -1.4280009801908309 -0.575132380140887
Ni 4.455751862244617 2.286271071352064 13.019322353630283 -0.2963844311378637 0.45610830149547893 0.14280858265951535
Ni 3.9757711454570224 4.542595191855066 12.609383756131022 1.1492962257209174 1.2603262304172553 -0.07452008269576198
Ni 6.575509591843875 -0.001542121863048909 10.136629053423125 1.3112690400137093 -1.474535119196628 -1.2808099521929037
Ni 6.979496503864353 0.3685888054660304 5.362359272780506 -0.7559835193954207 2.172909986939645 1.2845020563325102
Ni 4.016718439913529 5.3055307624629675 9.904025986619006 -0.15170177138408714 -0.11474884830882173 1.300586620599199
Ni 7.6166209466842725 8.334188347812622 7.979876423604379 -0.8179769303790816 1.7013413850250376 -1.086063800123833
Ni 9.017435053932655 4.338245192655572 3.2774284236666196 0.18396577362411543 0.23587917466395505 0.47385122730119683
Ni 0.14455130184621837 7.633833138138596 8.753702994215743 -0.37285186736798365 -2.131311851782884 0.7271812504517475
Ni 8.948878499470828 6.64464114284388 3.594919831851381 -0.6609614600915649 -0.4761690768010961 1.4287957081779843
Ni 5.362898449862207 5.619997311810001 6.400892569371858 0.5516345541292629 -0.2511677253919094 0.7067548642765957
Ni 7.568858529324438 1.120866202537566 2.4925930258923272 -0.3572640402320557 1.6544349502814863 -1.9184340231101091
Ni 8.754001803892143 7.2852155648928685 11.327251762214484 1.2582858029484587 0.7497154269985218 -1.7452753674038266
Ni 9.265974951017071 1.4710862251519863 5.934127346789609 1.0216057296497632 0.11516202458684037 0.2761894442472275
Ni 7.164862191131204 4.128889895722099 13.075541933187719 0.4737684377794035 -0.3029643983482266 0.7342037045161679
Ni 0.6960050309466616 2.1913589378616023 10.906014011431381 0.19674904143171276 1.1638502122756924 -1.439401508718289
P 1.0176967417119527 8.282410380858298 4.242276385199048 0.6292970391087485 -1.5825371356999196 1.2052611711223113
P 8.003037472685659 2.33877485360868 0.49583836721673363 0.40795745282186513 -1.3975604043127867 -1.1287682809708945
P 7.051898936811043 5.318604864076958 4.744608442828095 0.036160251970640954 -0.07083800585848445 -0.22633601106021017
P 3.983208395762313 4.6271762400038305 7.965610853753901 1.8470440014028964 1.0104270873251242 1.1343226351302207
P 5.202757200893149 1.446427357219615 6.438542588597957 0.4299398706302273 -0.5957634261276772 0.9593413243929028
P 6.220058043349307 2.8365993154253184 11.63836919238095 0.7158036047424253 -1.5958935024021677 2.804285762954293
P 5.169492237233617 9.043705797406476 11.596814852398891 -0.6881549897872212 0.7670950559275498 -0.002403724345486183
P 1.5245420508570617 5.17232951523348 1.803736804364592 0.785454275161028 0.7283529021623456 2.063535258458543
Ni 1.1859633515975645 6.290151063970527 12.404745316045162 0.7552787800189121 -1.0830499529981734 0.09364086268561292
Ni 8.119846605490684 8.817402241855877 3.6752270532721116 0.43264081450115816 0.11427268000335158 1.94793974587871
Ni 8.058425663805924 1.0075636059981534 11.767431407152827 -0.04856839582700668 0.47819536320250544 0.057403477620133404
Ni 2.1006885821118013 9.333758559312821 6.0520016371161764 -0.2772888479589934 -0.37488792396140597 -1.4026187926723006
Ni 0.1335009995231607 3.0996083876917653 12.896509691396313 -1.0056070402286617 0.5847007405556124 1.0195244216407022
Ni 5.367781207350346 5.4869940142084115 0.6889787617735768 -0.08398277077055859 0.39542743867565444 -0.40977136610215237
Ni 0.7135009502009713 0.24138071887545803 9.617521236138405 0.43715027233573744 0.2064752675805412 -1.9804585444420215
Ni 4.546931231323297 6.664945118962507 4.495932808855978 0.19632069564504254 0.24500916198968128 -0.22906266596275388
Ni 4.585276902098865 7.53023007336616 9.97758783881481 1.5204236541986267 0.5238728106349623 0.12374385271858043
Ni 1.3760326990701697 0.5888784627976502 3.236109738003486 0.8827713011466474 1.6611866671830227 0.8325918520787791
Ni 1.1580053232002352 7.380561302330153 2.248359947140594 0.3931540692604455 0.5089035909196397 -1.4913665889316703
Ni 5.549140771195462 9.332608566236464 3.270103344817137 0.2009165425458411 -0.6174254844821431 0.2587817902937414
Ni 4.731203482550333 7.812119769664922 13.154663342075615 -0.8113704808061575 -0.7371429896501498 1.0439961815298213
Ni 5.142769037467457 4.778306067817176 3.1254502403051427 -0.14856631107889898 -1.3155273010694313 0.3203589396755902
Ni 3.2914687079882046 7.123971453711239 6.616816023482425 0.5834614688318727 0.19905223564359267 -0.028831836630027762
Ni 4.534337864519915 9.102261182573102 5.366966786024139 0.7663013563816609 -1.8077570308778155 2.004927219007347
Ni 2.1563878369330483 4.178631809360907 13.807055356910084 -1.2012196540630862 -0.08435532361862892 0.3219111146540585
Ni 7.1263939801097935 3.2271068004032535 6.639083471386338 -0.92843640728393 -0.19974411950429471 -0.7586926907964675
Ni 3.741332802817112 1.3873441063785967 4.26241917376353 -1.243440253295194 0.21023807705708308 -1.4857356158981379
Ni 5.279128052570548 1.4146045979919064 1.5042229928620239 -2.0968199886536016 -0.12008825824386414 -1.538903715280685
Ni 2.4252882671726343 2.071382611010218 1.305405214453626 2.2997797868817167 2.7125511161524574 0.3171520027025183
Ni 3.337100810304951 3.1745087564190673 10.920679251006757 -0.9718659392224747 -0.12179701340485476 -0.04450168195680078
Ni 4.810383333709324 3.119657857145952 5.247754921783349 0.4647317814984319 2.003091194239873 -0.1824526794136987
Ni 5.997081926781936 5.485655497676914 11.620171965873515 -0.49720789974926627 0.6681464078757783 -0.266298924606393
P 7.5050904706231805 4.133178804326544 8.531929657292169 -0.29037961970468057 0.8031655763978619 0.7581820697086362
P 1.932506807781003 8.197508842835795 7.873162721822125 0.6017003604374025 0.6950915690060545 0.4570097302638258
P 5.642874633091295 7.534707505425746 7.7714854241439495 -0.29104270720997616 -0.8663216402310563 0.1015467477962509
P 2.4684130075360127 1.8052629017339539 9.50500006932055 -1.025424332064905 -0.6497103126577778 1.3515474279177822
P 3.411039709411037 6.477034365051259 11.896094894817084 0.23523948419742716 0.6437607799425623 0.1852343559238939
P 8.54340225215474 8.307512278910249 1.8284182951115802 0.18001424517553513 -0.7777875026443896 -2.77087247760117
P 1.9861982878050042 2.3841807277792584 5.313175388568913 -0.48168512152331877 -0.2491314116881709 -0.4638257247443947
P 5.690439100823232 2.3663181304047005 3.2288666668569896 0.9738174065218906 1.0606690141998119 2.4144784986788936
Ni 8.225938179870974 4.436324520192393 10.716868428888963 0.15819894907265658 0.12153064711734551 -0.24194594968332525
Ni 1.9277088858476783 4.16741466378005 8.97177844356674 0.06288969754568524 0.094532778372263 0.36392448297136676
Ni 8.774447172602125 8.551866955290548 13.520467656109222 0.5096494679467287 -0.024883907725873275 -0.8197180814399044
Ni 9.375497652280917 3.368951848050931 7.8496821254843825 0.07859450987545175 -1.1741374531343134 1.6896505789506706
Ni 5.72773846642277 3.6573267512065253 9.948863462572335 0.01999238396152686 1.9814206512449744 -3.4681857368488918
Ni 7.0881048663707675 3.700046166141352 1.740109195637413 -1.377960627803988 0.11495453656172461 1.5384054354880279
Ni 7.079630737062204 7.539316903903929 5.331083231572705 -2.1035423949790997 -2.350958109527745 0.5305659063844217
Ni 6.987970633172917 6.814745856417111 9.772727883669162 -0.2293999946975146 -0.4616230606661211 -0.6254259861891165
Ni 2.2853755849401467 7.103290430682331 10.057494447893367 -1.1987058865022968 -0.48944213976091844 -0.4964180568581193
Ni 8.169984418385289 5.829984162318195 6.968673372304739 -0.4763631950897731 0.7205442047512043 0.6482445267455288
Ni 2.948629378642533 6.80847745153369 0.7479630378006462 0.42682163671621975 -0.9346913870547063 0.49120411675734765
Ni 1.9185749244461234 5.792995860419638 4.1284581770098265 -0.28789387716834935 0.41666577922914044 0.02522920688043397
Ni 6.3500261133231355 8.35673575304742 1.1919640531746851 0.5669668136109591 0.02408789418713916 -0.3499867898443521
Ni 2.8054835191543863 3.5221271553525493 3.503230506826546 -0.6855540618292645 0.06370499435812899 -0.11627942602073524
Ni 4.883455024921764 1.5321018414081937 10.430970723933914 -0.9553936525990643 -0.9960281382909749 0.4626838978304677
Ni 6.926314037169231 7.625896300677183 12.479147982850893 -1.3080880711825664 0.1213180168859072 0.14560542867836213
Ni 6.305977608029568 1.6500515411168188 8.38058585535724 -0.8918233840465867 0.18552000548511277 -0.8040307526116346
Ni 6.940971735806401 6.19541802776245 2.353361855950173 1.6173478156212016 0.054449537198132024 0.6046033930168103
Ni 8.00930587756908 2.489301406365575 4.316679052004781 -1.2434831907179875 0.12725032320994212 -0.6081553720341268
Ni 0.6639862073256069 0.6465817219470402 1.084754534705412 -0.009283225074138852 -4.8682519383026674 -2.7395680110609337
Ni 0.28523787286205743 2.469299067775173 1.8366963600267974 -1.8369493361710556 4.379653120378651 2.0896358122003367
Ni 3.2591840662954015 8.257808069962469 3.3102776931075675 -0.16776422416358847 0.31288757099920955 -0.32351496880606867
Ni 9.013249833228537 8.493594355306634 5.7996007796704845 1.361343330962281 0.03410054122813482 1.9078940428107334
Ni 4.30323638703599 9.250450044486254 8.191398797654692 -0.5377462261829448 0.3939590816602441 -0.5411814771167389
P 0.6374213672617656 0.18583511067015057 11.699485668685657 1.0356475524548099 -1.0995559210729966 2.5401902737571223
P 0.5493846841802766 5.789376210080941 10.169754509725854 -0.028949850265130785 -0.741689985590884 -0.554032107827162
P 0.8635882433073891 5.811197800013449 6.197440884436108 0.06257756562190513 0.6251933013530201 -0.19657343508579692
P 4.958515638585935 6.984850569990342 2.3446153102489316 -1.2330725369076247 0.7613080169321276 -0.32488279568787276
P 2.9379495249088263 0.1585331438967101 1.4736501441418963 0.3390467458930806 -2.807356945680449 -0.06216953155020906
P 8.56835333144258 5.797030262359644 12.893653561050932 -1.020875793462274 0.3179279616365944 -0.30289626411445253
P 8.19562360828439 1.0800131698086295 8.879427401214361 1.8860170402319842 -1.0301780446998063 0.4120635045704388
P 4.151955740458533 3.7157030390907666 0.9770755928328392 0.04768470767047272 -0.7529082229042066 0.31866921067799314
