# total energy = -340862.00756956503 ev
CRYSTAL
PRIMVEC
9.32731141276820 0.00000000000000 0.00000000000000

0.00000000000000 9.32731141276820 0.00000000000000

0.00000000000000 0.00000000000000 13.65146307167461

PRIMCOORD
 96 1
Ni 0.9229318608824105 4.514446671355959 4.0075781874963665 -0.09171150687338399 -0.6447164589876122 0.29594014451159356
Ni 7.185387565254299 0.3958007258639339 9.78581958179558 -0.039168442669345445 -0.05924387326298185 -0.1465906754097669
Ni 4.379368548504289 0.8613287003944846 1.041758076452162 -1.1776984310126943 2.281649652939909 2.4035227709983378
Ni 5.891754773328687 8.761180852580123 0.5891223116582205 0.4306741776930906 -1.4646708248080387 -0.6943919718358686
Ni 8.184575792742573 6.836648721496455 6.955420838660423 -0.3740124633349881 0.5634228050134426 0.6380583302411463
Ni 6.484272226315316 1.7370531731138739 0.3243124808159887 -0.34976978873753956 -0.4347671168155416 -0.3465947334436676
Ni 1.5095413948651553 7.162125250767898 8.051578593051254 -0.18268716402200796 -1.1014508241028644 -0.6230718841346431
Ni 6.532541062509031 2.8012527606543602 9.243091316751379 0.9048663332734739 0.6353686992241251 1.4508884263119657
Ni 2.667667007617375 3.0453391711574236 12.910652629325599 1.3140098359836403 1.8974479077767452 -0.6648222285985518
Ni 1.939259955692341 1.0777801528541195 5.46233282100217 -0.3398949528259888 0.1429790467991086 0.007266708864742325
Ni 0.09306697983715519 1.6693555473952284 9.98186754069507 -0.8016869349698064 -0.11267242539576725 1.6481156929316778
Ni 3.726447427268287 7.10824137314643 13.443701010659302 0.40291269130910606 -0.6735495811692206 -2.171728307926718
Ni 3.9158944479311977 2.3392617025846127 5.733177422282534 0.2205649129043879 -0.45604865190213717 -0.11907601492926591
Ni 8.133247598428753 3.1820589008052473 13.60607177922816 1.601514705243687 -0.24074473028637253 -1.1795123442929816
Ni 5.129657472837141 6.8776888914002905 4.524368132430212 0.4628114245472674 0.1964965591012745 -0.11927527542426557
Ni 6.648078468099671 7.7766458312097875 11.586255566401393 0.9149484000998243 1.0916448937560361 0.042894999591313224
Ni 4.570531794454087 3.967642371255398 0.8164242254017491 0.8946683096945495 0.23994974518890286 2.6791015782447603
Ni 1.4796100527693805 2.060981368702581 8.196079165820391 -0.8750258528732737 1.729516304797357 -1.2521172122439015
Ni 3.067025170027064 0.638986118091381 7.420334143373551 1.2764339346123954 -1.2665027915416125 -0.11469254114958957
Ni 7.073842248917941 4.5062106554411665 11.52902878039503 0.8656333559147802 0.3827303028239602 -0.2372531721933462
Ni 5.228872083579664 3.289574818641955 12.62682534338861 0.8468923278618512 -0.9060369565428075 -2.370807025932872
Ni 5.513877408939119 4.239729370406487 5.021267585927707 -0.15316524330349107 -0.18844746354455286 -0.15517944552004242
Ni 2.2901160991247695 3.054134825752723 10.53028826385116 -1.283941041622718 -0.03615588109526676 -1.463383473455183
Ni 0.6249783619182945 9.009082133421975 12.827160134580783 -0.37502470664958637 0.6135120083603498 0.13013535806722104
P 0.780127926046343 5.038762823811486 1.8671374534731549 0.05632489984397396 0.4107329586844733 0.07526133173716071
P 0.7705413154492606 6.52782144297009 5.96724536767339 0.2754926752905191 0.8232114393051435 -1.0902295014657482
P 8.946701075168145 8.661425257779777 2.90672413184495 -0.08695548024563733 0.6984363171085713 -0.7131422558601783
P 4.081342296511706 9.315726821094362 5.180443750362003 -0.453163102824226 0.7136950430398548 0.3288140124214789
P 3.60678735006458 2.6200137739722167 8.31531111943351 -0.21087211109665618 0.6977608883081015 -0.2901399928900487
P 6.792940940548869 4.689165867410198 0.4368539540036481 -0.2999466945678254 -3.6866215192254184 1.7215435710045257
P 0.348695005394538 2.6781602328768788 5.776439357747981 1.6207768959074085 -0.8985154513547816 -0.08316978795095999
P 3.1799136191966375 3.7708174473211384 4.109827905349505 0.06711016338493604 0.8444942599433198 1.1346036567057491
Ni 2.1783469273162095 0.9543238599343081 11.322154611221135 -0.24337599726163245 -1.349221607998083 0.37926908374823715
Ni 9.042278034487373 1.001482746078352 1.1518380721767254 0.49105473566367686 0.10531804191322507 -0.3719388686354111
Ni 0.9186105175377633 4.595612934652136 6.67572928257238 -0.3491362689185987 -0.8086636233979557 0.4639715062936396
Ni 2.3819154973505765 7.977108406567341 5.580335434980442 3.4648317327749942 -0.18565241729791898 2.029040567115783
Ni 5.499457385604726 6.103969760976884 6.7905923235530095 0.7687104800437858 -0.6310572163329647 1.2087756120334732
Ni 8.506591889506215 3.464676434461207 2.294565226634799 0.9331916625807284 0.16465833154475512 -0.23096502519178935
Ni 7.323851502123036 1.9309120120414471 11.626077589443993 0.040931705217355306 -0.31031158274191717 0.038391455294004846
Ni 6.584997861495207 4.934371555274275 2.824501084173749 -0.5027437419658309 0.4532227524175678 -0.330975795959488
Ni 8.689351227937069 6.501621025411028 3.4599362948373145 0.41770116247219025 -0.6539428626818867 0.5491123019280414
Ni 6.9006340773010715 7.810317425153616 2.514463120635222 -0.4406238327066347 -1.3010458196238044 0.25346269207367317
Ni 0.5499196220887156 1.6792331701061742 3.74338116100929 0.9179496488199934 0.2704276020627859 -2.4800094905021677
Ni 8.303834795558583 7.945684694656881 0.5613399820955921 1.4791762175130654 -0.7754832799912451 1.262934871684696
Ni 4.9358452704662765 5.1586654111100785 9.388780188985459 0.4376858331242333 0.4283969516231396 0.2091867529744333
Ni 7.12950764300569 0.9625598758491005 2.454451199462204 -0.2433122339032326 -0.8079655688896665 0.6404366006653357
Ni 6.594530373686507 6.536234677800377 13.533623753843143 -0.2446484362161529 1.3668061538490655 -1.3381946607599597
Ni 6.118016691857607 7.607149929506946 9.436778533150264 -0.7928536529488925 0.312098756549327 -1.685474850306426
Ni 1.3627388416568664 7.158207780004349 0.9612512540678487 -0.7616414890121463 0.08489731216502798 -1.231199488254628
Ni 3.921584107849684 5.812547245414284 2.78665924932901 -0.4552804062775449 -1.3550287015981632 0.10854709037348403
Ni 2.7000234506620124 5.171891538592724 0.8175518973429704 -1.2298028650174175 -0.15023418569962513 -0.6405175904149163
Ni 4.654785397804393 2.5270577891400285 3.1736372713947536 1.3528172957691411 0.3976316454158249 -1.2726497849796146
Ni 7.951178481037191 3.9633144987928115 5.621563083842247 -0.20074376441340266 -0.8002214061678734 -0.5672236668167715
Ni 3.996417126744792 8.129376764221913 8.59142565162198 0.3106262857688586 0.5181510776598366 0.8863718740137121
Ni 4.438102628023483 8.47367580778107 11.266797951138802 -0.6394138158277762 1.121069112554424 -0.15099626067663027
Ni 2.1232411719089685 1.3110468822007169 0.4533026675548786 -1.33790309766147 -1.9182224213199353 0.798496967277599
P 7.555215459955909 0.022480685795960215 12.924481301120926 0.10784440787950461 1.4516921531601839 -0.8894664537786359
P 2.4975275214319503 0.48936578412674014 2.5022583337445017 -0.2800437849963113 0.9208236279336787 -0.05660617852981864
P 6.266460851862049 2.9915485666493735 6.747631660243901 -0.8774028377458826 -0.3751733164123087 0.7887769117763577
P 8.930751372773699 3.580670878307594 9.067001005929898 1.7522376576542726 -1.494169348487788 0.8634890558782676
P 6.958510044176822 2.751305008419124 3.51589363377006 -0.26661979828092147 1.8718564324608857 0.2964975596769603
P 1.5423362215428567 7.157116484577362 12.233130724425651 0.6493480442223526 -1.0999351587892863 0.12023506823437356
P 1.5765021629878 0.12523594392382317 9.156350119466218 -0.12646845073859508 -1.0646030591468956 0.38260560432063784
P 7.52096557270889 9.127277822745022 6.767426080373427 0.7974384441060975 0.23803041667900293 0.8379649434652342
Ni 8.78153304592789 6.593560333306962 11.739165643076278 -0.8164098430022779 -0.44330497908322364 -0.5879254181404971
Ni 8.274817529974301 2.1016577734640873 7.535430367137724 -0.3121254960222044 -0.46399258933956217 -0.5144695150431914
Ni 3.564058936807882 8.05000134470336 1.748151740879459 -0.7669587874600017 -0.03767745994611576 0.03179503302340976
Ni 0.35582573491532943 8.944649066672953 7.165216321746564 -0.42602665161875014 1.6174887120744401 1.062340488364964
Ni 2.84000773927946 3.0409553348267866 2.108795964833952 -2.716554837995212 0.10535943667412177 -1.1678351650653693
Ni 5.417237136126928 1.184587195028852 8.153677208460655 -0.6394451832863439 -0.9224243967618954 -0.7144339780884083
Ni 5.528017612933259 8.523082575958483 6.578844634203034 -1.1750553369628924 -0.1877884898043153 1.4201298049728703
Ni 4.913245195085141 9.025460892138142 3.2020594545154277 0.21344655669205176 0.9063789132632583 0.29315409712602414
Ni 3.8615535320539824 4.3043023468256365 6.894329747565161 -0.18468156874421743 1.2762680984584922 0.5816231300715532
Ni 0.5047502514538734 8.527000046722032 4.935331335611344 -3.805835602394445 0.22416522866113653 -2.236762819729548
Ni 6.82169704141558 8.618370388626117 4.682424086772358 1.1433099262304955 -1.1884842087742886 -0.21398443147339277
Ni 2.2668351300156844 7.57313322504347 10.138231520759819 0.4901029132733688 0.04025601930656938 1.8448436513174677
Ni 2.239813909058545 4.535069356732636 8.709210006514855 0.4044532963233486 0.7475130200305642 0.11995019000410308
Ni 7.413132526286562 4.595034641348946 8.119889955856188 -0.8655837336237673 1.1460828609899423 -2.069686108551287
Ni 5.810401963805674 1.419821987068565 4.617798877409696 1.1130508702356379 -1.1495368809768136 2.9453287690729533
Ni 8.289927774347987 1.0350797215314467 5.1468066674701385 -0.7051085869224243 0.9823565543411532 0.7738817398320801
Ni 1.8780448113562331 7.5797462887847935 3.153815802062335 -0.8320748032330444 0.09723397935350996 0.9556024261757607
Ni 0.24176390997895972 5.5124036937471175 9.684115511655937 -0.017217906540183254 1.0540309400580041 -0.9724279823735317
Ni 2.842442167539665 5.850901149651687 4.796018613410505 -0.17806483475864818 -1.180979158646495 1.395359540006726
Ni 4.388033620740803 2.921500458472599 10.44629022883162 0.22690782440328017 3.1110492233336355 -1.103077818183326
Ni 0.022393941800481654 8.407880953576148 10.552799729774549 -0.04035346411638211 1.2977568644598876 -1.376164969356146
Ni 0.8718750913286363 4.3231808249814 11.528769481139728 -1.259737704903637 0.12535927683481637 1.2966404914672571
Ni 3.073162540889956 5.391885503899967 11.688519275221543 0.6009665675951714 0.13133323503006414 -0.18356442442063872
Ni 9.270685234624903 5.327060690074591 13.451359666002038 0.0398289590714798 -0.28214951848540437 2.0845365433005587
P 5.429474568607344 5.875525251593988 11.561246246500675 -2.1074769541468155 0.33756759024439287 -0.354217540096248
P 5.2240778455499886 6.6982967123638195 1.4963096709957049 0.8541004155745161 0.345723643692624 -0.0846376307457381
P 0.6225569918939682 2.306140420009949 12.558868418414663 -0.1148815172319441 -0.7554937242431956 -0.20630068967588985
P 4.007414026816751 1.0896538201922066 12.713716710386372 -0.45257817685503343 0.22156815735792162 -1.3198848067071784
P 3.4631281007784716 6.7041729185091405 7.217378377694339 0.15548720656844833 -1.6696972757571953 -1.0763234329076175
P 7.417908109693554 6.032308027937982 9.64961845065836 0.48728678398081243 0.2688893110413885 1.4329688657190676
P 5.331547126829986 1.257498787787553 10.665819694034042 2.8454645511854477 -3.5953082762317177 -0.0068820718318139545
P 7.144748469738159 5.886718025204125 5.298187065084973 -1.1486778754106282 1.4234033335178196 -1.6418938803916818
