# total energy = -381180.57166095264 ev
CRYSTAL
PRIMVEC
9.12347946555422 0.00000000000000 0.00000000000000
0.00000000000000 9.12347946555422 0.00000000000000
0.00000000000000 0.00000000000000 13.35313441328338
PRIMCOORD
 96 1
Ni 4.999639209476393 1.7805199459905694 9.198666664535772 0.4381553165614841 0.016020029577340153 0.03586766043088662
Ni 5.184490020745801 6.06288034735337 10.63885620444869 -0.7952733181339788 -0.6086482525101453 -1.305519539124442
Ni 1.3519171419920402 7.9585386003485254 4.166297885919263 -0.10575795766412109 0.27483730109470733 -0.5709273409206038
Ni 2.244321132590025 7.811103177116029 6.652691378724977 0.8297073314421323 0.803411630970397 0.3481047423302908
Ni 7.004633236730103 0.19126005537960677 3.223526816268226 -0.21812030801863724 -0.1812298627501911 0.18416914788417316
Ni 2.4891314489017566 0.6375770065160207 2.761481899407153 0.676351826504706 0.02319135051479877 0.5891541483412757
Ni 0.826070823014186 8.925262452187347 0.010123412476409554 0.28408093118016237 0.7475659847556868 0.06425469621401193
Ni 8.728706217155112 3.9976713576408436 2.3404835152888395 -0.5888515294991924 1.5433414393370646 -0.7403812940817894
Ni 6.502887500302433 5.744142479404701 1.9394892715776777 1.045926822893631 -0.21911558205237103 0.04476599136178097
Ni 4.585789071280274 7.46931027732896 12.378715540864984 -0.40902343219253423 0.5979843450383959 0.376931436753996
Ni 2.3498524160386816 7.942289683963805 11.233257258185906 -0.3473598937444663 1.7866498165855553 -0.4513977833936871
Ni 3.9750086354063434 5.687859736464027 1.1724665180376899 0.27877160315210703 0.2281239561985684 -1.0940933552965286
Ni 0.6093854559103018 6.4863740030220605 5.902152014984131 -1.0916328095711778 -0.7829775314857613 0.23564109051121995
Ni 7.972178201693363 2.6325890352203074 3.948748525338887 0.38638718285025714 -1.424837751971501 0.12042018766198614
Ni 5.525188103033617 7.821522190317236 1.4201187981078944 -1.002698351222299 -0.03558381064188066 0.008528092075669184
Ni 8.448241344284432 4.67569183492712 8.959912513690732 -0.23644018937374767 -0.6729973082101764 0.44241023518309613
Ni 9.219640630777677 6.428750108644804 1.3080733505386932 -1.25857196673031 0.7225789757930459 -0.2177266721246444
Ni 3.3254716600589194 5.571152191043848 7.322778990881262 0.174899292546473 0.17206773663494881 -0.008394908931914575
Ni 1.896743947015246 2.9678951413243126 5.89957463212131 -0.31103817649529664 1.0967179374035692 -0.8110534637863709
Ni 7.116642190382662 1.9621684160746666 1.4362764797010101 1.200603874855958 -0.3048410465456492 -0.49866108725602504
Ni 7.051400190906452 0.7717852096617306 5.7338758283054725 -0.9176100060923874 0.8860923951000805 0.221612894552928
Ni 3.3345221513860626 7.029321371338218 9.350158386602994 -0.8882588066237799 -1.889901462888055 -1.3027969979869563
Ni 1.3203681510552843 3.355579141288328 9.222996246412883 -0.3072103181087742 0.720107888544734 -0.2849031699711416
Ni 7.550189920086143 4.787646047704717 11.604407689215396 0.6909140405895972 0.8828512624549634 0.23305456073096636
P 1.897336973160674 0.9502924658708929 6.821061537238989 -1.0059569673689126 -0.2675680211268037 0.265379241005601
Ni 0.1322092488616605 4.415043158792887 4.7370244235830885 0.6886432422775495 -0.7507960616572101 0.7006227832369288
P 1.7901817104214612 7.6620346511138155 1.756244192640506 -0.5532160396837699 -0.13362665904993115 1.0708526396010332
Ni 6.754841500796779 6.755899824379388 13.011213506532396 -0.6415923115363337 -0.5182585497719784 0.18693694043729742
P 4.815892339185399 0.09305127630510876 4.111056131950796 1.0862985418424584 -0.6179422762175616 -0.6262842204243537
P 2.156051471712896 1.8403334753663274 0.9790514968803902 0.16426932363645258 0.3468958096238542 0.04715686019146072
P 5.594517421173701 0.7242756042817242 13.432184520213228 0.4713672845370785 -0.3624018756792533 -0.64379214740113
Ni 3.139881846977518 6.340635546913403 4.965923392239036 -0.026347122534961076 -0.2424285457466986 0.6237766235111515
Ni 5.051533558940901 1.744363598077798 6.769023949151663 0.32809564619821563 0.6066296794182198 -1.0254155903141566
Ni 7.770658793997856 0.8348841038831584 12.233153167904124 0.631693564365383 -0.8485671444611128 0.6692031312750668
Ni 7.765221200418242 5.001856214912377 6.597449624756508 -0.8080684130161181 0.1743822437007384 -0.2858987011151915
Ni 5.725640063667354 2.3117345201064188 4.076524675676496 -1.4902815833976075 -0.6854108513831808 0.05900296089676935
Ni 1.2957165103638113 5.677878650262521 3.1311360798543326 1.2523275284824948 0.5387967789346463 -0.1520727815702607
Ni 8.218293175525035 6.330399003295404 3.8482935456950917 -0.4437973453386099 1.1521534926640544 0.009972794941995728
Ni 1.2507195111445861 5.265314922628021 10.645893143925127 1.9932135301148446 -0.1323753031413333 0.8780489559703136
Ni 8.584609987295332 2.8336248985203114 10.848660643569781 0.5551070860588955 -0.6654431500120023 -0.37923951606188233
Ni 2.0754729037680066 6.658871623508249 12.985362128331328 0.5450936676869516 -0.7632486855982662 1.3626499655888469
Ni 4.735067437303177 8.100527306522247 6.00682751608754 -0.060340191650954146 -0.3895738081083549 0.2893601773012307
Ni 7.512181505903805 8.633794663449192 0.8748394685183313 1.5203984573876461 0.48442437483135287 -0.23247580540936094
Ni 8.382616158683483 7.278127771522217 8.208051157819542 0.16478817225440007 -1.6420471181400944 2.081818115928131
Ni 6.474841925363282 4.680052857965804 4.459105913746084 0.8275658596190973 0.13110852061376777 -0.37409602418772997
Ni 4.471636100025015 8.707977672502622 10.032970515144328 1.6470191174333892 0.8450200505398028 0.9927623230555096
Ni 0.49269706979635947 1.2661108204882263 8.643870633833968 -0.8949966395682457 2.278538103894121 -0.6641933367653012
Ni 6.684910033032107 7.7615535617957505 10.53745238297221 -0.3286337780898727 -0.6590971531893165 0.3806271404380283
Ni 5.500837537154439 5.655617361111079 6.4296679306483435 -0.3084282496762753 1.9011420687988805 -1.1203098657908965
Ni 7.048435060179313 2.375808714250096 7.910436881171007 0.1804770437445666 0.9349148159194222 1.6072783472003416
Ni 3.45632059817776 4.5405913555195205 9.575211808792822 -0.6560529670463541 0.8739238780583466 -0.3188106213518638
Ni 6.206347057151081 3.805667738709662 9.984244749992236 0.47104512531096937 -0.4379660833688135 -0.02724083799382405
Ni 4.5133212763090045 5.188175906326613 3.367727053790436 -0.6180708313756259 -0.34089074108035483 0.11010877843364908
Ni 6.997297959485121 9.201849846414847 8.381041446180394 -1.1902631550515823 -0.34935635534920484 -0.46261524937606135
Ni 0.3911180775199998 2.6977489233840752 13.351170762312387 -1.0295481244252913 -1.2781465464281276 0.6562103185598247
Ni 7.1299442229985655 7.589950042267284 6.260470272574481 -0.47343959368507493 -1.5616656915675493 -0.21695174163183284
P 6.95155283497474 1.4747830358455076 10.167129451502571 -0.17433750650573202 0.21450070898817897 0.28751206834889836
Ni 3.3190487307299787 8.726918015239669 0.7359381476924979 0.21625728666796948 0.18875676725485557 -0.8601741325724218
P 6.627906535237761 3.0787545366026583 5.920686362898539 -0.10626317943531376 0.3453724310007923 -0.22548806123761808
Ni 3.7222243983083985 7.522773865209062 2.9476510534152416 -1.0948374325514048 0.34832560009184527 -0.22213431427403682
P 7.604748325465496 4.198424393086874 0.584075100023446 -0.8593148698959201 0.14281192509362503 -1.5255974850900824
P 8.650317284208725 6.301486697836012 10.354407108228653 -1.6948012699136745 1.3008624999684049 -1.970406816632974
P 8.353986681078064 8.542970428407143 4.771741998832261 1.282405835925114 -1.0059847352830547 -1.8201926855380073
Ni -0.3707626831651716 7.208953552527862 12.174947195556433 0.9910823642499255 1.0477155393629374 0.44379760244892597
Ni 3.712398411252619 0.24052045641049907 7.776183972977411 -0.24315179706596832 -1.0724225551913145 1.25169426577387
Ni 6.426104299688281 5.8189550085202 8.522664300839782 0.39111081357817157 -0.16898524105488316 0.9799042361459188
Ni 3.7606433690529557 2.926948966852317 2.7474737095042334 -1.245313816168823 0.27752641789109617 0.7218595811285181
Ni 4.1427164293333085 3.9639144847472645 5.73477084161111 -0.30593505094077633 -1.0047122963285342 -1.559512135559656
Ni 5.064224318453055 3.9291996465418406 7.9098621019839 0.16492675471479337 -0.357974436035519 0.17253927695472865
Ni 2.9950648622640634 2.570494636054443 7.926126528283193 1.135792534807528 0.2734504480495097 -0.34567710672540464
Ni 5.811510249525291 7.1518132025461085 3.9467459216631733 0.691897487548789 0.002959596848956193 0.45570386696820875
Ni 8.776066197476888 2.301780804342393 6.448615572168718 0.7597170182959239 0.21873557300513297 -0.5011838536778787
Ni 5.598258047629476 3.5871604128174406 1.8133827179264266 1.2006748373032097 1.161188349172813 -0.6597286161257283
Ni 2.754341864616203 1.2808452393323153 9.900107112826865 -0.7653179094224689 -0.0003956927765218992 0.2985169040998343
Ni 1.5108299020083538 2.935798741637931 2.9539672380380053 -1.5185752881359782 -1.155685674187029 0.7648396842344699
Ni 0.42569150179843707 5.002029561016426 12.860843972401906 -0.9406630312571092 -0.8434159392774764 -0.2196729972177378
Ni 9.135430918126938 8.858314362108135 6.8074675532899525 0.446542769294231 1.030755000249199 -0.8523816331111966
Ni 1.9485470616881493 4.279942679385288 1.0620550855861208 0.9853722012390256 -0.12508751123066844 -0.2375611903520683
Ni 3.757778596596582 0.8861452838939322 12.08295697987768 0.4695428297338301 -0.5871301759327113 0.061536011731268214
Ni 1.3836577259911649 6.1068007760316645 8.37875783934654 -0.9100445350403036 -0.8025415696606178 -0.3350178272393456
Ni 8.51936798781912 -0.1540006788363399 10.225950346345675 1.2085231297030348 0.21618246756597606 0.09009222610240614
Ni 3.9722168507832527 2.8274391796495424 0.15407275432170722 -0.4401448361876872 0.17019751619542944 0.3277513754849194
Ni 6.2947444467364555 2.5633691988301495 12.21189546146033 -0.322082093014284 0.3711055741008383 0.5332393394515269
Ni 4.232993255625732 3.0975762741106188 11.056421423358934 0.6538888695154996 -0.48174862777140254 0.7855514628605245
Ni 1.2829436395392135 8.439309458186376 9.015662445448434 1.9336343849996314 -1.8083802662841113 -0.2208366785085358
Ni 5.459353077411977 4.830918709362621 12.45916820479746 -1.543202085545723 -0.6891965436778582 2.0747876914439103
Ni 0.7909609381611157 1.228522086347268 4.504158566188188 0.09559232998502892 -0.5503137784353103 1.4725556268727542
Ni 1.997412416071395 3.0209208022047127 11.601336726129997 -0.8276962145493745 -0.23634274456393495 0.12494352945363643
P 3.218681336486124 4.9051199653743724 12.142405570087023 -0.09885763099986201 0.12504071715313303 0.25543884196343747
Ni 0.14376048582667683 0.5940698714436935 2.3855644505163403 -0.630104108391076 -0.11373737632517186 -0.9850837234643292
P 0.49347530256874383 4.226460844546866 7.1286769717431815 1.9263332233525277 0.33266295385392386 0.5924891262517796
Ni 3.3427059121929656 1.1359370198272571 5.169785709382941 -0.5703164468094823 0.24212746956651202 -0.23677289012281802
P 1.0734411875783336 0.7924781727454947 11.262768063878221 -0.06481005449684968 0.23901977717546577 0.4149426258904466
P 2.571972639678432 4.352492585669001 4.199012857492722 0.7186559865895559 -0.559082782877192 0.4673514785094662
P 5.185119540807871 7.430389515230579 8.178394376460657 -0.6071163892466511 1.2763367469128988 -0.35374651399710044
Ni 4.910393336329099 1.023855078341414 2.1381302215980695 0.16461487990132942 0.03497548763392041 -0.5273085757893886
