# total energy = -340896.71523811267 ev
CRYSTAL
PRIMVEC
9.01918076079390 0.00000000000000 0.00000000000000
0.00000000000000 9.01918076079390 0.00000000000000
0.00000000000000 0.00000000000000 13.20048271619019
PRIMCOORD
 96 1
Ni 6.24825408323146 1.9667857384486642 11.159794293912622 0.34676802579673827 0.04223602585107565 1.190776861463207
Ni 4.669248030955396 0.41965527558697824 5.995910026305104 -0.8446135591300035 -0.5838214232744526 -0.2510258004974064
Ni 2.5793685105115314 1.5523453533034814 4.670858856678165 0.8965390443547012 -0.91888295926754 0.5338324929508355
Ni 3.3673653334261466 4.346740157524536 4.837159025151092 0.02169676824714328 -0.054576806804615685 -0.3174008854885308
Ni 4.777847989118072 4.550113669409777 2.7724574503269364 1.2133971699658845 -0.8006932035979694 -0.9405889834860639
Ni 7.073013087814631 6.0031217634155505 2.537225485471176 0.4069202698066024 -0.388444322489602 0.36900035483237736
Ni 4.966384948293605 4.55407308985936 11.309619124492038 0.41644954945327634 0.061843001448725746 -0.2078063276871389
Ni 5.624442430850303 7.718633119801913 12.439845161965204 0.47485961396105314 0.8195409324320918 0.8715060126454733
Ni 1.761202527223679 6.600326831909995 0.42859598969101126 0.7162517480234374 -0.015848022775850124 -1.1081277219024077
Ni 2.5519321619747934 1.5398177109242805 0.4275966644385883 0.716172815156386 -0.27357231833935464 0.7880181792334623
Ni 0.6256209000854538 -0.08568312121428806 4.711239533755312 -0.7829813881405031 0.0909535456614369 -0.11670031560823772
Ni 8.583338076939064 2.4724100432869505 1.4832990133222201 -0.2769186091037682 0.14652845471326378 -1.0192256594533609
Ni 6.743109485981362 0.7137428078363408 4.746761578039317 -0.22973012434342371 -0.09361875119842586 0.7232055536334512
Ni 0.6145273074818419 7.415191794959701 2.4661011261924575 1.1346352812746332 -0.08762756661199747 0.13117279819279992
Ni 7.633726550069878 3.779857575479963 3.6768756651488235 -0.027414387457210847 0.5214323195142698 0.9993299489706982
Ni 7.487958547094612 3.871375204869273 12.5378845611201 0.948800829872895 -0.6332400829168966 0.056962790538288996
Ni 7.984257018801081 8.756785946337489 6.818195069545858 -0.0596922736543101 0.49157589827446946 -0.17220863308818726
Ni 6.99682806608885 0.6718261642385468 0.28565820570681316 -0.7950002669782502 0.41013234898599693 -0.03015338365492871
Ni 2.1204184672372226 6.36862407257114 9.1815559994574 0.22026229406230452 0.24495156927886846 -0.23153632431422708
Ni 0.2953583348492398 4.887972188866123 1.4220217958358785 -1.5329762940526568 0.42720755930072873 -0.19364186326129876
Ni 6.540953563528224 1.9787090957023026 6.99002579979483 -0.2914684818934851 0.5569683076373505 -0.4076440353465044
Ni 3.312465578809735 4.184584302711252 0.5047287001671166 -0.10077618817881354 1.2972228463332884 0.1140677630813971
Ni 5.948474545866538 5.734305074349976 4.8240902319131775 -0.23032019251893884 -0.460551167758181 -0.5251676181869859
Ni 5.483553804784431 2.9538539239217543 9.077483670145954 -0.3276079079285196 -0.23284784403679895 -0.3048503025170298
P 0.12578871327159008 5.585263108679498 12.353447721617416 0.5857872887515718 -0.04010483844068576 0.7207267530756556
P 3.989246881077895 6.113796133203292 12.596468651166248 -1.1209140750337987 -0.34894472173308294 0.7500532699539146
P 2.44840098352206 8.505998600048029 1.4194080371882956 -1.1648385443308906 0.3365034106459366 -0.6702243734507296
P 6.205674529831744 7.769005245567095 5.829557546582501 0.2784787545020365 0.25549926288772773 -0.32353708029325573
P 4.820562830232468 1.055613960910042 12.606962468234787 0.2146472618683723 0.5890286785070049 0.19722983772287322
P 4.0800429759889205 6.040109424608568 8.221723034785228 0.34564882459063057 0.5954021861335166 -0.046422553128597464
P 4.62243848167674 1.0734899776095208 3.7894233188258095 0.8604016752021957 -0.17709244354304987 -0.06965709817650584
P 0.1817761811140143 5.622764863188293 3.5801160877747824 0.23499625783836947 -1.0286803771083572 -0.8107909541536036
Ni 1.202211728535334 1.1734225028518142 2.621338367277099 1.0051869219721075 -1.6465450060104483 -0.6726216700383126
Ni 1.8439986086067344 6.571330165063969 4.770733659162196 0.35631221784174766 -1.01780049697106 -1.0573389213853144
Ni 6.163663184833674 5.766016514670546 9.175378762405193 -1.0779789662331691 -0.14369741302237188 0.07582106089537265
Ni 8.520429289613704 2.314421050085754 10.207392232448674 0.5404849652703466 0.5861125333014745 0.3561402110402576
Ni 2.329176430166656 5.113181137900425 6.916908201519852 -0.4786033972742016 -0.551982938607617 0.6455217284977269
Ni 0.6132059974684848 0.23981280687476428 9.317705947837144 -0.17952342158204565 -0.7733970868861777 -0.4040725159451622
Ni 1.5968189347086936 1.147059436851523 11.4490827199633 -0.5652436602722652 0.24452219505093373 -0.38553820458640053
Ni 4.150942757661274 6.874392684305083 1.556323714033118 0.21116341708482989 0.3964926467153752 -0.3181313358966521
Ni 5.551233738847443 7.914349347036368 7.995981052155093 -0.5115669966844157 -0.020979687575460645 0.05194785382220086
Ni 5.386074496768303 2.9549723023630934 4.731106083696756 -0.2792899375494222 -0.1469424023222308 0.1945738881572649
Ni 0.8663518595838342 7.211989647513051 6.891906129929224 -0.8289015477113852 0.15316781440665234 0.6520952679501866
Ni 5.0138979936885875 4.445924090745611 6.914412594143089 -0.021019282564144443 0.11502627033992448 0.4989184546824698
Ni 8.095869383410593 7.3760665878747655 8.801118828519435 0.7928587951552153 -0.5147603068107328 0.7348711628968375
Ni 4.650443038615127 0.17602735515828888 10.53677091794899 0.20825575651973166 1.2119264989576288 -1.0605646274114637
Ni 8.145682319955103 7.0533061773765064 4.707094318177572 -0.9165070028361958 1.3593358136139493 0.21682472913566528
Ni 7.133387485285019 6.162752247554841 6.902150115684657 0.6431827959519052 -0.7253930482030733 0.48949536159635704
Ni 2.3904437265539213 5.351882781678634 2.5005543975305042 -0.2642710955430868 -0.2243531763022265 1.1261424133122735
Ni 2.389054772683225 5.14883396030862 11.356613566980755 -0.43307533093541545 0.16770277479803375 0.4123522394554511
Ni 0.9545901147693444 3.236515055789396 3.8042210890573105 0.15596723152866043 1.1213372786141462 0.5372060374087587
Ni 3.48888977793108 2.446579108964394 2.5060984880780164 0.834745408086672 0.6893528667500645 0.3769337507468412
Ni 1.2018780188391278 3.210675102285861 8.249879113964052 -0.673814147684517 0.20090111592687335 -0.31003776025524027
Ni 3.505945049161511 2.5143943307420837 7.1148224031587795 -0.15174110926245477 0.7449486017374976 -0.5904047329189251
Ni 3.963975135976008 6.680823022143522 6.09686713050656 0.7326029356879512 0.8785055838917579 -0.49146045574252784
Ni 0.7792319828396636 7.152111304996482 10.954276020790683 -0.4264205446230591 0.4992035900230564 0.6535985919685905
P 0.35108514836138405 5.464685678177312 8.187071341465652 0.04889338326659321 0.6522212520050897 -1.1309017823741299
P 8.46305827940917 1.6772790482183053 8.09984323454974 0.6125275329598935 -0.10858308581774202 -1.1079978811927629
P 1.8500053831384462 3.2543098998600684 10.368978976942213 -0.1452598724134853 -0.24763477253798644 0.30982204470000835
P 4.058478114269217 6.254937296336563 3.758930369855442 -0.7880161223509332 0.22204304011181117 0.34551872677066947
P 6.86584250073742 3.9956324612107057 10.359937248011219 0.16043323771981402 0.34711743871635703 0.6118595603585915
P 6.416101041242208 7.747683901733811 10.20035636936731 -0.8620788057943024 0.1734515043563529 -0.1851587654909521
P 2.375778538282805 8.357984821009106 5.740705085172353 1.053421074388147 1.4863308262799755 0.6611962018101902
P 6.900241656989597 3.9714700753691803 1.6038457786090787 -0.2974318985657716 0.06187591156919021 -0.16348590850320877
Ni 5.229140747741595 2.9447355319524435 0.5928019043407194 0.3448885493858383 -1.056737797466206 -0.5744698068562236
Ni 1.3857250039058164 0.9641233890636679 6.996322090035953 0.3375161681811671 -0.16000360638156316 0.04405302445515639
Ni 6.8986723194993305 0.622573318832803 9.094354048166327 -0.767205099142853 0.06332087154583288 0.6713895974034244
Ni 2.9263814986611014 1.584661078749613 9.377807966041983 0.15352674040796785 -0.43875592625996046 -0.6529172496308497
Ni 6.445287110888784 1.972278419664599 2.5486834529863214 -1.0395160342712806 -0.40626566694173905 0.31094458834022576
Ni 4.172877405801098 6.961851682254046 10.654505502606739 -0.42025606768356005 -1.4107087687692867 -1.9180838388595416
Ni 8.097501855167708 7.073148375529309 0.5333339345586742 0.7961289812660547 -0.1382713569107941 -1.0400130285123572
Ni 7.65734778505269 4.022996656299616 8.276953793343552 0.44846698290013737 -0.6901576220395469 -1.1978389105163114
Ni 3.3309819573586905 8.458692995815554 12.558108270628296 -0.9958715581084527 -0.521596870116592 -0.1251170789170232
Ni -0.03446409435522126 4.804842397786862 10.223496882003968 0.49969364228559743 -0.0722575119138304 0.7439944653543444
Ni 8.76335191008987 2.3487660912520587 5.987052288666074 -0.6037305034935537 0.7941204354764582 -1.0796273004698698
Ni 3.5290161141046323 2.7388817452981025 11.757644233847035 0.6882889442619243 -0.41994779241452196 -0.7156763351359416
Ni 1.2670596397710823 3.378044043704745 12.747679729862067 -1.817560904342115 0.23481936594087302 -0.8146157272163325
Ni 3.073258860896729 8.336888956700285 7.821748514011536 0.20168453106011716 0.32645373971941843 1.057556179602443
Ni 5.708753734637754 7.88077093625324 3.5465872824870366 -0.9301690737043206 0.12827130827528876 0.15163826513600337
Ni 3.101768491969914 8.33586978924971 3.4053685543973495 0.10420346869280764 0.033247963419852415 1.4430576174136374
Ni 3.501615842291809 4.163759013831788 9.11377144289504 -0.4768187945699531 0.15484623055033978 0.3408945977350967
Ni 7.155574670492244 6.199685793661989 11.496023047366146 0.7771275004628875 -1.1736921380667786 -0.24722108203933552
Ni 0.62725788143306 9.008628536801439 0.23298077728351543 -0.6739213626863426 -0.18157490479443567 0.15017864987134136
Ni 4.612228768809025 0.32968804340788066 1.5934439571865213 0.4658522682561203 0.289490789341824 -0.42894433948617744
Ni 5.788014297077219 5.44148834470049 0.4072863707929998 0.47713709714132013 0.22236262823475897 0.04551906747772161
Ni 7.969303216738651 8.710066588868619 11.327110022163733 0.5233953567779116 0.7129530226675077 0.46825162172623225
Ni 0.07030361380967085 5.069050285372398 5.691889670044068 -0.11624008814236754 -1.6076822675069797 0.7238002497946567
Ni 7.8322387234076825 8.834080327323631 2.534373620445759 0.37019746046427215 0.02034719619778431 0.1642757513943558
P 8.382679338528366 1.5060318589786459 3.714338637179411 0.47781098327989324 1.670288372373975 0.10329175551181566
P 1.672751419367075 3.257908553070508 1.738872838956994 0.6369756386999288 -0.45423088196710804 -0.7292885266027376
P 4.7825109056839805 1.1381214285017838 8.100106594634312 0.4098148177455781 -1.5549785093553607 1.063144215213182
P 8.583211808405364 1.70374132520936 12.351995633479868 0.013269206305080373 -0.23989086692650946 0.5789229575315707
P 6.351848395951044 7.80334126755242 1.404782533313485 -1.5281246223873104 -0.3738132028399885 -0.22454600903932298
P 1.8219467111141885 3.145204867562593 5.880286831914434 -0.5626332192326117 0.7007058298690383 0.7701222727896478
P 6.91809061614614 4.043578427292658 5.951226297983092 0.796741418039073 -0.230084679469365 -0.02702872198301797
P 2.4380018678537962 8.473935411669297 10.222454264682847 0.7065741157243572 -0.15856301728029465 0.17205616667072304
