# total energy = -381168.15745919105 ev
CRYSTAL
PRIMVEC
9.24316544955038 0.00000000000000 0.00000000000000

0.00000000000000 9.24316544955038 0.00000000000000

0.00000000000000 0.00000000000000 13.52830694889640

PRIMCOORD
 96 1
Ni 1.936221291523229 1.838761356743966 4.512325656540236 -0.3234640609634752 -0.49003272215706584 -1.9416410573541916
Ni 2.5528790636019982 7.17381468520642 2.1449402825377457 -3.093572406705111 -0.8947390150314849 0.06277631189627253
Ni 5.0543199123854645 2.806058603960382 7.8041015044999105 0.17408425284434537 -0.5848714618055217 -1.158334938884418
Ni 9.215176981861868 3.961592912233294 3.4927250342344864 0.5168603838728711 0.3031423186869876 -0.8817207483949461
Ni 4.099038780041303 4.719615654201483 5.979295478705274 0.3186825804144318 0.05934980271322682 0.22082896519905193
Ni 2.2479655271359196 0.35343830558635325 2.169345011843293 0.7793993272161996 0.4308153312566452 1.6598481508772576
Ni 0.27032653628108955 9.19864095916459 0.6184195193823472 -1.1068699382359066 -0.9067527516629094 1.879728636120111
Ni 6.459345738067507 3.641622259515753 10.79155722720489 0.1469498585213985 -0.2999965739691543 0.4497358223102319
Ni 7.164229522804477 7.261347460468145 8.32951352182143 0.061534983290003696 0.22365306491140838 -2.6867979184477533
Ni 6.050825561906743 0.8668305107695033 2.0341433845668098 -0.8240354778683358 0.6920903202858855 -0.06673195410991087
Ni 4.80856263375202 3.299800764061283 4.266679295890227 -0.1627127777826101 0.5251316227427278 -1.2225783222445203
Ni 3.8837100015305177 6.764545812657462 12.435125116697854 0.755296520630725 0.4224337920611692 -1.2251088019758578
Ni 2.6191063428786885 2.746218351896559 8.118377443084531 0.5676442992939579 0.5994930683734385 0.2420868461365637
Ni 6.132997301302385 7.935063291859546 11.727094034180883 0.012021449940908329 -0.4214791414573838 2.274284985044722
Ni 4.175183975670246 5.847623816251648 3.3126764933051667 1.4573015289271611 -0.9015858627499891 1.521613817851986
Ni 0.6015461211521173 4.767957408649088 0.7864778263022149 -0.9067373250439417 -0.360427782672018 0.6272206161956939
Ni 2.0087061936987776 5.563766210307873 12.633409498420612 0.07596992776841109 -0.7871555741228508 -0.5663739172219665
Ni 4.9177521452796595 5.547618400552621 10.276467052558637 -0.527227586039808 0.7972720937315625 1.4501464059396187
Ni 4.009296888276141 2.2449152825914247 1.2436734351774208 -2.6898806711381353 -2.284392248682053 -0.7495796727516059
Ni 3.3241934772519577 8.898681759291994 11.306714876957734 1.1845586484676374 -0.74417341413437 -0.07579380720186302
Ni 2.943153231487509 7.0154977501818365 9.779341893962934 0.6031039256531484 -0.533917339355158 1.6199382020561972
Ni 8.02173645274964 5.222212766646706 12.361435830085496 -0.07554518152616667 -1.06512010799263 -0.01003270164565369
Ni 7.083749282656236 8.03242155182066 1.2275589008171999 -0.93315900957058 -1.4152845610654272 2.6309790117059206
Ni 3.199253612076379 9.010329952785803 4.61472144158241 0.1708894000561315 -0.6800308180181901 -0.8757822714233239
P 6.2801762221569195 7.061759792440012 3.10815574796371 1.5405744181148888 -0.6107079632526515 -1.1626119689932173
Ni 6.093223961075226 2.2164186040136107 13.3714189389108 -0.09346268523653581 -1.2102509110274189 -0.5469551463757225
P 2.477334673716668 3.5711893400337735 0.2571892254596018 -1.3802473669556359 -0.5324322701691991 -1.5952720667680849
Ni 8.433815247545647 7.5015495967644945 12.894248849851792 0.6838712748102029 -0.8910708221512783 -1.2320320114582524
P 7.4403968152300095 1.5618730974260973 9.802340737828427 1.0353462191643075 4.168318724933596 1.3508072073176478
P 0.4618781964092703 1.1540461586618098 3.1301387679642336 -1.7607773196941676 -0.8082620170841629 0.45320064093038076
P 7.359315769338156 1.1667462677652531 6.263078215010231 -0.6995339210481243 0.6083078384515911 0.8561141035704353
Ni 8.92129978474769 2.020611390587595 5.15531258493717 -0.3290986335414332 0.561602206864936 -0.2741225344158698
Ni 7.164127847986327 2.829619432275285 3.633608435212488 -0.5703038484039921 -0.3177227876043238 -0.9117010968071202
Ni 5.453005360681553 3.6885867823356917 1.5201355845755888 1.6258571386437934 3.5653644374844338 1.8156811708208989
Ni 8.092039967917609 2.3590683738778337 12.183512292855506 0.6065178364307038 -0.8669680155658036 -0.3334833928726902
Ni 7.749183237951069 5.718182529581618 1.6055119293760078 -2.938954233005177 -0.9859283308528116 -0.2011633684493245
Ni 5.470373268254603 1.0435441176635083 10.833644131703224 0.21161207458647427 0.6418779610975526 0.49016102020481395
Ni 7.398608464970426 6.591495272166438 10.279714176523733 0.814650951329642 -2.1933587417122995 2.3706147074164075
Ni 0.5851773997465218 8.412981152990218 3.895840731652322 1.8923797492252183 -0.2593430621138501 0.1469981952608307
Ni 4.994729225784373 6.347549653929117 0.879661872820013 1.3445730534824778 -1.9413474373731725 -0.7235439108094764
Ni 0.9032079120704584 9.163748010208623 11.939082332757181 -0.13423678183010432 -0.3153049221914505 -1.9760521878442099
Ni 8.286229627418514 3.267320281245053 7.540732298729856 -0.7692583821274558 -1.0920218174794805 0.9524867633649143
Ni 2.6030232352804408 6.323240129226019 5.12237179248968 0.6276962702805319 1.4908860497508258 -0.8694290755117864
Ni 5.155347708965259 7.5023167794832615 4.759853925642546 -1.2243346428139947 0.013476437219880016 1.3086040915870367
Ni 0.44763540301953525 1.93406763401151 9.739109168421042 -1.140093733286043 0.2650750795016209 0.4522290210457308
Ni 4.600184715536569 7.298190717299532 7.415595554133678 2.0294576000485436 -1.2176068371718578 0.13774736608652408
Ni 3.5302606041458207 5.012910531902621 8.274291155134666 -0.040816776906045835 0.258411037217884 0.09809787001570203
Ni 0.9719003435290177 6.395558654426413 6.58912440027049 -1.8818130294529656 -0.578835540024087 -1.113853054421959
Ni 6.326447507580382 5.799725733737788 6.454165868241037 0.16181032057299874 1.3450307098451868 0.7546090076453972
Ni 7.8326490204868 8.943363220286205 10.42469692130623 1.1456380601430398 -1.1402464568138233 0.6124809959926742
Ni 8.78585968380682 4.134449346253305 9.879627464370234 -2.394872294412192 0.46189791159406257 2.863115688608308
Ni 6.4922514064869095 0.5801102965365453 8.332665441184075 -1.0898299520344843 -0.43354327171076945 -1.968908634820893
Ni 1.53551159002943 3.5544407245349094 5.9878851522058785 -0.6543794359986731 0.9746118773987279 1.7438702595261837
Ni 4.504684331798011 7.911983108139533 2.2462675576728173 1.7756159273688967 4.036347856319532 1.6578997689016353
Ni 3.134403564427355 4.9286590803175505 1.6485998686748522 -0.5343508273481506 -0.7373124253484785 -0.47823084442613123
Ni 3.5628612481107735 2.066891919176344 5.873815249407046 0.6141758671965939 2.318186571523679 1.0919343999719968
P 4.063406377862427 1.4959693289344294 3.2594423314714978 -0.4057097944382691 -0.8093282535651481 0.48797481118677255
Ni 4.366304904296082 0.2821827443938893 6.697350773975291 0.8460441209289429 -1.7156698858325679 0.9112298135976565
P 7.515931961950054 3.7184606925411714 1.1418821531449745 0.4441429016034867 -0.2667046446852439 -0.5518847224668559
Ni 1.7941076252456143 0.05569191948330959 9.324602194104312 -1.2528988276049324 -1.211276781188772 0.23141831067912405
P 4.004887898434553 1.486208546392045 12.67185644442918 0.17449640068109948 -0.6648078304208486 -1.289727823507824
P 0.6881906282298236 6.123633974867314 10.88396946942128 -0.6494963968747589 -1.013193594326668 -0.13170553076781835
P 1.8254327124010508 0.025055448141706054 6.27503702225771 0.07271953915191347 -0.1312635581343933 0.45293864551824575
Ni 7.568812110553256 -0.0002754463255331982 3.6426316131650216 0.45090233181450734 -0.03983924348412494 0.2072334859028044
Ni 0.9634798199531537 4.46633443902495 8.412009696318622 3.2685128369021648 -0.009808501449989558 -1.8546698933792702
Ni 8.895280274466618 8.761799724566455 5.947611756736728 0.9848631228130909 0.5259132381037588 -0.7739673575673509
Ni 0.05936330473504739 6.999359183591871 2.1799376792614487 1.6842201519637188 1.2562651729740042 -0.3876740199824807
Ni 0.7953752972068544 1.7367075688173874 7.4034333972499 0.32033888507093217 -1.3121509283980304 -1.1503334087361803
Ni 6.535232125068432 5.16985023529954 4.238567132988325 -1.3240219688040038 -0.7195489307174704 -2.0433055616752296
Ni 5.6700348816050266 1.0931429425900565 4.771501238219875 -0.08668011509706362 -0.43387442979794305 0.10991645991718489
Ni 0.936785558606178 3.5175142792159453 11.854611818154824 -0.8201104317823166 0.310819118505955 0.09874398824013317
Ni 8.442374418600807 4.673131775976435 5.638530477043035 1.9984876340295905 1.1251515101539138 -0.8639436269171832
Ni 6.117228461323874 4.75083906653877 8.586876518788415 1.1390362385558062 0.01994610410462371 -0.7779638803212537
Ni 6.641232744572281 8.385519708924475 6.19550420655132 -0.9497575373592093 0.17760794972688768 1.0227802095738385
Ni 5.370704216971902 8.18143061940189 9.678894568163122 -1.4298426613852602 -0.6393832197001569 -1.1054638019169993
Ni 1.5026798669323187 2.679473455363833 2.0682072215965914 1.743784641790913 1.5935342581413716 0.027955090452029274
Ni 2.4969394272890146 7.600885894096886 7.70376232373395 -0.03714061360603926 2.0718846588645023 -1.8824671180971968
Ni 7.872866032647704 6.921827513169976 4.776574811645551 1.0601115990344452 0.6176566266563427 -0.5204658418359424
Ni 4.228091853769306 3.9485230765183963 12.316237676151777 -0.015135570089857803 -0.43233999543128765 0.38633678922829595
Ni 2.4945269611492775 4.552924411427467 10.609100841718476 0.46692493249500877 0.4298869059051048 -1.91352938671964
Ni 0.7222794218058783 6.845488211070021 8.789544009489958 -1.867403538895855 0.2837716274698597 1.9456632911397072
Ni 2.493722805769365 1.7029885018527864 10.953586217408473 0.06083667167139845 1.5632052681405273 0.5900293518573774
Ni 4.246698345490727 3.1117578094758 9.865206277890472 0.14080852151035103 0.1321801564113917 0.7538806141198049
Ni 3.733323702321621 0.8763371062665133 8.87762675308622 2.111592518977086 -0.1917194494276053 0.4872235348430448
Ni 4.801325235332808 8.775461122859678 0.07710001460302235 1.7671068614566212 1.0286281837141833 -0.24717763039590981
Ni 2.5994553734799104 8.728200818750574 0.15019034410482657 0.48741533913887664 0.8702022062323851 -1.1729382906198895
Ni 6.5792018623355935 3.6006935236278 5.954646729836168 -2.2053308264725118 -3.0762339154266636 0.17743877113887507
Ni 8.94853939284656 9.010431627603953 8.094878543977048 -0.6243378953312602 0.038663220898152766 2.260095323807901
P 0.5659719509145461 5.97303508285683 4.061873861057951 0.8183677380595971 -0.1197776689819808 0.8954267851271289
Ni 1.2050591878771695 1.7904565749575063 13.283295525387276 0.9826643153895593 0.7748145360589946 0.12770103759411555
P 7.282606740626748 0.10235696374797082 13.293347467636183 0.014422346072917097 3.0311293097785414 -2.2387541391279635
Ni 2.4186313309830663 4.272200238515763 4.111238833902754 0.41026116125437734 -0.09065864012883743 -1.7986432415020055
P 1.3182325036432259 7.169960285282013 0.16315111046934502 -1.8319102310852513 -0.17362248271657843 1.6285925352970856
P 5.822353002358771 5.4929173483880085 12.533164597940571 0.2848242371040901 0.5503780560143424 -1.0671559074757362
P 8.463476564949541 5.462461118769488 7.653531266301815 -1.4622341903420883 0.9655538809615177 0.6481766496220708
Ni 8.5785447295993 1.9859402775985 1.5485583178311118 -1.4253799976282162 -0.5765431444454845 -0.6269902453524427
