# total energy = -340894.81170793204 ev
CRYSTAL
PRIMVEC
9.04236579386853 0.00000000000000 0.00000000000000
0.00000000000000 9.04236579386853 0.00000000000000
0.00000000000000 0.00000000000000 13.23441635567159
PRIMCOORD
 96 1
Ni 6.384841632300024 1.9631790007223107 11.376211288447463 0.6518823806084322 0.11607862286383878 0.7935067131518593
Ni 4.568700542169837 0.33144249369706397 5.968933495245718 0.1357568180190565 0.23136740283653057 0.5386466265100271
Ni 2.597184480161877 1.400291728453709 4.852822527059897 0.31567490393635955 0.035850434039706 0.17055284265231918
Ni 3.4339378860079752 4.404907127714038 4.992802871129841 0.5252054134034567 -0.07670269216937758 -0.036368768437021234
Ni 5.143577991515196 4.390276579817964 2.543985529335566 -0.6696841846765434 1.1577973212133932 0.6976053365668436
Ni 7.345339814387017 6.155047989727141 2.5197800202731435 -0.39709325641385157 -0.75472239329481 -0.6904970076568367
Ni 5.09787787466306 4.5309124954098285 11.397903019812043 -0.2490825607281065 0.1551377936488296 0.3526568804773475
Ni 5.690758674355195 7.821709730493917 12.462320591080513 -0.8886750682255921 0.35184569742996175 -0.7411870778125363
Ni 1.7148123387560188 6.765045987915732 0.43951594573605357 0.34383105465560143 -0.5586924894173088 -0.8786541936544803
Ni 2.6659607145855717 1.7131756705426753 0.3875060660150167 1.0254353878084985 -1.0240071400024042 0.27494708719969424
Ni 0.44032885442323344 9.106657040553115 4.7922486226711385 -0.029977263088380626 -0.9614280317186022 0.03282013185381445
Ni 8.741453969832083 2.5126926139437598 1.3795955615658635 -0.5184477829646491 -0.9388105514294025 0.5131978474196194
Ni 7.00776117124479 0.665187173731792 4.9036957813974125 -1.1428854370985673 0.4751915433791752 -1.599532898926968
Ni 0.8818305036932659 7.6324078020610955 2.5702029647928444 -0.9488113713958563 -0.2871706258490796 0.49464759522125773
Ni 7.774888360280153 3.833447692648479 3.7521685790060566 -0.11635990154968347 -0.40486364438788985 -0.6023120258794724
Ni 7.775684088472276 3.788877871523789 12.645564134414219 -0.7652533747331207 0.09123996655360415 -0.5208026563500707
Ni 7.937596690837602 -0.11817015771312805 6.869284572610639 -0.13436610831911697 -0.7169058366676686 0.6696685009472596
Ni 6.829228700503083 0.849971536201154 0.4957251001437015 0.14143535646107255 -0.3151480848986121 -0.3389207618381776
Ni 1.7570763565967165 6.664169354832544 9.039530133654912 0.06432488733031502 -0.7161962121951537 0.7972250425437108
Ni 0.19212857198802152 4.854439302068436 1.2554140390558817 -0.28323632379167996 0.28757171794224023 0.4575334639777798
Ni 6.427087565409082 1.9665065913439148 6.929858476999398 0.24780317979505068 0.08462220412677039 0.668961447577906
Ni 3.543133495645174 4.477336477928842 0.6460806547550281 -0.2717123823124804 0.46684497118669277 -0.9554101076592963
Ni 5.8741740226394725 5.366011148310945 4.7152899514173106 0.09545657573811302 0.9958880131686848 0.35224961773659985
Ni 5.334399037405706 2.7822274542936793 9.392160698940407 -0.18700970265676178 0.6202961211617188 -0.7673074290486721
P 0.19920784018816756 5.565775093997016 12.417972307918404 0.029059122149485434 0.27959667015656364 -0.27082046662583037
P 3.801546226037015 6.211888301268995 12.543420665879708 0.7712479017536589 -0.014850434749271196 1.0140749684903567
P 2.5333363351098517 8.598729267735896 1.4514181690341732 -0.924801124524188 0.43984350289718444 0.28813067576950374
P 6.256114512492541 7.791435889729977 5.719914878703835 0.580080982395414 -0.982608008230327 0.816420127414923
P 4.804805756084784 0.907971079041078 12.79003130040384 0.2214984804622508 0.36689976354960685 -1.3299542751280387
P 3.824568089413655 6.1440072610614385 8.223786664790598 0.7224221385002074 1.2065909456773285 -1.0143079104367692
P 4.795401695632425 0.8720846418129269 3.8785709065613267 -0.47370981662732614 1.3432697612900222 0.28827105800211
P 0.26060821681283397 5.539561275486066 3.3996175865397746 0.2485349157547526 0.6490485107040629 0.7042894334552388
Ni 1.4043336659750596 1.1055558145646316 2.623868501695446 0.8514079563440176 0.4077165404556527 -0.39880098313357765
Ni 2.0222346918899614 6.338047389183718 4.892856697489487 -0.8932873701866229 1.003510305600633 -0.5335931232465198
Ni 5.940997106046139 5.5047572094465185 9.160492573933125 -0.46948806523649467 0.8065748591897269 0.6896503433858252
Ni 8.646572425287273 2.3851590864244607 10.09858739046554 -0.6976531590856436 -0.6005868156582495 0.7360561843438743
Ni 2.2132185003652243 5.216658392069009 7.025582770038592 0.004897180191301244 -0.5788067436686806 -0.08966105210225848
Ni 0.5692549062787471 8.893013063333996 9.117586548119236 -0.07389247641409209 -0.19863494560051595 0.380096464745539
Ni 1.4790869042054937 1.2447087821620857 11.140255273568537 0.029772346166426145 -0.2967680397295276 1.0916091554220944
Ni 4.001111239675056 6.7747032346110405 1.6567241807310629 1.3783828029430714 1.5241280996334075 -1.702398108424326
Ni 5.556687516348342 7.784988682900619 8.017581841931243 -0.3249840971524274 0.2960586723673288 -0.3532425777774884
Ni 5.242790829287583 2.930422787710709 4.857758754560803 0.7087657240590374 -0.8935043712934353 0.297502603902707
Ni 0.4765815074670773 7.220184429078268 6.848214956014446 0.28791727420711705 -0.23909613893935597 -0.15475495638811412
Ni 5.142158340081523 4.614762353654757 7.115762284357223 0.3775860396188594 0.4852972643546094 -0.7524137997662913
Ni 8.239385650065948 6.788185402048027 9.257580455737912 -0.19415711233482047 1.2843128231398397 0.511793510872925
Ni 4.5360847286586266 0.19387917401069146 10.397698905174709 0.5210582240043027 -0.07252722063544928 0.28105191454585143
Ni 8.025804969407565 6.830214318377416 4.67594390502659 0.1534076983316003 1.1833350604731814 0.6313166406419386
Ni 7.285280420613395 6.161070205362978 7.075806782510263 -0.754014825704824 -0.11594723949229707 -1.3701928109331112
Ni 2.2761985782985708 5.537888437809444 2.5268339698489948 -0.8611334111618977 -1.534076726205687 0.30273531305655604
Ni 2.1700231188451102 5.467005332149788 11.308491202351494 0.18773423952761217 -0.4885327405727716 0.4904554115167811
Ni 1.3592755570961128 3.5647718770514194 3.949652944269013 0.17935347166308468 -0.9584445236102461 -1.6066144883640976
Ni 3.6579263297246905 2.6654995539287736 2.992221932668019 -0.6371851836075736 -0.42229700937298886 -0.49832041608715466
Ni 1.142285904523749 3.3970179063666466 8.384783275498403 0.041717434343444285 -0.7829669899628 -0.7469998278395715
Ni 3.8801334273749495 2.7338327124273087 7.027938306334591 -1.1512597772051916 -0.6942207363653269 -0.22032014388343346
Ni 4.1479411758533296 6.9956353586807385 6.043892899416839 -0.08068815917968684 -0.7831204848215287 -0.1999338669175976
Ni 0.6295069024443274 7.497875483397444 11.406333217465633 0.6118238220246496 -0.2567737587247771 -0.7536103911775538
P 0.13736438763834188 5.378769926482366 7.951581613814159 1.6787753267990637 0.27883150985576494 -0.07722539744206701
P 8.54452932701336 1.4401685617180389 8.15127593328342 -0.09004028981854814 1.69200031012977 -0.5163471916818785
P 2.241078029455338 3.355432065962417 10.656007648359624 -1.742968573647521 -0.35242779518567696 -0.47618321786848306
P 4.019295437338223 6.155888929748361 3.6686333950916508 -0.04917414773180564 -0.5221378302217266 1.9080555080892623
P 7.015890258116588 4.016772617274561 10.353482640553565 -0.20345062182160445 -0.4630711059665574 0.7471774910680163
P 6.308605446075179 7.588181590837549 10.059294694033154 -0.3018462255833834 0.3250959401399433 0.7641010062962325
P 2.102404307246321 8.344439856157782 6.0521784192173165 1.2971032900362887 -0.34409973493595575 -1.9208107508724017
P 6.864701901613279 3.9269276704912546 1.495476192253475 1.448718929464473 0.45988036694340156 -0.4381915691160582
Ni 5.165315838945458 2.89159486888145 0.36083470379359556 0.8500236744019811 -0.08997035581256117 0.09549257118237102
Ni 1.547763672605173 1.0826605443094655 7.106391680658397 -0.9091397638378471 0.9855097552581544 0.2685329561432343
Ni 6.699118098725205 0.7462058672386104 9.228530951305943 0.26202780803486486 -0.5590771264502371 -0.5523066404956231
Ni 2.854964244946348 1.6579177730192471 9.174746055174522 -0.2681719732593898 0.15282585768620133 0.2635429591278106
Ni 6.249604009102446 2.1639195219168963 2.6640220313538543 0.9161249369064287 -0.7340576658566068 0.16974783025252058
Ni 4.074354402813621 6.8058180153962 10.479169716972505 0.6382974428351459 0.21373143492232224 -0.8802403071946776
Ni 8.015641350226362 7.239498922468882 0.24157403676262668 0.9154754762478878 0.16327739203682848 0.18004021331746414
Ni 7.612071521332869 3.980847297873386 8.17961018657906 -0.22001263994534367 -1.6551890548386914 -0.039366674723080586
Ni 3.1204028935799992 8.526046731278145 12.599071906316288 0.41427053952408655 -0.6129085704483961 -1.1545407619493084
Ni 0.22156689815023295 4.7221404477622215 10.186318232120229 -0.566614829588179 0.19273786338979063 0.6639459966411856
Ni 8.785824858908741 2.389372828896383 5.753066904508147 -0.5252874315943017 -0.7829947578769418 0.24062028889336623
Ni 3.958603077957229 2.3954131292638596 11.421619336883627 -0.317261274586873 -0.13488675670927736 0.3239643976386614
Ni 1.147150697334681 3.278626210690939 12.731773145901474 0.15578236921136399 0.6479331661526969 -1.2454469993125776
Ni 3.0441395802576956 8.423949378809313 7.997226572234796 1.129270417418294 -0.2861010469339847 0.3074049506180835
Ni 5.57381375721062 7.839694996109054 3.4950633747117266 -0.2654124082363816 -0.37974396650212666 1.002742317086357
Ni 2.9871636332285476 8.326201404299697 3.643447693574385 0.957284441863874 -0.11492188355157627 0.15923304676412578
Ni 3.433901716544697 4.317630212823492 9.121451255270523 0.14673979939312148 -0.5674514665568614 0.5948303727904466
Ni 7.237220246282348 6.033997838500477 11.43992198953903 0.22842966036444529 -0.3147025127207612 -0.4085076688983803
Ni 0.5991462549685191 0.03607903962010796 0.004970588491020889 0.6071271878799286 -0.13820450822860073 1.1494893155683301
Ni 4.738543299358931 0.442172592813845 1.7226448360289353 -1.2166267326467757 -0.6854777000653743 -0.13179706204036012
Ni 6.025868751628678 5.669717089093042 0.38035174617856826 -0.6873957430236936 -0.4908986697017868 0.057972205639409836
Ni 7.690559256646788 8.810673280180938 11.291194060775227 0.42475884064992003 0.10504524786781264 0.22079862618174875
Ni 0.15711201035171377 4.761501866174835 5.556258003971912 -0.63459068340752 0.8255436869827459 1.5718241201577896
Ni 7.700189376244636 8.6920374406281 2.5443164799245626 1.130760371700259 0.5235311110248275 0.7151281759419555
P 8.533886462443718 1.4900191244813612 3.4314195871272233 -1.0658238189278744 1.3777770510382723 0.6197111951925263
P 2.020824082822107 3.3331968884120795 1.6304931817250552 -1.2708857511006566 0.05900193245550484 0.8821727483306999
P 4.654829076601298 1.021941057831013 8.184493968358213 1.2842349187140527 -0.13729947991582805 -0.4761773043312122
P 8.453391321917852 1.563434092570498 12.453864170566046 0.20773536523988737 1.311535920521851 -1.025540288817479
P 6.221862030767987 7.801201644815119 1.3565935913940266 -0.2970104947576369 -1.157681107350503 -0.16572611068763718
P 1.8580162862406426 3.0589600178359806 6.09041225461223 0.14195189108617487 0.9476752009088841 0.20811563139744158
P 7.01692108782002 3.8969070159702626 5.974597633195101 -0.1462176083410643 0.20683239380964377 -0.5230279461361638
P 2.498441845412108 8.459928952405406 10.208710746835825 -1.3715866059568442 0.3770335095494991 0.7060514104516679
