# total energy = -340892.91060663946 ev
CRYSTAL
PRIMVEC
9.02844129920052 0.00000000000000 0.00000000000000

0.00000000000000 9.02844129920052 0.00000000000000

0.00000000000000 0.00000000000000 13.21403645021529

PRIMCOORD
 96 1
Ni 6.354307095763184 2.023743118355109 11.455009734597686 0.28783345624405915 -0.18204490245231875 0.6782423586591997
Ni 4.557385501920172 0.14500037464769616 6.01583535499989 -0.3934479463517805 0.07980498524378514 -0.19981456773091394
Ni 2.472537894535175 1.6833167201043786 4.696440648136103 0.8129445101614967 -0.9674251298423018 1.8583398860316895
Ni 3.702319906907967 4.444927240194953 5.414940238130003 -0.09909520093196482 -0.9793861588589197 -0.7896644565876336
Ni 5.110955336491467 4.453522316075043 2.5208942248017348 -0.11875694102695032 0.787807862994869 -0.021581325715201542
Ni 7.435255257418231 6.044116946590629 2.4651047790182856 -0.7016172859397143 0.46254274426691305 -0.7577902335868562
Ni 5.098631514457514 4.322366152934207 11.780722482468391 0.8108115229788939 0.026561809648928448 -0.8114560985414282
Ni 5.477699640404451 7.955130949989004 12.433760457781426 1.9561271667855085 -0.6492552273982302 0.1290917472940551
Ni 1.8275280090042596 6.329551110402671 0.38423149138372575 0.16240861627862996 0.5024251822841476 -0.6439405000535361
Ni 2.787350605525593 1.4737756317629684 0.26746937180972635 -0.4566536324759877 0.34744242615594356 0.9902009900862366
Ni 0.4603647233863012 0.05750394673894215 4.777085392131621 0.27348232972870967 0.07456739099392964 0.2062037590867094
Ni 8.51465955565364 2.181424841302359 1.5524241874422176 0.06050654202548934 0.7702276880192606 -0.20756155866618445
Ni 6.740146552498007 0.48259725947319515 4.63120293879329 0.5356921718673936 0.7910636509280053 0.9139793513183355
Ni 0.7053252888129878 7.480171751644545 2.285566103131843 0.27869318450568775 -0.41971613601969004 0.9556834159253412
Ni 7.573381377050065 3.960081898900179 3.662151469830119 0.5521765426756619 -0.8102494798278368 0.5235431952096854
Ni 7.733545921286207 4.013042734102502 12.483260691529086 -0.15697998906389093 -0.8867318284562922 -0.35250749938367676
Ni 7.677993923502386 8.749471250495443 6.937580501390676 0.02402053128431347 0.18828702670728864 0.0038805660013288
Ni 6.8307650153220285 0.7460932143765897 0.5024399672140177 -0.5122892195624209 0.3574345043716489 -1.7646383453114705
Ni 1.447222986633403 6.649826028228651 9.441732385108335 1.7172490573942294 0.3389331031333518 -0.8032954171075068
Ni 9.132990397880283 4.592442938519323 1.4746206938452968 -0.20679768391696646 0.0016257085288810713 -0.7698641340322547
Ni 6.415926205932951 1.7060774199927276 6.80546642065438 -0.5054035481861812 1.5064144844037282 0.31773615734076244
Ni 3.4706681664338452 4.541721156697528 0.44052923839831903 -0.16747497505794381 -0.8380541607449309 -0.011679493220457304
Ni 5.834359175664007 5.613406137834747 4.7044217900247585 0.7170379913701587 -0.28565547475613384 0.16061321494110403
Ni 5.142627107696675 2.6684460368903067 9.4183306659054 0.2788873027943649 -0.1905285144432977 -0.011089425044942192
P 0.2727808036797445 5.511059730086105 12.233554777486248 0.9425422505576929 -0.3010725806421525 -0.7334668263501432
P 4.187201361966943 6.1827215735981405 12.40143863882058 -0.41662001359286954 -0.5456338564611377 0.9746527579389923
P 2.524000008523112 8.520744724921688 1.5630353142088884 0.18560356633785452 -0.6650238030863966 -0.27090197059604315
P 6.256420737893498 7.5365182522408105 5.693478478667661 0.019295357894502253 0.7783112363583435 0.4727487382656374
P 4.731192020583642 0.9092542981973973 12.74015414749224 0.2500518666199113 1.2165979362913693 -1.154943653814682
P 4.224795790501288 6.070317482519226 8.126817590693813 -0.040395887318543336 -0.49639928780504183 -0.4384219399593094
P 4.583531867202464 0.9591183781193935 3.9242119026064817 0.37892841257936677 0.7625855980929706 -0.2284000926780905
P 0.26612413409319957 5.549096552231925 3.5851533131749043 -0.02350322532826275 0.2277418902688013 -0.8192611964081439
Ni 1.4357658949402992 1.1550355489155757 2.6195633485105017 1.028441264514358e-06 -0.4166141000555986 -0.4606478412370454
Ni 1.9271568559966963 6.482971409174078 4.681243976159876 -0.840166064881611 -0.47250936856132164 0.3361195449439566
Ni 6.334038245604777 5.771882363594441 9.063850596315437 -0.998723682845267 -1.0772071210641514 1.639810772610408
Ni 8.742808261000162 2.306432636087794 10.224968605966744 -0.3069979449876519 1.0925956877050795 -0.0030447003635947563
Ni 2.3632215302955353 5.339004728986434 7.063100208783674 -0.9764389033051377 0.43460308043385154 1.1177091949432558
Ni 0.617062346259045 9.206843045673498 9.105342602851291 -0.29067041147222195 -0.7537525731823729 0.4924621575341648
Ni 1.5277566808039997 1.1144797917166611 11.316236275742531 -0.4426213227526377 0.017988209047304506 0.770722368267492
Ni 4.12916654289423 6.714912059761817 1.511435065072878 0.07147126856710917 0.7050728485884825 0.27154011840067427
Ni 5.584632496206753 7.817645849671757 8.077964696169476 -0.5780366982718754 1.0887202639100733 -0.5760340660195499
Ni 5.391225232022614 3.0481732390339302 4.549420611225407 0.22835201304897448 -0.6115818812171725 1.3349347590617655
Ni 0.603324670356581 7.569706801542505 6.962686790263948 0.6403337565388842 -0.5804054556143682 -0.1921349396984691
Ni 5.356691445004393 4.170751542372904 7.429340725686039 -1.0402194880962083 0.5535261147250209 -0.20437056253271252
Ni 8.088932446357642 7.3223004314352345 9.104034381743071 0.7013882006480436 0.701726814934385 -0.09470169984995948
Ni 4.63688995381101 0.26925880882593844 10.453742982278067 -0.28681221406839635 0.10188690474448904 -0.5267161936210284
Ni 8.102222311583999 7.294149752239727 4.28220674429741 -0.1376730612051629 -0.16253974253985556 1.6059807114348406
Ni 7.334181859857712 6.115856939178024 6.983578602854841 0.057170278563404765 -0.48031703753119864 -0.7903314007476712
Ni 2.2736955088386255 5.1552037260800425 2.4829567155074694 0.09136955015293295 0.27860808099104917 0.21086774022128202
Ni 2.5027199729670477 5.17950828938803 11.295529546193174 -1.1734982768884177 0.13465098654938745 0.451517596801003
Ni 1.1281127377029392 3.357948079918161 3.6379696933204193 -1.4770177764091659 0.4952322640801342 0.6687225920942225
Ni 3.598447692621788 2.7521938560748866 2.949359660268355 -0.5766480454544649 -0.2757780677414219 -0.9501018080725057
Ni 1.2940464557703604 3.3325691321251627 8.003186633168582 -1.4182032773741189 0.4721285881831353 0.8006831762956403
Ni 3.4768165347892457 2.6685092359776603 7.051234128710982 0.38231069878803836 -0.26287550074714083 -0.170908426219525
Ni 3.9409777176372884 6.73091948574438 6.041562800617439 1.2718064631427128 1.358551370039441 -0.1744778887383382
Ni 0.6290782984531759 7.680720512699641 11.416887142261885 1.795416764144908 -1.1864934035965051 0.05367126427121079
P 0.3155097066395183 5.630027497808745 7.88129997045431 -0.48265082787069785 -0.16203246388613385 1.1566400676804984
P 8.577172481487409 1.7238092782159395 8.000478100853428 -0.7034715655396336 -0.8389982698257551 0.2428268096263818
P 1.84102552837478 3.30535741079891 10.19160309922046 -1.007179269811788 0.13030582220681428 0.8647414402281299
P 3.859640492213196 5.818730944205565 3.772316507528507 0.47001051339886796 1.4450342815240338 -0.5596162867831589
P 6.749509045867391 3.9082947610344236 10.28595121104245 0.4233557896548063 0.41030692689064824 0.768427144475412
P 6.3314561114643295 7.818458409366303 10.232051417970872 -0.3390292623915839 0.5982759081368857 -0.13522665654719937
P 2.314639489002712 8.33576099623768 5.877312886805939 -0.08114221599796993 0.7968247217814987 0.008861564155687965
P 6.799282841378882 3.7711978836823485 1.4223722026418597 1.3066024877759754 -0.8654140408151225 0.2419953148640219
Ni 4.8560553603122685 2.6649881439679595 0.760428573076598 1.129470963464874 0.2783753961549528 -0.2905606253672351
Ni 1.4018911841187656 1.115825029433188 6.993092774033874 0.6649227587321581 -0.630223921798392 -0.6656298121015117
Ni 6.93327393500958 0.8048114864368261 9.165982127167076 -0.6963033299259686 -0.2890979247787795 0.017607685779434192
Ni 2.758188740932429 1.612244832154722 9.209231971175464 0.28861507160509003 -0.9441198794574578 -0.39521660821642907
Ni 6.283081724315669 1.8804166166781782 2.6876955760541104 0.31261194874031967 0.6083880568702232 -0.2143958079791985
Ni 4.11480229318286 6.716157984626788 10.227042438876047 0.017139745004080158 1.0953159148497202 -0.05154393351556285
Ni 8.51851469998221 7.082134871050477 0.13162654491956782 -1.4732413400858693 0.7174475681037514 1.9719546207360683
Ni 7.553744517765194 3.6622877992899823 8.276148908513441 0.7040359226835359 -0.06768480494148345 -0.8015704639966001
Ni 3.207832190571243 8.186773662022075 12.52976077431566 -1.6335887029600964 0.19571931461561776 -0.2712277293665781
Ni 8.851501662807316 5.017808910173301 9.947050619329257 -0.532560053996315 -0.9188747317374238 1.156639810570182
Ni 8.777080223227918 2.562930646332934 6.01109181207195 -1.2411008065287399 0.48907138668506095 -0.7065563751125444
Ni 3.5602393300960076 2.580057599005762 11.342254437161905 0.4891302649474544 -0.09882137844528786 0.8055101653706385
Ni 1.195807988699703 3.3368395847420564 12.393959478254335 -0.18552463347080306 0.28503609600458 0.6311330638762228
Ni 2.8654285637304495 8.380560120730337 8.034927020525773 1.2399718351306195 -0.4246133162109913 0.2931623246561403
Ni 5.739407061135737 7.719804634007322 3.512449083083315 -0.937849987288346 -0.37636913649262277 -1.0080089648019348
Ni 3.058366348979962 8.338695239579096 3.8117075958319053 0.9716941895313008 0.4224641310784724 -0.9604849510790426
Ni 3.492182941457223 4.340052868952167 9.22292179634036 0.075165943809877 0.30779164453354085 -0.3788235115703863
Ni 7.078676978128129 6.305842424204018 11.547547643989047 0.5053328428492458 -1.0564876291286127 -0.8566198395622602
Ni 0.809714832771361 9.132719544648767 0.3658188887053048 -1.152160948863222 -0.03629934865166652 -0.2648225971711826
Ni 4.692902402088406 0.21453201055413482 1.785678476202806 -0.6034553954552963 -0.37274413814552576 -0.3672538044549159
Ni 6.167093342139698 5.52517118344806 0.4869200770481819 -0.8224802175660738 1.5126049294851562 -0.9290773833020386
Ni 7.924325909124646 9.007991631535898 11.348055210536861 -0.9251230266399809 0.6706131242487161 0.17004067890259103
Ni 0.18841363343909906 5.022747467427933 5.817386609333143 -0.7945685787574702 -0.3374251511292576 -1.1914209228051096
Ni 7.8015029970734355 8.993582239619275 2.4281712323688374 1.1524689670219441 -0.4939719093104718 1.1613174185515096
P 8.499591087540331 1.815059731913498 3.9648453043984313 -0.6411403116005797 -0.8213358195489855 -1.6451077593432892
P 1.8249458748638123 3.1190826150446775 1.521807840995815 0.47057487054277025 -0.027666612677333 -0.8040942588597185
P 4.631409690093347 1.0674055000792741 8.088813270935775 0.5954816332212002 -0.8511397902842954 -0.2028556685500829
P 8.550376068449479 1.7704231193597502 12.524144181138135 -0.2548775701433288 -0.42260759863487224 -0.3964671927940785
P 6.599329957433119 7.701224102325361 1.1451584344063122 -0.5586222983010056 -0.8191658084808601 0.9710275024815792
P 1.7285040675622076 3.4710473609579666 5.812947324868605 1.748487446583221 -0.42056588561449504 0.3286098668304728
P 6.835387577139892 4.049716261649695 5.932137192241088 1.0888663025696343 -0.5937458814770161 -0.13906685622889597
P 2.425833768980859 8.482644703688512 10.326835603495605 0.27098064635277846 -0.25258568878535853 -0.5607568281455052
