# total energy = -340870.48466885026 ev
CRYSTAL
PRIMVEC
9.21804313909576 0.00000000000000 0.00000000000000

0.00000000000000 9.21804313909576 0.00000000000000

0.00000000000000 0.00000000000000 13.49153790814614

PRIMCOORD
 96 1
Ni 6.029872295375553 5.90258955587021 4.738228108885842 -1.036435595573744 -0.8958990967778572 -0.2642659533367643
Ni 5.0542622648840325 2.1959406699334925 11.22714512494917 1.0259452375653815 0.36692984545659385 -1.3005015170845604
Ni 8.902693872165743 2.922221069910782 3.001368110008321 -1.254709141340794 -1.6471520434668276 -1.404083293032969
Ni 0.48508661432744304 9.152742510043923 12.774030473010816 0.6709273130550252 0.9400174272533101 -0.06445575648122448
Ni 9.136841385648884 0.37610722125618296 7.91049320765324 -0.8743967039297071 -0.08426996299367422 -0.6013411773257709
Ni 4.08201682013407 4.3159891907977865 1.7558288880254125 -0.08948158910160074 1.1564973714550468 1.6635906486388254
Ni 5.928584437489929 7.126469141916292 6.752554893120156 0.3875935444535325 2.3627499599563504 0.7209059589659971
Ni 7.486811665815723 8.173380735999487 13.128265121533925 -0.3105992891856651 1.0747658586125102 0.13686264948872556
Ni 3.667905450671585 5.79520857147727 12.206185189288455 -0.37387362376427863 -1.4053397911478893 0.09346577056032936
Ni 8.179215757299232 3.850201471562203 9.619331277227293 0.024768722304247665 0.7966614567307571 0.29813380972880266
Ni 1.7188885019960303 4.229228968881197 9.461899084064642 -1.090851194210147 -0.9814157876944387 0.9912410013149767
Ni 5.187223318955951 2.153270348296019 1.6011759348657204 1.012364156446837 -0.7960040256524161 -0.8327893128015658
Ni 4.8800228136869 3.3715822362930554 5.8262798294473335 -0.6517895637843097 0.6688909993512867 -1.4590619632616935
Ni 7.534892978769074 8.02292383607146 9.52648253782495 -0.044029113195756434 1.296668259381399 1.5100811346220382
Ni 1.456192708946838 7.110595671650635 6.196163949788102 -1.4499453456724058 -0.9565228811075009 2.6176694390812076
Ni 2.401991587963831 9.27759168616359 0.5836440878386843 2.3146626175308196 -1.516045836845905 -0.9917086849800146
Ni 4.209308777682541 7.10173713220505 8.886309722310818 1.2376591278370426 -0.5873926855654787 0.2766890095914654
Ni 4.1351311846350685 2.7618824277500114 7.876845506629023 0.16849107502728403 -0.21145755128648097 0.7997951172637323
Ni 3.5510022277278743 6.723096792697414 0.9131596319109302 -1.5915228841382978 0.35222519225656757 1.199122662324741
Ni 3.3069360998394806 7.5353170087529415 3.258989370315792 0.38976664084545126 -0.40562289115141753 -0.0871197737376435
Ni 6.930880702835735 8.042023621431763 4.496378920369626 0.19163640279549576 0.7461187107861988 -0.00341956720451024
Ni 2.706306845733955 2.126547241269224 9.741038944249087 0.26858643508898905 -1.938952454778435 1.0412980658723678
Ni 0.8230735400339162 4.251140257395406 1.1392201561582624 -0.5932658565168041 -0.5852710112367856 -0.4435060393504362
Ni 3.9529918704776192 4.101098169408119 10.135369314964143 -0.5431113471496002 0.5596558817718426 -0.8979755196909116
P 5.8579097008309295 2.990323972537192 9.358297497354 0.7269948454725544 0.48678413331278103 -0.30580469601049914
P 6.835234287344176 0.008307300466556672 7.810628615626511 1.2319818749466074 0.0784441003405165 -1.5822653700957716
P -0.052595388672916556 8.61004865699511 5.563249421432611 -0.6399465484027946 0.3367569214176394 -0.40120830702348964
P 1.6927369136431438 5.898883902532932 2.2177118441921624 0.22793523722653 0.46477729002438667 -0.0642824641281538
P 7.912279664411361 4.094000276199898 12.747371892285912 2.5794091100484287 0.97380018013071 -1.6301313405391151
P 6.518594505912505 1.881891158620666 3.5158547510868026 1.697452591493593 0.8035250166198097 0.40502279567357347
P 7.750152721883845 7.58578579487633 2.4179268191184433 -0.185196560707423 -0.43816380120191634 0.2072545689487269
P 4.488043965773686 7.799266455667482 5.198397430835179 1.3219766562392008 1.4407125142202284 -1.621356936780595
Ni 1.1303625385169904 6.411499280856518 13.466726776461467 0.3758947679593655 0.22103413923132254 0.13947591874185655
Ni 8.589815052330117 7.3901051753644955 7.599580596416723 -1.0115678857977868 -1.2172543389284458 -1.6072096987459354
Ni 3.2092340607304766 1.717349088793728 12.320242802318687 -1.381889273434433 -0.4322374084151524 0.7221642568531305
Ni 9.225141020767776 2.5790886325305054 6.858369731985725 0.06137480356305559 1.2056478650377689 -0.2362761529920576
Ni 2.436568467735307 6.48846994097164 10.361096146050258 -0.622863881888895 -1.2982731419746738 -1.5188712221098422
Ni 3.880879119090721 8.939049834260837 11.139072253691214 -1.8128388162760973 -0.2862740821767392 -1.0239711445581463
Ni 5.517634856820195 0.7461342212654275 6.113110303013103 -1.5102140606554766 -0.9355025701020921 0.25826319878611004
Ni 7.705122581205716 1.5450454266533848 9.40082309571437 -1.3989899376704618 -1.0390450081721332 0.8652877996499032
Ni 0.29470544780964275 8.082647537494918 1.24659653152964 -1.5511974450463737 -0.24210484385869271 0.8109331361584227
Ni 5.173414690350867 5.046159604974907 7.48067982352727 -1.1371698747710286 -1.6175619885145367 1.1152733318082535
Ni 5.29967422706905 0.3758233055278541 9.18209829018795 -1.025734407106156 0.6893634082730257 -0.7662890150864868
Ni 7.817638015620707 2.1206108214950756 11.947755506598698 -0.5852342444615791 -0.6706702027388965 -1.6598062418957285
Ni 2.1914330468441157 8.671717365518484 4.999302448148897 0.7776028974374092 2.244253471679638 -0.5999448111988764
Ni 7.16051137518637 3.5245925341674162 5.232518017471841 1.4704763757462225 1.3763984255231907 -1.5119595825916736
Ni 7.6131449468789265 1.3020301556815321 5.452375720498638 1.337441327533703 -1.5050890807240853 -0.3287168247219822
Ni 5.634307628685717 6.8261176426910195 2.4411184938230703 0.25757208625635636 -0.16697181016928017 -0.7791990382799355
Ni 8.529012839860734 0.4034000033482613 3.4646540523390863 0.17978104611880652 -0.42323443358559365 -1.6588526197332074
Ni 8.682640746624642 5.248864373349942 3.1185829028097434 -0.10122561701140632 0.8474096338179019 -0.4227286975937687
Ni 8.270520474477708 6.674941735399043 11.626332482588136 -0.18479572572457853 -1.0216214133790469 -1.064063898813974
Ni 4.378542831461406 2.313691952844938 3.7930376207152676 -0.7491132746381486 1.0412769828264452 0.8224251959584223
Ni 0.34697451775584376 5.137233871075195 7.904408377384739 -1.049512226252044 0.6349917755006806 -1.7491081108863555
Ni 7.7105520086078485 5.9574369124791895 0.5451523051509338 0.7717965751682773 1.2434088858366261 0.6744584661367352
Ni 6.541667267860787 4.040314393024991 0.734544375641147 0.3988246372826615 -1.833970970269022 2.577204646197942
Ni 0.8450926796527177 4.881470046457928 11.767157449252174 -0.47405023068588026 -0.7246253167991134 -0.47623052616665085
P 5.760899014956492 6.786221952034942 10.63208725610994 -0.4394254415231594 1.262754894463406 0.4919322531726238
P 9.440290147365017 6.204296107435234 9.792266375321873 -0.20159557089073668 -0.1947726344316323 -0.4160464004775867
P 5.30322317367316 5.623061616070094 0.3775489232013332 -0.4716084540136071 1.1771165903672953 -0.695792451727821
P 8.458513246021159 9.029312912565901 11.180167211758187 -1.5036993994654102 0.46034779349812327 -0.6537626283502805
P 3.975059865724997 4.977964521917221 3.9229345972515857 0.3000801348218961 -0.7931470158195953 0.6968458326929998
P 0.5398731318517805 2.2300935197211005 9.050906178592209 0.44141341848746557 0.9360365882286912 0.3574208775248941
P 2.110858131866118 7.6505517658905635 11.979366020091724 0.7123387861222764 1.3574275408476428 2.2654450181555887
P 2.987945717410282 5.315096013221457 8.210949792570167 0.429537492985486 0.009259056704422765 -0.8225277829745575
Ni 6.862169409362904 0.33874649246018407 1.4692555978629027 0.1267211901793495 -1.006081665872235 0.17659853462576683
Ni 1.5119434337823183 7.81570222656392 8.530631528233933 -0.18549018068844184 -1.3483590028874715 -0.7967108219114537
Ni 0.6580263214435879 7.418423003852359 3.41584174856572 0.08549612209129147 0.11043350876291949 1.4258710783320219
Ni 6.722304040988443 6.0664494905057085 8.833584359229803 0.714443491170105 -1.6909261032289846 0.3270558920797916
Ni 0.972946016027656 2.2230785889010276 11.53535961496225 -0.31305957780069954 0.1307768483059619 -0.8480729784335136
Ni 0.9468312998472798 1.5900479132021306 4.690050006479652 0.6391906440733766 0.05370083195756559 1.7482426775622666
Ni 5.762530608590071 4.727104696243815 11.228318581839305 2.397887684199748 -0.16109246857036774 0.6514424648575362
Ni 2.0852872802302675 3.4576418869319516 3.307774019959776 0.7070052897245049 0.5419929172744407 -0.14121321314793747
Ni 4.724532862211226 3.4792489800229514 13.160118069561207 -2.376916995485352 -0.08348603363979815 -1.5353656202204398
Ni 6.3257161715114485 4.193638104365689 3.132775923813247 -0.6447095170090767 -0.850443278437903 -0.7944649633000704
Ni 2.8972954812938614 2.356445236870559 1.169783499951999 -1.320455591608984 0.3036686235041028 0.0722737098637465
Ni 6.117821644855598 0.15087724269464378 11.306785330354032 2.2532582462814097 -1.1086465705203552 0.9221986539043344
Ni 1.5669567151675938 5.44906183399428 4.738335959990435 0.9148884933961662 -0.4112867743054142 -1.5295392433466495
Ni 2.6415040025472107 0.8949954779280741 3.207437464124915 -0.5153298061609577 -0.3388613693551519 -1.443666711752546
Ni 4.994649179978104 7.699020236655271 12.746170781266391 1.269947298446787 -0.11104980219067971 0.6114031895474632
Ni 5.257805875183674 0.22099244413580002 3.0981695463037626 -1.1533912217258975 -1.9522805393459086 2.098425385467509
Ni 8.128820715520863 2.1230443848807514 0.7440149931504016 1.1182889787061259 0.3355873265895704 0.44000239707255184
Ni 2.2933846038349244 3.889332064638693 6.44891439610697 0.07417478354120129 -0.6427971304777124 0.4376814622488591
Ni 6.746731855276477 2.661221396797061 7.20048818462197 -0.5391330792281424 -0.23102467478513117 2.9829334667996044
Ni 3.513788987621917 8.480046594767137 7.052714657048376 0.29953866049612926 0.41265820073164416 -1.806348323455747
Ni 3.580315604873514 6.128579101185461 6.1178723440928 -0.3259981402392385 -1.2762038208794604 -0.2712750376647457
Ni 1.394376511733424 9.105804234438391 10.498089172186171 -0.016928914544854713 1.0018933388225004 -0.09039793026828302
Ni 8.535907936120148 6.2517137212834015 5.335849515518845 -0.13954148187246937 0.19340789287362173 0.3837206917616875
Ni 2.0677269080722667 1.2498007233207797 7.568725962460156 0.015237385775044724 0.48412406998211466 -0.39251077924949174
P 0.27152391295245604 3.7424056752285213 4.804620142707777 0.1719065284667362 0.18059891403441156 1.6198656969470488
P 4.3685689087973865 8.764690548503049 1.3240308592140786 0.10209079322517901 -0.3139432659572335 -0.10832134751592314
P 2.1068482831056294 3.525744789558362 12.911374706589887 0.885785662492939 0.10586851510005638 0.13587406032321114
P 0.8278438773524283 0.8923277762469584 1.5611189284549103 -1.314035289904937 2.3906546567864186 1.4965213936597324
P 3.198716273521931 1.6591371464431894 5.843832827170833 0.8774612017876436 0.40846190326210946 -1.3932185824043233
P 3.1438965710423346 9.079754044559907 8.970347856091841 -0.0026762612805824875 1.5226142340920423 2.426942435473859
P 6.102270806099406 1.3337678781697195 13.117593393005148 -0.056092472118193716 0.42140612212760326 0.42129839290514537
P 7.074894190617597 5.223708333654832 6.568382078648767 1.2000307759613076 0.16779250629836265 0.9611256699868349
