# total energy = -381171.66218679165 ev
CRYSTAL
PRIMVEC
9.17817733608274 0.00000000000000 0.00000000000000
0.00000000000000 9.17817733608274 0.00000000000000
0.00000000000000 0.00000000000000 13.43319027573692
PRIMCOORD
 96 1
Ni 1.8308719327978766 4.239427506254419 2.3543813835169516 -0.5197659875554403 -0.21909449900644848 1.1979394406499175
Ni -0.035199226740757955 2.824391240308389 9.61645793217804 -1.131630433010038 0.08766587604910063 1.1378334764969567
Ni 2.921624847800134 2.70836072625226 4.13785262102588 0.6708542937252446 1.6980156630859142 1.5360533903160836
Ni 4.293367652679658 0.5921539545695093 13.374097227054069 -1.1042070466917628 -0.4417939417553359 -1.0419256721540378
Ni 6.546766143386724 3.460631650440089 7.304740386783102 0.9065519485060128 0.1533688746738649 1.3669784177608717
Ni 2.6798441302095144 4.537479627236759 6.203769407289571 -1.2455863531039193 -1.1160696024573038 -1.2191664683494938
Ni 0.5647846306559373 6.4792422949520665 2.817410318856792 -1.278441194850411 -1.464895282114019 1.037819106184832
Ni 3.6473708403614635 4.562756326786718 11.951266853171283 -1.6790684325594503 0.4132510971206367 2.5603335814742163
Ni 7.116721758983274 3.1794398406680884 13.264294106115095 1.023839246965972 0.4166840340615856 1.3209957803831702
Ni 1.040144446840139 0.6925182382473436 11.007155508266921 -1.3361285222595505 0.11148380440430478 1.133689886642228
Ni 6.77356807605885 5.103415201292684 9.175876064408762 -0.19008962713366617 -0.44040683159982225 0.14821869793149312
Ni 9.255916192863856 5.636079883602566 9.898675862142374 0.7327574589879444 -1.0798409591425726 0.07076267253585879
Ni 6.180465097984087 7.373068243525886 9.036977204456235 0.37138890966921195 -1.6865158899764308 -0.5427161685937104
Ni 5.494020059479739 7.533493599892528 0.43294103538897843 0.3013060368091972 -0.3270512640941013 0.8277319528833164
Ni 2.686479952204656 2.5709634160623964 0.5433884643556961 -1.2319407372960267 0.12794940615949577 1.1603537690866594
Ni 6.2988819380689 2.226790955487266 2.087195471897905 1.1911666407024581 -0.18644765950570472 0.0914723942793844
Ni 6.610884888141994 0.5790833126562571 0.04403413995310017 0.5486330482987777 1.0451030414407552 0.4313465211697668
Ni 4.018049876209027 4.11498060385867 2.550559410699465 1.631008600937746 -0.882270707361145 -1.6466319092972996
Ni 4.928249692610416 3.548549408242942 5.198792063570574 0.7980215703030773 0.12827207960623715 -0.2889832535777862
Ni 7.0412955001228665 0.01857846595099013 7.6225154923924965 1.0203541166308492 0.3464970315235388 -0.2660191885824451
Ni 4.255241505282951 2.0453292173600914 9.355074464079504 1.5236686434984854 1.343528157157731 0.14107257380501512
Ni 4.116247192289277 8.818851402533774 5.5585866992742385 -0.9605638839460942 1.029133405485376 -1.790662280179058
Ni 1.0005865038262238 1.0912026456768933 4.146476436166454 0.7445367110110597 -3.2725553824026545 -1.6924615660369045
Ni 4.245503459450523 1.2776205994020986 2.1099646934823415 1.1444561240197968 2.7904174896126333 -0.7618939713425846
P 4.9548572278302165 7.093087953122292 3.42624285673138 -0.9007875352184099 -0.12872047999756542 -0.9314507686302216
Ni 2.9177608352690765 9.074839938172085 2.9505058174711056 -0.8556808726877586 -3.0900515380360463 1.0691968491651649
P 1.0677982942417463 5.318808659912304 4.644431088571458 0.6742455787949807 -0.3159438413270301 0.12146122733199081
Ni 3.1683434246347186 0.29764828119287123 8.030951712920025 0.429763235843047 -0.2802435597119432 -0.3794680871329207
P 6.794833912245217 3.538536017099512 3.9238349711435645 -2.088694788443306 0.14703830447014676 0.2627405178311733
P 7.540450658083838 7.85883244119514 12.89141597905033 0.7763114323194952 -0.1805860585186051 0.393810986118154
P 5.308180330907637 8.097134629690105 7.005421677370154 0.5029406884679855 -1.0108016970557236 1.7851842877836224
Ni 7.00522526438164 6.242160804002542 3.64528372290407 0.46011330888981405 0.10877771832705137 -0.5080790381358152
Ni 0.5920511589867354 2.771212882576922 5.294530546023578 -0.3797933316828233 2.6926762316054016 1.7706030475353376
Ni 4.862405450572869 4.913142413213454 7.158090556325877 -0.20312589149233407 1.5803727810587493 0.5594170262881591
Ni -0.0357306431909913 0.4940135431868657 13.294358142805672 0.6747310030718315 -1.0322542105025447 -1.1491018503219241
Ni 6.164862197027324 4.62726055497739 1.8700746803605999 0.820630823062161 0.4444198094139572 0.004528226887656717
Ni 5.442145002887013 3.57950739937657 11.377656487480039 1.1668810286822162 -1.187305615085155 -1.5850940977938184
Ni 2.1603409537655147 2.074570889388476 9.738740620429313 -0.7035317293536076 0.8545151345144315 -0.4767416614751145
Ni 2.862544922236196 6.40720278341698 1.9859491654071617 1.9740325863110197 0.8189624342208024 1.3445565984222458
Ni 5.263198085266988 0.09774850322331784 9.215826833399708 -0.08446639527519646 0.8100466197884114 0.7548190667736743
Ni 4.972497684088394 2.984238371521928 0.46747667993022224 -1.3551045491414209 0.8324046757686373 -1.6254845857957232
Ni 8.619932771689092 4.045731258141735 3.125393227389262 0.9661696601686457 0.4335360726219179 -1.0351004217020883
Ni 5.723401059898248 8.444253285092953 11.622046560801252 0.142400034367187 0.4837959972187346 -1.193053573312526
Ni 8.973485329192346 0.5008017229207617 6.187071549812723 -0.622535809125515 -0.7986023825072117 -1.2484893856833272
Ni 8.283029427324406 7.284618151455096 5.608772971292821 0.7902722653749615 -0.5613057586704399 0.6928925044722067
Ni 6.320496544982535 5.2647124844774975 12.61762086214954 -0.3696199906942473 1.8775971915994052 2.1369407679338877
Ni 3.6691139417535665 6.921189875463911 9.04491632759012 -0.00586571475215764 0.5147636492448425 -0.7626802146893058
Ni 3.13730282990779 1.875028142505521 6.209801305235916 -1.6519211827206968 -1.2911799825733181 -0.8090449179967745
Ni 0.7678527153374173 7.6132978491978625 11.783634792198024 -0.3566364339503858 -0.0093708996919387 0.2096490373228325
Ni 2.339085951490805 6.000205701048288 10.86914326021582 -1.066707249974092 0.16340569008457667 -1.4504245993016698
Ni 6.78409544511615 8.671578373855983 4.678766648853374 -0.5252187831398955 -0.20283689949700548 1.2211948116334321
Ni 8.792354005438375 4.374998359214637 7.482716253272995 -0.35852413789140186 -0.19059819133896852 1.5422173530349503
Ni 3.0682645822626227 8.860446900849103 10.314930053866943 -0.30616850710782106 -0.06894387415956513 0.7705161657939569
Ni 1.7898087687504853 5.961464615790345 0.05335274309510207 0.7808910812703778 -0.04474285143332939 -0.14361205239741717
Ni 8.063065236542156 9.019568956077004 9.936718488128076 -0.5981887477397181 1.140955824176022 0.9986444928678995
Ni 1.1261806783511468 8.147247476292419 1.536166175161911 0.5709386537745136 1.367793200352683 -1.3302448097852637
P 8.792335649084308 8.395278532442779 3.8387762154866136 0.95668897437172 0.2743104820569598 -0.6902586663937853
Ni 0.4176465211805356 2.921881836757069 12.75398103833463 0.7901185134059167 0.48088807954332013 -0.31543476290109546
P 8.578016037177594 2.0787286035846018 7.539377729188634 -1.744915927181879 0.5074946263872551 0.5511285610271218
Ni 3.614412006634556 5.39986114129418 4.294779256307393 -0.8591750018839461 0.7885791939432548 -0.12631675565207923
P 2.2072322602291097 9.056914958425871 12.888527606737922 -0.8591780872077397 0.07414830117864005 -0.33198109729555086
P 5.360037031146297 1.4979243827345836 11.408808138149071 0.49656306707641573 -1.675176810814528 -0.16222066863753995
P 9.362291264680858 4.360808897521015 1.147729202390142 -1.0386364598798048 0.2382636157357316 -2.414107745603036
Ni 0.8423776772131458 6.24551083861973 6.749425799190218 0.46530770860655996 0.7067790326463118 -0.9971892484786117
Ni 8.056980105169018 9.214981523294933 1.8946033584823374 -0.2799347702222727 -2.7502694566388377 0.7687834993735663
Ni 3.411445799718147 6.737580443910924 6.690601944765512 -0.8696000538720121 0.9703998961999093 0.016537849754023132
Ni 9.011290240392885 5.307996767366969 12.618439555540919 -0.8399493208851148 0.2857904576721014 -0.1380762101808525
Ni 6.9454110846550305 5.848334405676766 6.994231643931044 0.8097242034519861 0.9192141173547136 0.1882381757472242
Ni 3.261116438088235 2.2269102717887 11.800398732549512 0.1276241616095931 -0.49382278532711726 -0.5658995486887093
Ni 8.523396705651884 7.360099479377704 8.446507445372355 0.27875694786408767 -0.5961498629328184 -1.400568337901175
Ni 4.235893908096563 4.5859036892649305 9.415711926286006 -0.4988618904129215 -0.5291507712044499 0.12380375942223841
Ni 5.316046028625253 1.552314259834459 6.815583934882307 -0.232767882728483 -0.8647470966550849 0.7157557822236253
Ni 1.9026360990219615 5.05246714058033 8.32849719853012 1.027635995004243 0.046844985377996744 1.9400996810090008
Ni 1.723331232497634 8.634608676765483 6.3677347865379925 0.6976611295054437 -0.7087155875473924 -0.4203339721093471
Ni 7.811931956554511 1.5251468558156216 3.713672155615273 2.4980642911213495 -0.8565691888299829 -2.0921246400604616
Ni 1.3502842269754556 2.787926342954727 7.730411388143932 1.891449266991149 -0.1693415959530374 -1.5799770882822273
Ni 5.640925961076196 1.3915493109175816 4.292898647833251 -3.134131044853764 0.9898544053800952 0.05018639104640389
Ni 7.637023436829178 4.25672836996236 11.063225909581611 1.02806588345281 -1.029857171025278 -0.06727214288409704
Ni 0.7133609604724714 0.3894979700368287 8.367185050361272 0.21590453131424106 -0.3825140730480961 1.0711228625432843
Ni 5.03070568283416 6.194672916031777 10.90402951111974 0.9388920553996154 0.21727570063015483 -0.7800955819522758
Ni 3.5815082419698494 7.346414817420918 12.289595568429254 -0.46649761514960303 0.8509009348006119 1.1813236864701075
Ni 8.625549816033526 2.0624740520584663 1.4373107837883659 1.053878730750856 2.672973096749519 -0.07233464500866897
Ni 5.776551883098616 8.904410368839047 2.6515505638686796 0.015649276501482724 -0.938421800631416 -1.3874248585406816
Ni 7.699820524091639 6.482372053320453 1.2270075421514637 0.7375947324755877 0.06859986055658508 -0.5453680043942608
Ni 7.615326226322242 6.86794727049321 10.969515804252985 -0.567330624708281 -0.22286322202026135 0.4244533935943593
Ni 2.291643954405207 7.388349908286481 4.400014398536848 -0.6378960936316691 -0.509959800098296 0.5563671837182418
Ni 6.768437475097184 2.362829895476188 9.624826593997085 -0.4585482783955393 -0.4058146954472495 -0.9072967970918373
Ni 7.341798194373123 2.0988655239958613 5.669021278793109 -0.19324951291888653 1.2132827558752073 2.2698084373306067
P 1.433429332720945 7.372379880248381 9.088520011040353 0.5926305369256504 -0.12638283300332426 0.3798074727502104
Ni 8.251658418224276 4.724567587885402 5.308809953852128 -0.972700262198312 0.5703542420259532 0.24599723693456346
P 3.7073226927435736 3.2540400635954905 7.599410349528638 0.1563672951805565 -0.4451949970170849 1.7847667406302294
Ni 7.814520202477927 1.815902326056416 11.677485503536042 -0.024088151297455288 -1.4367635568748096 -1.4503657210392764
P 2.24599170184112 1.817453437975059 2.5421099809225245 -2.1175261108527015 0.31981617979824273 -2.668060232828934
P 4.304656810430728 5.703686335630524 0.4382083911884415 -0.21393480918237995 -1.0083285529248829 -0.11070681702896419
P 1.4732167301606949 3.9511409656356062 10.915635315978463 0.10694734998653195 -0.162194700495611 0.2747064319437979
Ni 5.35149214832821 6.474689919143504 5.388562805366076 0.8945258705794142 0.6644671592519783 0.7580815395750299
