# total energy = -340874.5620794805 ev
CRYSTAL
PRIMVEC
9.19481259254466 0.00000000000000 0.00000000000000

0.00000000000000 9.19481259254466 0.00000000000000

0.00000000000000 0.00000000000000 13.45753765508708

PRIMCOORD
 96 1
Ni 8.937992461607555 5.349670801206231 4.750699548824168 1.3584230719916928 2.087023057167838 -0.060980139227798213
Ni 0.8217211087995789 5.7157438823084785 0.08375830803216822 1.0201065193964174 -0.30123944523731994 0.9784003979068826
Ni 4.997601419963794 5.532197029648215 0.45366194813743577 -0.11146272135838223 -0.1857370065919253 0.1646213076592326
Ni 8.352181744753631 8.378607636675563 0.719375486738119 1.1216203570722036 -0.6655166835624151 1.5579098240695428
Ni 2.005839212553046 4.786902285172193 9.825860134045682 1.0880540910809842 -0.45868120442897775 0.251640808373586
Ni 7.54499671547367 5.380776852831802 10.347527836965233 -1.266510504851096 -1.045968988985476 -2.690735820049579
Ni 0.8980058730063658 1.845021937078243 6.903515085178363 0.28769950176935616 0.805289050498768 1.5520448806483333
Ni 3.0746350549724637 2.8884860702962265 5.935756442962197 -0.41000173694540354 0.2670165194987079 0.2704155178779279
Ni 5.298161460027851 6.674477815783734 11.413930269618723 0.7809486739811905 1.0134519901943773 -0.7754038329035614
Ni 8.890455279548966 4.655490020959164 12.060120563537279 0.8214224657255208 -4.537700888585424 -1.381663530576872
Ni 2.6578801658417923 5.15325121065776 4.585804373882638 0.4997322088330168 -0.9141575287674127 0.4915324466310438
Ni 6.208935250056762 7.462841063308582 0.42173479973085154 0.2583855832965873 -1.2626929308772188 0.3862545139271348
Ni 6.557115225494404 2.9696210982430338 9.294448688026037 0.3560661632692126 2.060713729849348 -0.5022246362375673
Ni 2.2957424646082236 1.0281271855054637 9.544005101614466 -1.0348525673573403 0.12778665532938638 1.9533272354428681
Ni 4.153269347063581 6.412867002644277 2.3778254777523693 -1.519624812446415 0.8307213745289435 0.9782052511769411
Ni 4.605038083250173 1.5336579920008702 9.103715169699043 0.09633460746769215 -0.16447578322030385 -0.3909058966562171
Ni 1.5390369574755849 7.867513968449895 8.7406846521448 1.7475507937015644 -0.5301432170247063 0.9198874892726544
Ni 0.7907897586167753 0.5355923273894787 13.374545715007944 1.0632630001792334 0.88688738019755 -0.7522770170781109
Ni 7.571146763012282 1.5899762202617718 7.596982347953912 -0.42632284270293025 -0.9015038445591441 -0.47257158925782483
Ni 9.03047388852154 6.268085480653069 6.900392526759195 -0.5173812893733477 0.40132066423163787 0.5103259251884631
Ni 2.7267217291053627 6.0074033436041185 12.00845674950424 0.5547417322996769 -1.7235310337481995 0.4148626645821306
Ni 4.141693077776973 1.1115425270210388 4.466098945297654 -0.9123832104758094 0.7822154565087561 -1.5033687555988688
Ni 2.6598478557761323 2.6763709343369224 3.269199132302476 -0.5000008891133711 0.4800396155000959 -0.1933346164335251
Ni 7.118173506351866 1.2066260859509954 3.3509272256734186 -1.8861674497669192 -0.3921343697466795 -1.0371678457540783
P 1.9321519829558433 1.7092973056726648 1.3019073333556634 -0.5064006219921279 1.7228054684360845 1.4303913347998785
P 0.23950188581646245 0.8066158703690469 8.718600550816305 -0.511003925092094 -1.0995487219841449 0.22599765388418497
P 6.763934149293989 2.460918081339462 5.609344267293511 0.8689703907078131 0.03834903209184363 0.5796809187435178
P 3.7618369723215666 7.719238417603315 0.48708233413905194 0.9418773632801843 -0.39854335859681683 0.017991294371098046
P 8.093660388707344 1.4444039443717158 0.660666607155122 -0.5722946535817757 0.3796614340906494 0.6150983790108632
P 4.882574312119895 5.750307183538312 4.472356934873877 -0.38424751079943503 -0.55803891499371 0.48289508267101994
P 0.7973015250256521 7.6764825381889175 12.607048256118599 -0.09244915637035692 -0.6519438299739869 0.46079053746249676
P 4.790433093278673 4.786736778542202 12.019330535094664 -0.9427731356215764 -2.8593474798151273 -1.6755701895982045
Ni 6.704204645492713 3.9540913126819244 12.831654545235851 0.939413475120724 0.5666171435810242 -0.3383039541897851
Ni 7.625184677704416 3.7364500942434686 3.9560452103970984 -1.1767011000964314 -1.3001364204356578 1.2906331089309129
Ni 2.529042449206404 3.859688169897487 0.8531646100540777 0.2622725770558193 0.5484322451418814 0.5172445066851673
Ni 4.964638016157209 8.842577889417617 12.47995571494834 0.4348211099819285 -0.6983062192886103 -1.8295831256139716
Ni 0.6549842128587567 8.611309958443218 6.73875415450338 -1.1084030870509813 0.45440314587891417 -1.1008340164544719
Ni 0.1836967281085337 2.9124569472066213 9.047569803918355 -0.2388058613924468 1.327333806786056 0.04860721948474209
Ni 2.6297992076199486 8.255948834226514 11.684762560492523 -0.6155290387903786 0.8986450349541104 0.1920845460765079
Ni 8.065487482357726 6.640659294388862 12.144445272036528 -1.564808350961589 1.8665345060273404 4.104744599726376
Ni 5.7013999743759065 0.4869434924661148 5.793039156439489 1.4754650872100654 0.8434745604295538 0.5025082289162571
Ni 2.8510355978543243 0.28719078228587724 7.462958756912132 1.1786623375878604 -0.0645244049356308 -1.9450099738264246
Ni 0.2213871851639233 3.24076693223254 0.9091389523171086 -0.8577488109603809 -1.8933608821915653 -2.342948866070023
Ni 6.107231425927157 7.638636688797591 4.404235325450769 0.4385823767965737 0.683369652583436 -0.7153850291477679
Ni 5.0949469028369645 3.4060069126532193 4.66097748522465 -0.11325426604116624 0.7986072676032181 0.02065264325334508
Ni 1.715200375475685 7.508024373296186 1.2800080477639917 1.1646408264977879 0.8903773956286796 0.3199442207356748
Ni 0.09235545797893441 2.108103920262066 3.10769500431321 1.3243513271189644 0.4736740782933842 -0.22306736761126744
Ni 5.090377080886651 3.091921302993769 7.209821883228226 0.6260533353604701 -0.17835074143018315 0.050653560490809546
Ni 6.009702046798441 7.015035291429003 8.680825501483364 -0.19792454979705268 -0.015421733871708924 1.1425218831115613
Ni 1.6772166038926997 1.0649983847423967 4.994200258717474 0.7085739197632055 -1.1524702525735249 -1.759599754446299
Ni 8.500494074851318 1.0411102611469971 5.192295144153967 -0.5661245202153218 -0.5071863511182169 0.9485300927100115
Ni 4.175649521363505 5.395580501403239 6.7097399227846415 0.008234472094650334 -1.4398861616641914 0.38304063497552737
Ni 4.1631905500502775 8.35133582197812 9.849007155731233 0.35168603192364595 -0.287179367599828 -0.9236299870342223
Ni 1.4247822139049788 7.1817832211451575 3.8978953754309607 0.4704414302886995 0.32006969056994555 0.7836766144353149
Ni 4.64654346812686 7.5760384034098 6.490880391653195 -0.519065619054306 1.1230552897465174 0.03511432720462984
Ni 8.982936706462949 6.4952341355032415 2.087223419926118 -1.4114505320313175 0.9270415838189324 1.3220229360961038
P 1.0235665583679279 3.21908556370369 5.003512765098314 0.00848335488066281 0.736875594921376 -0.8334917381852291
P 7.424655005844497 7.702117676212001 10.531223645592489 -1.333275883302104 1.109039949304032 -1.1857621818574353
P 6.199538151398372 4.931270040588424 8.016238226160006 0.8297656954838936 -0.6765091780181768 -1.3571663167664563
P 7.087186987292398 8.149831499963808 2.4040546006808676 -0.7762872639497792 -0.17020805771839073 1.2117570632593002
P 3.121565379387752 8.56295443804745 5.1992795239395955 -0.81192352509615 -0.746926551399475 0.2268633443185899
P 9.458336111487176 5.315512071738597 8.773803448287321 -1.3174954805393955 -0.06819825424279223 -0.10082786735235538
P 2.1097773761875325 5.569077423697925 2.551602841836763 -0.23752262380464903 -0.3259037807532194 -1.5000798004349518
P 3.6353899070082742 0.8956428061226024 11.329309488148043 0.33174532713566096 1.301212941329288 -0.6290982928343811
Ni 4.58268549338858 8.747742590432647 2.611139254569716 0.6600615739851149 0.22928172395209542 0.05977352051420673
Ni 0.10245504033350979 9.033039241286403 3.1447712478750764 -1.7141994719346285 -1.3180788638466914 -0.32251198146285104
Ni 2.125417752721703 6.82402225079358 6.382533315291998 1.212324762837312 0.5593157248236045 0.004414584127927881
Ni 6.733747578946146 5.70647551102897 5.735225851621001 -0.44290645809322426 -1.1456948815229042 0.8039456490969961
Ni 8.445058548617038 8.087968799598201 8.671848605768895 -1.227354660587241 -0.13066654798034272 0.5405348446716755
Ni 8.678809079041304 3.711035631727039 6.462229355039159 -1.4276304842252896 0.1853073752536744 0.16178512376201815
Ni 5.477368361057234 2.0474641299958383 11.591152010569488 1.0740189531441569 -0.1507643471714823 0.21969150916049904
Ni 7.439550602543707 -0.01143374968856017 12.37395055740152 -1.0966343765508275 1.1148362442708348 -1.8273552647247175
Ni 4.581646479544747 4.0610085956562525 2.3833837420762416 -1.3753242186224057 0.3962555910039046 0.5782683546667073
Ni 0.7253990085885216 2.086836318308194 11.347059154733325 -0.8565409066952088 1.1168031381892185 0.26222295476480645
Ni 6.425151272514737 5.737075847951791 2.842326271191675 1.0971779077591233 0.445461106194278 -0.19652406990510024
Ni 0.24438065347609253 9.009390182823214 10.8967698639226 0.06337974980822633 0.11556183112842033 -0.8802099681773745
Ni 3.5684516699896025 0.8572940004723587 0.33668645946602954 -0.7413382586784201 0.01502835508803218 0.0711395962593033
Ni 3.5411982449177146 3.1370126648535988 10.720234056005019 -1.0057008854940486 -0.34355646083797603 0.7958371610572488
Ni 0.5343583835147664 6.565445725870628 10.572752936982397 0.750081809199005 0.14014286290189412 -0.5429897339700712
Ni 7.05541890914686 7.907373481839447 6.72366822517968 1.8035352794869843 0.03551387663589368 -1.2696799037180133
Ni 1.6922225383452372 4.575927305997273 7.223078044809245 0.31797629837602653 -0.7386856515469213 0.0425872385429073
Ni 4.879714725346159 4.793954706572374 9.65640249300406 -0.9148273011409277 0.9410229856996891 0.5360780944519026
Ni 5.922112260281976 0.5002474670735758 0.9155927914054885 1.5569076080572735 2.465642423147218 0.9087450995025897
Ni 6.761396380967457 3.5024421090614375 1.8183018111474383 1.4211117092701655 -0.8796109011407948 -0.9428824075059311
Ni 2.3528698363935265 0.12278293242154262 2.785239356582592 0.27007484670905746 0.5197150797128469 -0.047956987495252894
Ni 6.808804835647164 0.7936824467165108 9.950436054958796 0.7874502225451341 -1.8068910833330947 0.04452687876778138
Ni 0.29149579362820444 4.4109815595854664 2.7039553726687924 1.0865926760441091 0.16188051168930184 0.9393970200604919
Ni 4.779132668375382 3.07040544109491 0.2173892805683576 -0.7174398547942676 -0.8411345994424676 0.16517795149365103
P 5.147642374863612 2.0001016493800168 2.535332620627348 -0.468670968651838 -0.6554384733908067 -0.007556215080703116
P 2.6551860856980465 2.6463314809935157 8.16137742636825 1.1202874971933932 0.8489078156299831 -0.2985197323133117
P 5.71821728694557 9.164368752184437 7.8578971137661275 -0.6372774862110637 0.5207322081234514 1.8501473229185685
P 7.528675922793979 5.483096729417486 0.8366580821562867 -0.30493977690704255 -0.5304802886491509 -0.6762901200288353
P 7.641818094018533 2.853564171368079 11.152624724263472 0.7314413112796823 -0.26168533709378156 -0.3015670037800677
P 3.2657400437356596 6.427624677151829 8.837148352472628 0.23321859711265644 -0.01778303501503389 -0.5771784640366382
P 1.8463276004926183 3.7943682199276187 12.214115287931332 -0.27450254346310793 0.9736705965313813 -0.18570769601588663
P 8.654957734697014 7.888606868960998 4.933358182570147 0.041454924710676994 -0.5411817342270551 0.9707755343717731
