# total energy = -340887.4909204851 ev
CRYSTAL
PRIMVEC
9.09073297917428 0.00000000000000 0.00000000000000

0.00000000000000 9.09073297917428 0.00000000000000

0.00000000000000 0.00000000000000 13.30520662039251

PRIMCOORD
 96 1
Ni 6.547891451576648 1.9640710775724481 11.543970210220456 -1.0144290093956658 -0.4746919780349373 0.10393761662593068
Ni 4.984858066722197 0.2255065445562997 6.18484575082073 -1.251701979083354 -0.20380234873406838 -0.09988581515406024
Ni 2.5017243080024714 1.6575679188355112 4.532951358541385 0.9892445397102382 -0.2675181417254748 0.28852045500875473
Ni 3.4130339429159533 4.342579588519502 4.969667451635905 0.09048097690039256 0.5466851805437876 -0.5548188653945154
Ni 5.210044617471771 4.123247469915691 2.5448734728780456 -0.5502579854967105 1.9246869459983562 1.2567259146605068
Ni 7.218214841533509 6.437739038051454 2.6150184789027837 0.13226448859508189 -0.20782663940211304 -1.2738890567033545
Ni 5.240589480840976 4.506321873937989 11.699441746623078 -0.4905829382335809 -0.043840908444350304 -0.3616570270934288
Ni 5.841386943700314 8.338493159264821 12.284444969715256 -0.9661794303606586 -0.28531171826346996 0.8185801111807192
Ni 1.7169485877425488 6.761469136099296 0.28790079150110237 1.9984971471112873 -0.06180906288699678 1.2883926496361684
Ni 2.587613554762068 1.6506225987122756 0.47177632361714217 -0.2431147731804458 -0.8792270354388149 -0.7744054735460341
Ni 0.7320031052764191 -0.18802908809026295 4.614764320558496 0.03505853426602994 0.8762586968391103 -0.21078366514790794
Ni 8.79029350586783 2.5781682830237935 1.450680104834708 -0.10984241214613986 0.3333795203049742 -0.5500540970160205
Ni 6.631198930122896 0.9028543440147626 4.776449373066135 1.3537390362524622 -0.28231972551468154 0.7169994248227394
Ni 0.6320568578537858 7.393384178516011 2.4858118887044185 0.2771667205588323 -0.6514558345939748 0.3068372510400716
Ni 7.423792680888032 4.508021841036215 3.7587345248300736 1.192169628045676 -2.422553305267228 0.006961518919497688
Ni 7.73419576414443 3.8107080643700786 12.620134836289445 0.5629126981462436 0.08440725990248689 1.1748483631584088
Ni 8.360010924620449 8.81244762254365 6.739486834279929 -0.43911999446759853 0.39822094226039156 -0.0859244678779617
Ni 7.454064822262868 0.6623380899617682 0.31296667000345596 -0.6525336410391859 1.0065107829898536 0.7388656287682114
Ni 1.9068994568197908 6.672861760129166 9.219989734827319 0.9446688099823924 -0.8039556763993251 0.12375645112407074
Ni 0.04409187390277289 5.156027481120636 1.4073182168035268 -0.49246601418890673 -0.910275420104187 0.2571126301214346
Ni 6.396376202238989 2.0164064282916483 7.273304684395825 -0.25996629752014583 -0.32217516694872256 -0.8853568024856364
Ni 3.3187721309292613 4.484640475385741 0.5200462984736313 0.6819768860009674 -0.5558282804956363 -0.1949443841228062
Ni 6.041419435836022 5.971138977887414 4.781132918782747 -0.5558339369225911 -0.7325756819944416 0.3449026904532254
Ni 5.114937367302539 3.1425209967024332 9.374942190367328 1.365081714958791 -1.2243130455474398 0.8475430740719727
P 0.2159094575744933 5.797242343545296 12.683893602279403 -1.6690113054337643 -1.7631046822757634 -2.269374692227298
P 4.114029466506056 6.271696797147131 12.915258215274724 -0.4248097484925136 -0.37762512038691093 -2.175520685089614
P 2.2659834160708585 8.487372095990258 1.6148660180307002 0.6620783473048275 0.4797261980247351 -1.0735882933646415
P 6.675543526407116 7.848911725708713 5.830381702154254 -2.0785268467713687 0.5034158283321911 -0.0698311618605249
P 4.5753750829119415 1.2043221456623536 12.8022567659817 0.43782030181956855 0.22238576816321054 -0.20004853811859094
P 4.001095288638309 6.474201968698442 8.44289841129537 -0.40472351926559974 -2.1448764778411964 -0.9084391382263969
P 4.7905436457350685 1.1514595324207089 3.7600781351889925 -1.0822074024922201 -0.09570802962728679 -0.21865946835155892
P 0.24744430178325355 5.503493483411632 3.613468245456697 0.744257232097428 1.025052036327151 1.0830895479868572
Ni 1.0288891774186293 0.9503543337738196 2.506355127466838 0.7361777975234032 0.46688430906506045 -0.001005815556695042
Ni 1.7548024005608132 6.468274810687514 5.078038990537877 0.9827144519012043 -0.7270568090587414 -1.6695923747482149
Ni 6.039492200409155 5.363578009567753 9.368715038162595 0.031914332210093425 1.2590985286577414 -0.03240309892105387
Ni 8.582970245749353 2.0103338185503894 10.00199005425789 -0.017599715359634206 0.896118926098147 0.8035142179865322
Ni 2.373926781441673 4.98817618432034 7.1178467840929205 -0.15568363884997058 1.3853137257349497 0.44873823428365295
Ni 0.8057162240608041 -0.26140221345500264 8.865020241397948 0.6485851979143992 0.3962015978375176 1.2000721707222042
Ni 1.5112616595902788 1.0998787125525935 11.372878067053753 0.9837423789450864 -0.21865072660081056 -0.6558267099681607
Ni 4.220863762433108 6.721797176651912 1.6829356096782988 -0.03554370143256459 0.9091276796529891 0.9009636557849581
Ni 5.7416434196268265 7.654597304721586 7.980689175240654 1.2444388697630375 -0.2229431833285773 0.05274463869188335
Ni 5.307751817320645 3.0248687283321214 4.8953579807571685 -0.7391780178023076 -0.7555132646272215 -0.49750563349534327
Ni 0.8906554892066866 7.16955214700513 7.1149332041197555 0.24743808314614807 -0.24579360556418955 -0.6177268177726457
Ni 5.146864022109874 4.764198701079129 7.2585222432277705 -0.18806488339415356 -0.23197958249923273 -0.7982524553669608
Ni 8.297348501047852 7.20811503700875 8.828936394323131 -1.3902021641755027 -0.45198759445888614 1.3704797460459108
Ni 4.241454273007885 0.7232760014566464 10.68035601582866 -0.08383621789036529 -0.2770543633506841 0.04160893379003802
Ni 8.476745028943055 7.100089855039625 4.989546157805381 0.045609827419315 -1.033442060163059 -1.7284354130283521
Ni 7.480355222519934 6.065464425006125 6.8297623597822765 -0.6572917245494615 -1.0523841484832006 1.119981021696568
Ni 2.33654568674698 5.112237419558297 2.6686383502154563 -0.23889816399593697 0.6907325207064103 1.0225246419196068
Ni 2.269546983463932 5.2980883679868755 11.515457125709291 1.4415159839581302 0.4214853121049708 0.6922363589454464
Ni 0.6510655808612285 3.34282621083251 4.0438117346161535 1.378082240983517 -0.08479626781078944 -1.6070101811406194
Ni 3.581821585230246 2.468088595363763 2.371041382741261 0.270783699850624 0.2935924702150234 1.2211811847866776
Ni 1.080279091890687 3.03094133807338 8.193479602272893 -0.9562979095808886 1.3622964389041698 0.006805195847291506
Ni 3.5297771379717053 2.8230544524998757 7.3191147068631155 1.8361733772369795 -0.012112209882501722 0.14255327211559968
Ni 4.1523469067147465 6.711233744736729 5.964458198098716 -0.9487836034817144 1.2182742955525276 1.0431811418276937
Ni 0.5421176894778253 7.475091688028634 11.298754956204501 1.3234067038175077 0.11352217499057225 -0.06007871045945137
P 0.23149642862593334 5.339233026203846 8.15653122647593 0.3717244386317598 -0.10915412782986363 -0.042793441016442425
P 8.662186894380081 1.294529490666109 8.067971122318156 -0.9229874683542169 1.4850812701435907 -1.2924197685176904
P 1.7640294947035937 3.1217032177990167 10.373191960792038 0.08772424009086183 1.1421141061501814 0.17201888567488438
P 3.9936772503915026 6.214752444723114 3.835997574907814 -0.023698629168520478 -0.3348219091784556 -0.06058290378937953
P 7.144898078714272 3.7927175034749427 10.49732955818842 -0.8294047126000491 0.4361226024021715 -1.302578454218247
P 6.525419159240733 7.4913641003592515 10.213369599505933 -0.26225252245116126 0.5118948123374797 -0.7371602160413304
P 2.3705904823772395 8.441709343399927 5.865720109111132 1.5294950203722757 -0.6131934486786665 -0.02557939113100111
P 7.102398901258607 3.9788320831647432 1.5560171570126802 0.46602813171235224 0.4964537951920611 0.27077624365145625
Ni 5.545801755471238 2.905198317203487 0.5682071845323733 -1.3459223684215207 -0.6735750350905174 -1.8814222217724503
Ni 1.6008871976727164 1.0328436463369637 6.891059355236406 -0.39434860378917896 0.30268954742028514 -0.37228442490028785
Ni 6.350695268182366 0.5905776606570575 9.363658772387014 1.4363192702485392 -0.3550315513571111 0.5427783892902136
Ni 2.5178967222684876 1.4546445735595028 9.113840880179445 0.8647962047254655 -0.3245212985833959 0.6932326614204448
Ni 6.5951178102680235 1.9430805747392654 2.5009397777320057 0.11016791380635865 -0.3417770003400501 0.6206589038177763
Ni 4.311916545619405 7.134552824394582 10.584358782884474 0.39872564981095204 -0.9782062796182055 0.011773081375528112
Ni 8.083125374471866 7.4706281380541455 0.1564196998697088 0.1520146746388156 -1.0494813730141088 0.026378232883212636
Ni 7.724505042611224 3.740327608356869 8.078948182591464 0.15143643353784242 0.5688995118572977 0.7407723588726209
Ni 3.244491750396591 8.30563015894349 12.653664187350348 0.4397167475113331 0.9936051306717791 0.08239485745814842
Ni 0.24663249931335177 5.249571125188825 10.451493172595008 -0.6978642466551852 -1.9361260410732333 -1.4944542267180585
Ni 8.400328326121171 2.300773651819057 5.79329969258005 -0.039031145760532786 -0.387388627531578 2.1001955899940543
Ni 3.402234151938984 3.0221505991215882 11.79405446090919 0.8133594862117283 -0.9147486253841924 -0.36984496222085983
Ni 1.1296054099386945 3.410915802093029 12.657509567470937 -0.45303737587963916 0.2866692607326289 0.15872062590408148
Ni 3.5391951375105437 8.603606209989856 7.933854627147855 -1.872162393737079 -0.9287932764027165 0.3544905912519766
Ni 5.782533537315721 8.034908125867622 3.671026222368042 -1.904119920480282 0.23606995051852245 -0.23494020778945346
Ni 3.234782847397094 8.523198675317055 3.573951737546103 -0.44297099278257257 -0.7635441053514979 1.513406342340529
Ni 3.3114813629464925 4.4178144960324595 9.272412356584717 -0.7712067641030783 1.099424794811771 0.6990500394331702
Ni 7.2595594958796825 5.844095982177701 11.409028276480534 0.44020885665640314 1.31697251815639 0.9302744889339333
Ni 0.7775740414619805 9.120823472308578 0.05522529478618511 -0.42890988670381613 -0.20345345003508183 0.3992028465576867
Ni 4.41316913139506 0.2211702648458501 1.6682331669619255 0.9460703183156094 0.2659428268185549 -1.241794747271971
Ni 6.070437056036767 5.5745739258770515 0.37350004387335495 0.46074220072306454 0.6083289214975137 0.41842929888746644
Ni 7.857220655803789 8.851765043398354 11.251827682633618 0.6197379346654036 1.0059741937600932 -0.41955467074116126
Ni 0.12569483998422126 4.4654044840496585 6.060109074110054 0.22554822505159217 1.3584243575432735 -0.037953853535953985
Ni 7.8873109825157135 8.721758468683177 2.85712015681637 0.6377402847800951 1.657845775735248 0.02032045672490694
P 8.450272814023078 1.5888783391873829 3.8617834394752992 0.17471468733949266 -0.73073682901349 -2.1506848569928576
P 1.7280665543796134 3.372852902412416 1.6081070579369492 -0.42223067491142774 -0.7964719664277703 0.0251063081493245
P 4.646200984849284 1.2996748456265168 8.37456337023992 -0.1856354480170545 -0.5936810896773517 -0.56694084546903
P 8.737739977553135 1.722666658891129 12.199583884874427 -0.562194074812664 -0.05942719291838153 1.5750382562197134
P 6.4028760764380905 8.118333783944761 1.38932947405502 -0.9517614551631158 -0.6185914797657862 0.10070831105535559
P 1.9689891642042159 3.110639795560826 6.046072073059939 -2.2456436671589453 -0.021686226724182005 -1.420126976759393
P 6.830385984076065 4.051657946394118 5.827867205366182 1.1340022756763244 0.44184664937014223 2.1856893980925003
P 2.5095059755751015 8.2981757577641 10.48636613401483 -1.24620393208326 1.7311826367561862 0.1610608440014839
