# total energy = -340896.7279508631 ev
CRYSTAL
PRIMVEC
9.03009791910069 0.00000000000000 0.00000000000000
0.00000000000000 9.03009791910069 0.00000000000000
0.00000000000000 0.00000000000000 13.21646108089559
PRIMCOORD
 96 1
Ni 6.408823024482788 1.9547182030619425 11.43908511560287 -0.22377210698777592 -0.11855999452479582 0.8279800643383805
Ni 4.677626834847337 0.42141841502000466 6.058425426470742 0.03478985398567557 -0.5082533589301506 -0.39677263984963923
Ni 2.75626581344408 1.533102931907623 4.65140162451351 0.137815243209982 0.6478177236207552 0.854513848962851
Ni 3.4174947324904514 4.222564081055288 4.7173908709691625 0.08534725521825301 0.3677446280484054 0.41335985478435905
Ni 5.002945141949619 4.699533852363301 2.751098791423209 0.391759502905764 -0.30744865937182536 -0.6032039415661224
Ni 7.17274221689748 6.078122779029512 2.630234543012583 0.40940935477704327 0.06913542134508094 -0.03919852457633249
Ni 4.910693661758731 4.64818871567914 11.241036105354773 0.3106517396901553 0.26493392593806636 0.783031267541832
Ni 5.690352314820713 7.870949386862184 12.332411932055496 -0.8665322135799657 0.24025339247225072 0.78403091245094
Ni 1.6661975449199065 6.466028694706876 0.5055048806857745 0.7535381431787216 -0.21449093879616607 -1.1103105884863393
Ni 2.784268147045484 1.5784972340728138 0.35418030602417977 -0.7345891128800446 -0.4645052673099226 0.09745175179127087
Ni 0.8033852353056742 -0.1786920923803224 4.53929928009948 -0.7386830804437601 0.9592420798108771 0.083259776561605
Ni 8.648910381518148 2.2804518946678245 1.3497314427932638 0.5798850643345239 0.517903737535721 0.21329923248091007
Ni 6.957825886773839 0.7202812442918981 4.935026163571805 -0.15195373949389313 -0.520995231976851 -1.1382754491303815
Ni 0.6647578813073926 7.307200374693321 2.4360314514619508 -0.5919597361108708 0.07038189215767233 0.8426826606558777
Ni 7.62766048912306 3.6887588735372656 3.6453114604802535 -0.08690662928557291 0.04876662788074182 0.24614636091791803
Ni 7.535463189519598 3.7487458139158933 12.642231882124536 0.5604516382002606 0.1797355375928517 -0.1722168606183034
Ni 7.905372120073583 8.653967236344585 7.210227056308247 0.22107399133032252 0.6765330892775768 -0.5265819820360093
Ni 7.120873334534867 0.4140760424139739 0.42233316393771575 -1.6161118863315715 0.7561244158486591 -1.4457940425081939
Ni 1.8180567013774391 6.531984529800281 9.228711295721789 0.768115012551632 0.05083508037399632 -0.39346285875011594
Ni -0.032695275482296955 4.795243860051556 1.4535459633506773 0.28804891468897487 -0.474047402472403 -0.13084575387068434
Ni 6.396361489374779 2.041551624510217 6.974868390548727 0.5544033751236517 -0.4110918846857887 0.61866295643367
Ni 3.600724449067712 4.276284133488294 0.599656293475738 -0.70107298340047 0.7597121331999175 -0.37377669317509815
Ni 6.092291002641444 5.669068374060149 4.7608735014080015 -0.2657474229782971 0.2770584771157422 0.49440334042093564
Ni 5.2905447301054105 2.8967289863463175 9.301877663991824 -0.25596129012581076 0.06418836175245074 -0.19946926857635325
P 0.1847160706923174 5.282625334243291 12.471541359497262 0.08416531909500988 1.8829836527222992 0.03385165844212234
P 3.984323008044698 6.1561970055105615 12.670872643647776 -0.028147923189125717 0.19090081018105187 0.1823097260779312
P 2.1797301826426523 8.508167275580874 1.4022270139504394 1.2585457414780648 -0.06690113269792348 -0.3276084221491519
P 6.450478866115577 7.787195228799294 5.766804735718141 -0.800002605288848 -0.5730315317478002 0.17506924246543398
P 4.615219828230342 0.964035192073096 12.636495963935689 1.0865055156469416 0.6196805990649069 -0.7139058734990802
P 4.0330584464345005 6.19407826621933 8.172002014875883 -0.12341140907982617 0.04973104867654016 0.2637653595512619
P 4.6756492434062835 1.1161471912719505 3.6741897135783796 1.0553393744567825 -0.3343855929719854 0.3171646011080086
P 0.1365522374998609 5.562350677026486 3.602965719367573 -0.0478284323371886 -0.6327088930037748 0.016267112591139728
Ni 1.5477768410021993 1.1861214199327947 2.60047043731004 -0.059663220188587565 0.23440516122158989 -0.7070901361288273
Ni 1.7664496918540518 6.141225103185142 4.957309736170381 1.2169028691262977 1.4348995070828772 -1.054776817085093
Ni 6.044268941986086 5.738762669685959 9.258209916545944 -1.0858557978780845 0.4253411955159514 -0.7528616859369873
Ni 8.526823457851272 2.4115237657495325 10.07938895977215 0.9977926863905655 1.139473840313857 1.1440738009797136
Ni 2.4120655716237938 5.092839766587469 6.9822432715072145 0.19541978109732797 0.280441277545046 0.6152073937849017
Ni 0.4126754742290084 0.1379320364596463 9.10775403730275 0.9136854742270006 -0.4814745481744095 0.8954362982088255
Ni 1.3780922712814707 1.1478699252099485 11.352173132302827 0.24775432883498624 -0.3172646170209827 -0.33878449337062944
Ni 3.9299618186604834 7.059513819274778 1.6093025100637293 0.5523462354843068 -0.9729645716032922 -0.7293736301173761
Ni 5.702994451886809 7.9661627391657 8.010920419428633 -0.8072343471505969 -0.20407642833106143 0.2509820917436645
Ni 5.349908593728638 2.792178512809699 4.950780975385533 -0.17624526505140617 0.041516116965915596 -0.9150509871159596
Ni 0.9682341875986209 7.517845468508203 6.792679844259839 -0.20028713649195828 -0.29444427669235745 0.763666232751659
Ni 5.0997477914843 4.593421171889229 6.991520794094148 -0.08031432078003588 0.1409872131800604 0.24182073695937062
Ni 8.14875131879175 7.1588448962226785 9.208119963470489 0.0905370269493086 -0.15576771392334465 -0.3617799258245382
Ni 4.623563638693966 0.3549072289054803 10.523739308420264 -0.3183257112956453 -0.02285813554509612 -0.6198451496672293
Ni 8.379668982401908 7.165165964755726 4.896143465005444 -1.031579038812391 -0.5181623905137464 -0.08166954925634967
Ni 7.335184648098917 5.986729158139537 6.9925917637056045 0.1673731593727569 0.6488333093694633 -0.08519581724205327
Ni 2.227652912221062 5.285144731558606 2.6736765380108527 0.9597987236452954 0.19519558090166383 -0.7314778209445725
Ni 2.339689336920391 5.363119626962709 11.542107696574073 -0.48704407184238707 -0.9411345715768888 -0.3392159244810932
Ni 1.1313990266324052 3.47824923119095 3.69729141304709 -0.3882658879302087 -1.1391084865546381 0.4183591077711634
Ni 3.622586316094155 2.7646908947888433 2.6419041385343807 0.33094725671439773 -0.08975335470574866 -0.1259048649256412
Ni 0.9008678512125541 3.385275343167714 8.018783828683745 -0.11524301433642088 0.3795650177221011 0.7593663198247245
Ni 3.766345474731481 2.605273546385366 7.008041358210165 -0.0869336258687664 -0.0017928302343646542 -0.06746677539340638
Ni 4.231612239155451 6.901884430256362 6.000960592436801 -0.2677006900499261 0.42634726818296254 -0.16693530050438993
Ni 0.7046790411327541 7.277464262294281 11.311427524538798 0.47378746394279686 -0.2332383946069983 0.6931696693929933
P 0.34359071021174303 5.632993132932252 7.900457037784244 -0.6200233271163063 -0.18573314993718337 -0.18387167124841236
P 8.406199410044902 1.7159262940791875 8.012664131333963 0.11183347443423966 -0.10876820524535463 -0.9499825088858219
P 1.6744871747961039 3.325550275628312 10.419276426833319 0.6264004342872437 -0.18660192569538187 -1.5916825496446136
P 3.9793383940014944 6.282058510101457 3.8375053552471674 -0.39203281117180866 -0.5934309213397587 0.17058395300057075
P 6.825941306880739 4.02117483759237 10.433827526596394 0.692305264510169 -0.14431344933981596 0.3289677643905238
P 6.2726220577914065 7.78612967724658 10.24652433285448 0.41337888094775255 0.10514732066331568 -0.5982453120092665
P 2.5297638677091525 8.724420060194362 5.768033732042924 0.519761616680066 -1.034369714183651 0.9018337170947371
P 6.827765386657419 4.0942554199323125 1.5492993155088735 0.27114391140352007 -1.540994793481759 1.0099095242587575
Ni 5.378217950658789 2.7718246721332838 0.47251612702158596 -0.15060313900326966 -0.14991948267268373 -0.5543732932166646
Ni 1.4523196760552661 1.1067107389618998 7.194670906648415 0.5178206909036115 0.19700949418195104 -0.9229872112439007
Ni 6.86384965788322 0.9345880428069954 9.335500330528898 -1.0636268112765552 -1.5874880519472918 -0.8979292398340083
Ni 2.888954072050668 1.795607877987213 9.178263750769322 -0.35005312430591323 -0.757170083504354 0.5411992177285517
Ni 6.51387918350205 1.7578349784532976 2.2896589824911042 -0.5429984757208197 0.8993636582876897 2.04492998465253
Ni 3.9736855527133685 6.974694109659174 10.515611317296553 0.5621462522938642 -0.39476075162593305 -0.7799567423815664
Ni 8.072040637094258 7.037263658038447 0.2353442176028723 0.40673643593057046 -0.3826392857720507 0.2018809633416394
Ni 7.38705353046153 3.916236069845864 8.278196869240885 0.8926736478620239 -0.36449475365254 -0.07834202754501346
Ni 3.0083500265420455 8.30630846702693 12.472638516392639 0.16235282334003007 -0.17069013956113185 0.25728643669513757
Ni 9.146586167320844 5.073993952261081 10.258801653965241 -0.0012444139300623728 -1.4697217569683847 -0.7946068881945734
Ni 8.781517369243595 2.0928787009985688 5.757288818546533 0.031149686129926996 1.0292650459672337 -0.08572135072822011
Ni 3.5507609173629175 2.75738554558422 11.465663402764758 0.05750169376089452 -0.5767976836584517 0.37571427651744327
Ni 1.0992970285824246 3.2724081494611847 12.493745467234278 -0.23663430766242471 0.2968112342626372 1.1414926705160986
Ni 3.0085125683043237 8.327809130137199 7.979359324243123 1.033004458405008 0.17032915667728732 0.5137632330047862
Ni 5.561872081837555 7.980032969546788 3.4901499972190986 -0.31039154405023317 0.16616139845284286 0.7724928299043535
Ni 2.8798607634609827 8.209316185436258 3.5178787188540004 0.8369061631834166 -0.03672923710023352 0.4480193538397574
Ni 3.4098372094675584 4.332713215292606 9.313785654098297 -0.7203973947606948 0.585133714327973 -0.3244184544569445
Ni 7.254834836945968 6.097167255509796 11.335190227174108 -0.09670896008797537 -0.4443087377573896 0.7468877277417395
Ni 0.3922819011218138 8.976838386914787 0.353345021968027 1.0206744760847453 0.10198820620904371 -0.2556514721948759
Ni 4.567035225812705 0.3863554478671859 1.6072806711429444 0.19326133999342845 -0.28220685408590107 -0.5529303901225511
Ni 6.008410423207893 5.577701843463888 0.28277661286507605 -1.099784749254351 0.8927883190630174 -0.020752144945686838
Ni 8.074216890689208 8.794719372379761 11.222202933165452 -0.9110462368319407 0.794745984875599 0.4670745706989956
Ni 9.122475805916219 4.681681348806393 5.653262090688367 -0.8190981884677183 -0.5959814556757543 1.2122735978844024
Ni 7.805426996468186 8.74990299648045 2.5054710983268573 0.982881830717004 -0.07656950902562297 1.5627977482894633
P 8.660568237912669 1.5326423969145007 3.5873969275706745 -0.9928931922064193 0.2509792635301871 -0.07070739381789112
P 1.8518112073439168 3.1841389424461175 1.4778513748700386 -0.9034015758024893 0.9954370416741953 0.5898164645156229
P 4.816202717287563 0.9996769885015838 8.254948882186122 -0.4822726185956726 0.21483958038483641 -0.07030013107714345
P 8.535420111056219 1.6538263107909406 12.453937183632721 -0.6926636762908521 -0.29035699399686127 -0.849281396919318
P 6.287593960116827 7.641485569014627 1.377829495432454 -0.9619934173037691 -0.13128361273905131 -0.1434881252250432
P 1.9070483162248542 3.1533553386901727 6.047403288968687 -0.6020230338841439 -0.19193670764473394 -0.9640999221238106
P 6.952028563919244 3.9315420857937453 5.9659897322826065 0.47119347796337563 0.47897055080563317 -0.45916174360982215
P 2.33487629473737 8.494297045199787 10.271780613683168 -0.2420523933542025 0.47608911549278005 -0.5189136668574741
