# total energy = -340865.3270790718 ev
CRYSTAL
PRIMVEC
9.26777122778604 0.00000000000000 0.00000000000000

0.00000000000000 9.26777122778604 0.00000000000000

0.00000000000000 0.00000000000000 13.56431999253453

PRIMCOORD
 96 1
Ni 1.759365837286948 3.915040096715335 10.78861218406178 -0.27975762121446013 -0.8641305461170086 0.4251218804162937
Ni 6.647373601326003 1.8387813667133077 1.0039470453390646 4.669296633248255 -2.104449223064085 1.550030421321466
Ni 8.426563200713893 5.205947914873539 5.269901095216583 0.24236503949861485 1.0113382862854843 -0.5167374851417618
Ni 8.497915769397935 7.005869517917256 0.3213757135323899 0.08434709608851279 -0.29055805426407383 1.0663406106632927
Ni 5.966414861667793 4.102768065446849 10.64374487572682 3.7917654974546244 -0.6775538172326073 0.3584377488251827
Ni 1.3875428660434477 1.1458486669642043 6.187377983868307 -0.5295328371342171 -1.318011758054182 -0.681566023715794
Ni 1.822748122938351 0.9213424759225533 9.948194030679208 -0.22607324431712678 0.9539476641811571 -0.316823415718506
Ni 8.550751331687547 5.402053948560291 7.818595571646898 -0.05542784195100131 -1.0317903834922488 0.9088744259916024
Ni 1.3549017766935072 4.430819354407621 2.4873436861751386 0.23578610072951653 -2.8634949263245977 2.763765177132427
Ni 3.165286693160302 3.2636733497585326 0.7444531653383292 0.021601380319859573 -1.0021080259364676 1.3744379593627103
Ni 0.2705827679641664 0.8641417935069279 8.141291015765157 0.17165867412198824 0.4604195272763232 0.12098737301936584
Ni 1.5238717769854189 4.613385174709857 0.3235415916076543 -1.6147666851575866 1.7465771169343856 -2.834469999847157
Ni 8.167315843420912 0.6170426303990403 3.1491737465550194 -1.0337853024350907 1.9402356923662325 0.3947748926933201
Ni 7.161549534640793 3.391568589119457 8.525148187610844 0.43708188099164724 1.820711791266271 0.5582039798166644
Ni 3.566312410724547 2.0530893025815704 8.416402943401476 -0.36421913139365014 0.6771236716737241 2.4128255364565026
Ni 4.627657542000859 0.21086032506809865 7.383276321169086 0.7704446891260731 -0.16810926620783304 -0.9867395139001973
Ni 2.0912261801156435 7.912637497215244 10.352804522053944 -0.1535251977460711 -1.7192383199101167 -0.9647498970029836
Ni 0.23082032340227426 2.0748222255019595 11.706211407290283 -0.8587224877275599 0.31330588948355076 -0.11060654400567402
Ni 7.01094825640782 7.086925442804984 2.4951703187577685 0.5076661189681128 0.16760867242233068 0.006030522464796066
Ni 0.2338823949301619 7.210298009933436 11.780232167236063 0.29755531151751335 1.5506351447850004 0.9420730242307582
Ni 3.0218030630308936 8.998570024870146 5.327793153346434 0.8980786209276791 -1.3095034634728544 1.6275250132645196
Ni 6.307376155587243 5.654906543885226 12.812639610441321 0.3198622025448297 -0.465397954327521 -0.1472355080826174
Ni 7.842897520679668 1.6386716559683012 9.755581019870364 -0.6430598972207958 -0.60019960752216 0.32501752149352414
Ni 3.196185441568224 3.003165575613878 3.5361912283008556 0.24307749218460717 -0.6562812810070762 -0.6493524150977269
P 4.410671220322792 8.364747168356114 12.581787776617757 -2.9267373792240114 0.8021132238739477 -0.8359916217889474
P 2.1231351155590974 2.19095666350426 12.676412644980001 0.7568474100576127 1.3616521204519516 0.10683679255059664
P 6.948622496646791 4.400272781296491 6.517669293072089 -1.9245139107556017 1.329875342260987 0.6734359384094918
P 9.046521471859524 3.755893933649698 9.673788307190664 -0.10207150995146938 -0.3184776634924773 0.32017304891702925
P 3.919933479786536 7.515745205502809 3.309381996173611 1.1732208548573149 0.1291079452439712 0.6669292476392257
P 1.9155463136427673 1.8791888481345853 2.0231321597040157 -0.7283050796435457 -0.6337944127584698 -0.4553588249239642
P 1.6161417047446487 2.7761885968321094 7.4034735744400475 -1.1603059465678596 0.8240686450991163 2.284488922160917
P 0.821685207924585 6.362741819351167 1.899981092301704 0.29560230155620054 -0.04110448334979372 -2.2821949839204176
Ni 6.383492358548929 4.265797424548156 3.413854797966647 0.4597623533082985 -0.4482111581355893 -0.9244704806576465
Ni 0.31809770294094364 8.246369929779513 2.5815477977354275 0.062240236887144425 -0.04200205546339863 -1.0690896341633396
Ni 5.083224091712861 7.0506235839226115 1.2921395049198754 -1.8565097748014867 -0.04042802610805941 0.31439269478982623
Ni 1.9130532832523257 7.085044085298443 13.58968474594346 0.3686913082323908 0.33978825204479546 0.3134928086833762
Ni 8.811036679328964 7.233791809337779 6.749699987362807 0.5801018083310203 1.9207184482689115 -1.5024228467458318
Ni 5.868408183679257 8.832612050142894 4.440375353052915 0.1732393883455468 -0.5122740500537694 -0.1691402785755087
Ni 8.908663378707804 3.408982730768673 6.696989539981267 1.7298279225005044 -1.9039972788594883 1.1947708131139487
Ni 7.567394493108494 4.654561881121494 0.9853809197585037 -1.0931947547416592 -0.3937495367525993 -1.0073088534111168
Ni 3.9602575512691 4.891158806168237 7.225523104079967 0.6414976949399984 -1.5625756049763282 -0.6559838043713154
Ni 4.842679096233672 3.972472473405165 5.06076642910276 0.17450179999773818 0.4305461367556585 0.052637423690057736
Ni 8.503003775659467 5.173492180942963 2.896592696919452 -0.19031845531502062 0.5127723298464266 1.3460480953661076
Ni 4.00544720250996 5.380728807562502 0.04184027881295877 -0.342782558786429 0.4645975699134128 -1.9804724283990924
Ni 5.011806648632042 6.781246552961405 11.061729687385744 0.18980346335181505 -0.009170867865990659 0.4024709757859972
Ni 5.4066044241056685 9.280838525248093 1.4630334944647818 -0.9416822165502428 -0.49864823174021866 2.3445303516245297
Ni 6.279628449308503 8.098372895188598 13.210534674972514 2.195454190788748 -0.42482388955990064 -1.7561920143163303
Ni 4.043556276731128 1.9638684714708732 11.096359640385458 -1.2915841599902724 1.2026512443032902 -0.3663377203985497
Ni 8.351549862497421 8.254108518537945 8.854421895562318 0.2547636702732838 -0.5740244917886888 -0.08104374274689269
Ni 6.846667748225809 8.46993636884499 10.637003499124566 -0.04052264270439473 -0.725304602254325 0.10110066139776783
Ni 3.8962172538789557 6.390980717491221 8.864458891520862 -0.8289043759248627 1.999550528076466 1.5708039064233914
Ni 8.373560818546856 0.07451751246967507 12.803184630499583 -0.25279651924458396 0.48255338306088513 -0.12764678731741244
Ni 3.9286173811837233 6.430137049831795 5.464291664497123 -1.960511411896133 0.3567760448520436 -1.7365207611396478
Ni 6.386986308203935 6.319220366884581 8.91693949818239 0.4286833725153069 0.26275954399456686 0.16237956281290744
Ni 8.145128799723082 7.709135782295883 4.463624483303699 -0.0943826259476439 0.15194474063282867 0.8199276263475492
Ni -0.052425926812817346 5.911114072300644 10.00049854969234 1.269619225683407 -0.7505026987865074 -1.894766247179524
P 7.331603864135982 2.8607570069167787 12.602066586273237 1.0086779658445015 0.18262545754613707 -0.11251584521324494
P 4.786368119830993 2.1408736291921993 1.9795087617567786 -0.5788309120383965 -0.07574238513863729 0.9043513413102683
P 1.0197235718582025 8.265841516583665 5.350743861372043 -0.5887751677353021 -0.61771524780842 -0.10688821461382238
P 8.977754611275607 0.09368975027155516 10.711688758248766 1.5822753973981007 -0.7705071669328923 -0.374208124285562
P 4.981491769795116 7.109575875051223 7.103851172924177 0.7283626723543586 0.4022534604585524 0.9277722913373699
P 2.2879716899991993 5.661375448021019 11.973984187096898 -1.1409113440913319 1.1531968463269042 0.03789651793545731
P 2.3085924804034064 4.430300359233403 4.834214841008431 0.10718054904326058 0.7676612128436651 0.26868233723690504
P 8.499528361546398 2.878236022962772 2.8569979990120835 -0.6465892505302928 0.8118078254538922 -0.17295759543906986
Ni 1.1033652048460536 0.27105727783773736 0.5250507357688563 -0.43558781294462395 1.1644965876104396 0.2680310768061513
Ni 7.38435601648688 1.4068939718250137 7.138195678578069 0.5355278783753873 -0.4636604028111241 1.7673557442426338
Ni 6.63014481509615 8.503578377459494 6.76283056527053 1.148689445374854 -2.1303314901474857 0.3534644639803074
Ni 3.3395393229040784 2.6412405837643975 6.27543756327669 -1.0658320464579902 0.4795904437778192 -2.4276803420811484
Ni 1.4218336186257245 0.7370343146782987 3.8370073187174287 0.23010653384623597 -0.12267093136937585 -0.8956499568815285
Ni 2.4003063419045447 0.2439230979970913 12.075906498319489 0.8531390801025114 -2.069457794590565 0.261280388345879
Ni 2.64127765484827 8.490019628533043 1.8718218969919767 0.7485010949754464 0.07216598064128861 0.38896934175513653
Ni 3.324506998393686 5.588651249233687 2.0824217976958694 -0.605648546451873 0.7007202280467415 2.4694995921097793
Ni 4.36579667329485 8.938867044293112 10.229273476041937 -0.2674183829228169 0.3058088097755572 -0.018907892648096468
Ni 6.118990175116989 1.1949863886375105 11.610460504755405 0.7341738797194969 0.6745906208392253 0.7560706797925882
Ni 0.6016256933934679 2.818014047211519 4.6308855066290775 0.07936944036826331 1.1646716797357233 -0.8788490832741056
Ni 1.9951842695723632 4.690622777958694 8.512465243040886 -0.9540520509695053 0.05759785301912661 -0.059973038119522516
Ni 5.973374957664897 6.231482379128793 4.725551153183582 1.9999480206252007 0.1721816365049938 -0.0069319512331429
Ni 4.059784143696417 4.579483668508244 11.49909804202462 -1.7109531970831888 -0.31350103621349235 1.2308367055985705
Ni 3.9919255246673813 0.5637742632052152 3.5165361396315333 -0.2858945873501334 0.7857676926363886 -2.3284761263751443
Ni 8.824780783674779 4.6558593690570405 12.108325161166194 -0.8070844518362941 -0.4612605351203798 0.28932495318792106
Ni 0.9603913021198952 6.443009983706601 4.052991794353836 1.058815505930841 -0.3323215113541051 0.886497600958299
Ni 7.233893754818429 2.768700237889817 5.209119346098852 -0.3470071383907379 -0.9715422373344685 -2.43273821622003
Ni 9.012490216864357 2.8191910541244782 0.6824869950908642 0.9461407665422287 -0.6574575607033645 -0.2995306900763293
Ni 4.051897270602494 1.1745787569655715 0.08128576560773908 -0.6018258302716732 -0.5313022703298141 -1.5066068029201922
Ni 1.7646021278839712 6.024672069973789 6.292772928872677 -0.7563370460800974 0.09131838520002337 0.886115535028532
Ni 2.5670428093931243 8.897328894813716 7.949220169557953 -1.6500010828798488 -0.7929418417873247 0.6977140942305661
Ni 5.465844016134294 3.235360309450734 0.05308857243704243 -2.1271250673950464 3.6883613847346606 -2.429007545533004
Ni 5.498781674155217 2.801146704049426 7.121484960745339 -0.4262801623904529 -0.4333812922116084 -0.3139826038356012
P 7.687866247923903 0.46528936823472217 5.306741411592207 -0.0014063934292233844 -0.48246262311929167 -0.6143486453290322
P 1.1243381705470517 7.1209566978001515 8.329848449998323 0.298026337616661 -0.41863395869910486 0.4449371153700079
P 7.503715638786107 6.366254304548109 11.109530069708342 -1.6056503246786156 0.2171422603760841 0.33300285369184585
P 4.802586719025312 1.4435387382332092 5.30122060042646 0.8329260954897462 -0.16146090765337998 -0.07142730270305118
P 7.490694420575811 8.918413073766333 1.2295866847701247 1.5507675565978067 -0.27983603986087935 0.8395279170769798
P 5.630532306238906 1.1068684222720269 9.078300658509423 0.7553641406438668 0.7994801571264748 0.5485165773255715
P 4.295695253691514 4.2626556501899415 9.485270724372661 -1.3632138085121168 -0.3899903268204832 -2.7978803736485816
P 5.421432857654761 4.992585291644031 1.6540598628838723 0.8179823296957203 -0.47872372490214976 -0.16693118673933185
