# total energy = -381174.8943914304 ev
CRYSTAL
PRIMVEC
9.22624855310240 0.00000000000000 0.00000000000000

0.00000000000000 9.22624855310240 0.00000000000000

0.00000000000000 0.00000000000000 13.50354736096297

PRIMCOORD
 96 1
Ni 4.896462367626752 3.0879884844740126 7.431542074284891 -0.7843299317485976 1.2290595590934896 -2.957791420316338
Ni 8.41326843217756 5.779829534984486 6.201882429624897 -0.8779078024067589 0.2849378798638189 -0.29373310955794574
Ni 0.5354582513096291 3.893384625341171 0.8647938064030336 0.5909436361415306 0.8883076575838443 -0.5820910708469071
Ni 1.8031687902368616 2.840531272131835 4.542768593738202 -0.0575410316392622 1.08044748237832 0.027655556933739465
Ni 6.216766213784712 7.144853007861157 10.586470682483874 -0.187551948313477 -1.0619489093535002 -0.971464847129314
Ni 5.962979794937679 7.0341287990203805 4.170719198360716 1.525964638621514 -0.16303493700871924 -0.4291168605082996
Ni 4.357880108558312 6.3515524788421995 11.92848020097904 0.051679430652162614 0.16821802387155546 2.7044865939767684
Ni 2.975299084692224 9.164146670366597 6.598427514900913 0.6158470842514298 -0.6611193258256679 -0.7765672570840433
Ni 7.377640485009865 8.186810161533709 6.3082361645278455 0.4854510163236543 -1.4340806107260076 0.04592170223277898
Ni 8.405961243326473 6.965568546050144 11.794146944725327 -0.33495329254999734 0.3585231094501374 0.8186690713500998
Ni 0.6252997691838018 8.579304001071705 7.567928170840836 0.39971372475583417 1.1550287573293205 -1.4680824215927493
Ni 8.342438522064183 7.347000113577466 4.230985053885086 -0.25682183835389316 0.04827529006662009 -0.05438320273657085
Ni 8.364599971079727 3.260971418525819 5.020902317560996 -0.042810410297306915 0.9486645614053469 -0.28893465972803783
Ni 4.64720603681745 1.8423711203230595 2.838769981283764 1.3423302801948882 -0.8510575149831342 1.4427133467003412
Ni 0.4708477553433699 6.183653207741087 2.059641892661466 -2.7091364340439537 -0.9303768188397525 -1.4431401498251146
Ni 4.983336723967453 8.06584481680315 8.517456766545976 0.28176899521753407 0.07399017833422096 0.2686604828600341
Ni 2.9607677432269943 4.659661472359076 8.346151164480442 0.17302470123157943 0.44097375984688575 -0.48042193854017906
Ni 0.829278285237157 3.7140171272932134 9.25911244668508 -0.5686549999466594 0.5039056234844161 -0.6079805370191593
Ni 8.515670564826822 1.8700775447167644 1.0016338343876068 0.8924363350402371 -1.4941302677197363 0.7208008008467005
Ni 4.448684846781037 8.721065310032502 4.2334429264986335 -0.6895161318008061 1.204543062009364 -0.8394608112844703
Ni 5.471912715898403 0.22463331868078998 6.658733965918899 -0.7422648842577475 -0.6314331116151447 0.2052809901621239
Ni 8.22239580218856 1.3319658243243415 6.254600291211041 0.22316532664171243 -1.0258495925277817 0.8959762298726957
Ni 7.7106619263987355 3.162758002717964 12.697601500424712 0.15910037784100342 1.4424207551605868 -0.8243108430169094
Ni 3.4236855379421955 5.177761459647954 6.015168992481945 -0.23290672229919243 -0.2894321681897467 1.3299856425866061
P 6.956489917477581 6.745679364373431 7.9546020927939 0.8521299221117066 -0.2552223550772572 -0.009301994127216238
Ni 0.17310933365693215 7.861990855105212 9.973747212697694 0.4043337400263488 0.6998995319176592 -0.07057318223287201
P 0.277564306608424 3.132708111192723 2.838067863769158 -0.5857641488231202 -0.01705952658544804 0.94049693799289
Ni 4.974092022921003 3.2607038573178877 9.608111905311718 0.6329282081034325 0.561938250048116 2.4397496145408564
P 7.706777675759458 -0.3312592279159445 0.5792626341722438 -0.29213311206067755 0.731028906332612 0.11083974306240266
P 6.5357822098756655 4.128211103419286 11.03238450112262 1.7403977275965512 1.2450461643297333 -1.276249586515731
P 1.2487173836635357 9.085086946547197 5.260266264675682 -0.12732411387067105 -0.5101963415891342 1.2111235434403593
Ni 5.893902872048678 5.0611785829783384 5.780638676982265 0.4624972357409583 -0.7805622371760493 0.47092196946954384
Ni 4.235143324106279 1.6441543964887748 5.3869703360039365 -1.1766928725663153 1.0847651359170674 -0.7886072189677128
Ni 2.696721735993081 2.722767435647903 2.2084649722619383 -1.1347977749944262 -0.025684806360613828 -0.4696472165221783
Ni 3.237296864748181 1.8653260267138478 11.110314009494724 -2.7515645213011775 0.7515789625698217 0.24137670744341655
Ni 2.255421041629012 7.236930968383693 1.6355629138396182 2.4946102711344778 1.4724265574940576 -1.4442619221343838
Ni 4.564557302312353 7.076929366040826 6.066157855089941 0.9570332450850162 1.451314715216107 0.2885703344100837
Ni 0.547209724086939 8.426914053782053 -0.11080263195344628 -0.15427853097232785 -0.2651501557139304 0.1306907163500588
Ni 6.804109196436479 8.95126943758739 2.5863342852243556 -1.085012218930867 0.12862534918059784 -0.7397891690237453
Ni 7.397873648078595 2.269038984487856 10.461441175267327 0.37427085920269737 -0.4712150752299304 -1.3046713321915338
Ni 2.7279525873326387 3.173737238491693 13.387754415911619 -0.6727687371391381 -1.1573918582448584 -1.417807584597597
Ni 2.8586793030284112 2.479545071389878 8.793577165256426 0.04794747441355613 -1.3147698540781163 -0.1518858623704352
Ni 0.4071229792378486 1.012359348326229 9.330559592826408 0.04067382357027834 0.5262209991521648 -0.1524597325960342
Ni 7.250345933774451 6.6283676140684165 1.8412759646202512 -0.27648357844887866 0.7693483707381009 -0.07287997598917771
Ni 6.083520732234967 8.373946160860221 12.67496951273315 -0.04577772045574697 0.4723533025994317 0.44855311485604044
Ni 3.494783009263504 8.359922263065204 13.045736459562274 -0.4566770295147554 0.49759716476788496 1.1523054448608863
Ni 6.461031144128814 5.970914368690122 12.961217564476224 0.6908631327470037 -0.8915518755527548 0.015368769146586435
Ni 1.7807305537648368 6.719264614776635 12.28354222752746 0.30755304616017354 0.11058906050417727 -1.3785851487618646
Ni 1.5108720099448316 1.7324772738517242 6.92844027663784 -2.486490984461453 -0.9848266131482007 0.5010969503910274
Ni 4.8290461694766345 3.850768583291713 1.0084547999401432 -0.30658091205489135 0.3600994527983218 2.3345079343915214
Ni 1.6827016629279685 6.566274961331275 5.757372846015364 -0.9489818355354496 1.2192582567323518 0.8965585847387268
Ni 0.5738459036489191 5.182568335142166 4.005948548142689 -1.0528981120051417 -1.1264740856200792 2.437743125633789
Ni 9.341945706161164 1.0874886902636047 3.938052585068006 -2.6054577275063644 0.3073833533515287 -0.2958177600011163
Ni 2.9482938551882696 5.31769597139598 0.2940331602690179 -0.007575755464728888 0.9410949765882051 -0.2604121268083128
Ni 2.01172813869497 0.45219320340143454 1.391756528048419 -0.7268266953258062 -0.13558763943104393 -0.5666114871540694
Ni 0.4069808950101886 4.790545034280187 11.9578233618654 -0.28179727735230825 0.06075876724561149 -0.2517297685429664
P 4.675549072361061 1.011021542286573 9.675737539303906 0.5798220723070724 0.6604300130681272 -1.8213913338317986
Ni 7.370711572349301 4.21304645883058 1.4537246264301438 -0.3214809690951754 -0.03271214552104044 -0.598318331339047
P 1.7514003096264459 5.6562439356659135 9.87020194785317 -1.9215831102620518 0.9801502907184539 0.48980749352013714
Ni 8.47081254437987 0.9107672802996011 12.052307528009607 -0.12872613642452022 -1.005045511298237 1.2579459031105367
P 2.8856384012896186 3.1279934981840043 6.425177019641176 1.5833107806411506 0.5417329787448348 0.5379591135246993
P 8.685110619435676 2.514669399617262 7.98986020162525 -0.002855724281240243 -0.23144942102737556 0.04654750874223596
P 7.190984250607919 8.980691944211275 10.818515446624358 0.6482283287956125 0.26797039877154494 -0.7119492639933416
Ni 5.007703246386292 3.9703868957340656 12.315221474546515 -1.6948426646745713 -0.18333431068770362 -0.20115205559541488
Ni 2.3032130091146565 4.847793906528919 2.6457504032573294 1.0250072991321446 0.813526865027528 -0.4811986688052035
Ni 7.41545887781366 8.932401759303966 8.596479585371178 1.091822814094797 -1.6735598440363952 1.0037774432190907
Ni 3.89796084462165 8.613330405721715 10.797220342347599 1.334623912689566 -1.5716829665942351 1.0545978683050676
Ni 6.41051743332111 1.6169923207594816 8.135562963966331 0.6837943988256805 1.0792097533164766 1.0745254604669299
Ni 2.33250634825885 0.8321734820319435 3.5831391011212315 2.111242591836835 -1.475294623070472 0.9335302768670697
Ni 4.09482130991918 1.45163949425799 0.6466862133212005 -0.9661406067029232 -0.9194468021908101 -1.3333992962538457
Ni 5.2198700580271975 1.5705197068163943 11.740726965624576 2.9363455917377363 -0.9981012187699198 0.796635488588828
Ni 1.0901366235972687 4.405293799853434 6.4973807181635514 -0.4551719057241386 -0.7112692072071815 0.4189895422663107
Ni 0.5425144862001736 6.4640758061501 8.137048389982777 0.3652174907511775 -2.2868389104503324 0.05890114521158243
Ni 6.166824530387069 1.9955545249879554 0.42276239315385566 1.6557366998120453 -0.5645435488814471 0.8665147300784689
Ni 4.75790256691258 6.8361611838969285 1.0502469379941441 0.005627630599422566 0.10193524148392122 0.5588740093004956
Ni 6.614620503729881 0.5098424948372073 4.715870546396295 0.14418335151985492 0.4979596903136263 -0.7680435358837482
Ni 3.7794958132479666 6.215889720172524 9.917936712597808 -0.04768959276647916 1.115960073462633 -1.3678155689501863
Ni 7.033879690309548 2.3645583357193 2.9860937954949662 0.47216432651707707 0.005820977557151266 0.5186673551746228
Ni 3.7669850202150448 6.577669378289725 3.680378225082275 -0.8127617047267292 -0.7189066691477812 -0.16953082914570805
Ni 7.322273767465202 5.0928522942482655 3.807878521660339 -0.15620300168855034 -0.24363927822534814 -0.10042189016318835
Ni 4.090383484366941 4.199253217249298 4.223666793535739 1.2008463298840675 -1.5372324982258492 -2.2464396806976796
Ni 7.268272534705843 4.123293512942481 7.906894084170054 0.36979636837111146 -0.1772870760523592 -0.24498910738502327
Ni 2.7838267485475163 0.07738054658341763 9.000168554898957 -1.3658450754873768 -0.06415262341850886 -1.0511870428513057
Ni 0.6920830466834335 2.509041388002157 11.195818267925846 0.9488563657011787 -0.0101604854727696 1.0739577608889181
Ni 1.716312886393259 9.2986746004647 11.399087285465757 -0.8365215261504882 -0.33470955197030744 0.052403196192064586
Ni 2.967761239627403 7.0981036064615886 7.693645956199165 -0.8329800886561332 -0.7040999431522519 1.5323797981192384
Ni 9.092486397883777 8.525404257046388 2.2580228437199295 0.5430193016564261 0.438049130000923 -0.41579983168441936
Ni 5.340835402757755 5.422376987436931 8.364677471567541 -0.481341622140971 0.4338993694986075 -0.611154820982083
P 1.3278509174713304 1.4606627653392568 13.081818472389083 -0.19168576797619247 0.18045853180180535 -0.28418943173356864
Ni 2.7640918029004515 4.231784969634314 11.183462475868554 0.03920726632708086 0.36193753444832505 -0.21165218379579034
P 8.683855849632964 5.951732997956018 0.19685769742296494 -0.22614497809532666 -1.0568534971084638 -0.583062176510925
Ni 8.194606341557911 5.493815829954565 9.775380101012056 -0.8439517571762885 -0.027115368159553302 0.4243402650552627
P 6.079064454185629 2.64046929858768 5.083194257266803 0.9787171578163532 1.0992144785731779 -0.35382698952604874
P 5.424702002071368 5.295525296131887 2.5800954959552835 0.3239237742087131 0.26057487763842224 0.34668215095115135
P 4.047435297369707 8.864431986240886 1.8915359535928478 0.0957216564740416 -0.39845954063375894 0.6767763156366345
Ni 1.395359378106941 7.446163832985904 3.7364858103854512 1.0623260901872607 1.346598568552939 0.4204252462715727
