# total energy = -340868.1326092116 ev
CRYSTAL
PRIMVEC
9.28655387961093 0.00000000000000 0.00000000000000
0.00000000000000 9.28655387961093 0.00000000000000
0.00000000000000 0.00000000000000 13.59181030206209
PRIMCOORD
 96 1
Ni 5.51679788178145 1.652560783382861 1.808648247367648 1.3431692311564158 1.2386564587533055 -1.0506633091373516
Ni 7.7438713026394765 4.25183927188826 11.504284731968765 0.0863327590599739 -0.8363065819262049 -0.779106221455813
Ni 8.943499008069113 0.7782633377299161 6.585884503480569 -0.5763374561925816 -1.5717331031058803 -0.781305543099977
Ni 0.478925212779528 1.5465362011141472 8.799514709370374 1.7749296999351496 -0.6646311956336682 -2.2821859850593533
Ni 2.1252092145949524 4.425377098712771 10.658914900730029 -0.009845525335512077 1.582475686334365 -1.3073229108817679
Ni 4.536862174488887 3.982733522130636 1.9607137049951973 0.27154680326889363 0.825187589194908 -0.9691428838643568
Ni 8.35917048345564 6.234304871343298 2.7308123048140462 -0.32281074365019247 -0.5533456232830987 0.8545097351977929
Ni 5.0426728885495 0.536486057859336 3.6594045146513006 0.12116555046844295 -0.650824114547247 1.0747897698719102
Ni 0.017884973547456908 6.644064761684431 8.018352109611529 0.8288706944734499 -0.9014215692579831 0.11863661339900215
Ni -0.14459999720135874 3.934406297279416 9.02869942258103 0.21488123225604927 1.5733919788655417 0.6668366879254192
Ni 7.90541090223344 0.9041518581148404 0.8204493646960267 0.041070544788064746 -0.5314997310526008 -0.0425620417319267
Ni 3.9006496750015165 4.916477911896303 4.290879943155463 0.3764169590114227 0.23306870179835346 -0.7745427704548467
Ni 2.193363231348048 3.277642654710618 8.674714573065497 0.702712318776106 -2.32995939578889 -0.38616735352996717
Ni 1.908981100944718 5.815769187865269 5.670884093468881 -1.4055670766673471 0.2988557754964918 -0.26949017785018103
Ni 8.572798362102352 4.949593761976905 6.338119253859016 0.5542516800371358 -1.2048027434286541 1.0343907972295734
Ni 5.420152718632592 2.7336920650804495 6.313694689277694 -0.6624899809209494 1.0215211403557567 0.28830859610826476
Ni 6.453718272872851 3.5213589669695406 0.16865031367324404 0.39155767130760305 -0.792302408431113 0.7842972787384493
Ni 8.301231675644964 1.3810219565862258 10.319948265670568 -3.0372277093667948 0.2956200421680135 1.7972602451115498
Ni 3.5493672125789337 7.760661391519378 0.5420468461454448 -0.5201074300552591 -2.4613165420783547 0.6724422070376549
Ni 9.305776749935172 9.329457461574412 12.062908076261676 -1.757029422615961 -0.8277540643705035 -0.10082606758014247
Ni 3.6364750851970062 8.314827190091965 10.099407476535918 -0.2041579323012742 1.3745359183931554 -1.2854685340108378
Ni 5.177977974268617 5.014590350511435 12.308131596167286 0.2964757053000894 -0.8227933779311185 -0.029760776202200363
Ni 6.70859702253976 0.8627923344177072 5.613404041405254 -0.656768762166456 -2.002380284215777 -0.005159946934384662
Ni 7.00317578877834 6.332500888940685 7.680215692442479 -0.2188067925627006 1.1180668353929906 -1.0997523533545188
P 3.1226779350541385 7.529946254278078 8.049504782264469 0.7413503428632781 0.07220994650534661 0.3571555396786494
P 7.239434998509297 2.7680244536805576 5.181129830555032 1.9466534229671184 2.324381901701113 0.07303295662727421
P 5.181999051970496 4.103774461544704 10.266872825971841 0.5034502811145524 -0.1564626831078402 -1.2124245216399698
P 1.282955950739014 8.685629988148149 0.7740973897921263 -0.3430201287185318 0.5166654942532457 0.48557982859203475
P 6.727495159083233 4.061325625112166 2.3937624144143266 0.6821455503683478 0.3668172311381296 -0.48920611249071233
P 6.609528068905475 8.26445692345226 6.829639819264545 -1.418133857588764 -0.7074719449482784 -1.8111241475778357
P 3.0742021253455736 5.610081312532893 12.368492337152675 -1.2973372604239657 0.05523038122821455 -0.1930800772205578
P 4.547671722860681 2.2324224757224203 13.44666306556768 0.4572043627731352 0.605708453155531 1.0394371014042292
Ni 4.367308279151917 0.12146904953429105 6.69073155075483 0.42241862255251766 -0.9465984229049376 0.07156305694996706
Ni 5.64771971420891 8.411964540580774 1.1753665841913936 0.6192998186867205 0.8133057501556573 0.9335485316995149
Ni 2.6815944994741185 0.7939158237957754 4.178829316266082 0.5520204767137719 1.5204069420280784 0.3946111134219462
Ni 0.7625021989871237 4.109597130641882 12.375873289941252 -1.0278846206799395 0.2953462196813365 1.9250875238708847
Ni 3.026023485351697 3.4138763957881366 12.449037402352923 1.0246866825679322 -1.094775726075534 1.3505202722048484
Ni 7.9629039554720835 2.5432527107330283 7.613547524262826 -0.9426695201641764 0.4849311392644423 -1.1853713741769198
Ni 2.2126421165884653 8.572074010922798 12.44555773072499 -0.22954011981980468 -1.5513925917763154 0.2745385389073659
Ni 4.14600970724481 0.5597423739997879 12.137268296774971 0.9075297390382501 -0.12530528366842933 -0.28427967745452976
Ni 1.9799953762016904 3.169268574385148 4.433879867174296 0.36191850828493155 0.9816448729861095 -1.3162017014286365
Ni 1.1603548703228315 1.5880192359739478 13.250573772019743 0.48790179185699195 0.11700704821537915 0.6783580583014576
Ni 3.509862213632528 0.6698038211114734 0.981074238761964 -0.21552375093605464 -0.22689599732873827 0.023832069422591216
Ni 5.826764467308744 2.3460248857156913 8.695374368823858 -1.1741122563233326 -1.4037099688539503 1.093826474788387
Ni 5.755285864372571 7.047862684624627 3.325670852536433 0.34034489587921385 0.2856151084365017 0.30348967472407734
Ni 4.630405628740682 4.9253465705690385 8.082994880454507 0.9017175032318471 0.7219935356032211 1.0597724705274716
Ni 0.9724878913181824 7.967547232264092 10.135575816779586 0.10607548890453988 0.6421859792562746 -0.8004841729109569
Ni 6.555508186707253 5.9079382321866305 10.350992285646576 0.039502428969996485 0.6290604976179102 -0.31521364802922486
Ni 0.5369522428492536 6.683189011933893 12.206545986511733 -0.05770352535905546 -0.2930700220526501 -0.5331046136458755
Ni 1.846835484360481 9.158872758789618 7.499131612175595 0.2866780024833772 -0.2957326564864778 0.2771358673208969
Ni 1.5652950393538603 1.9840814597786574 6.346492010570365 1.7775918201483452 1.544730092154475 2.488174285701147
Ni 3.3278643364929774 4.174584432622828 6.556851951010859 -0.38757734650361636 -2.3180729287639497 -1.7221194981126533
Ni 5.80834923155164 2.485230323940095 11.680502658157621 0.02476949363519605 -0.5555634568700238 -1.3204651046906806
Ni 0.9669809650428608 8.380956738163745 5.099470378924702 1.040578156987208 0.11248164954119982 -0.3208687894324732
Ni 8.902851763031874 3.8413085975996526 4.053458056915788 0.32084410684212483 0.03964101143038979 -0.7948454865679407
Ni 3.9441850382033845 6.000404446222681 10.089649166029833 0.1443458452396482 -1.5809435659605549 0.2603920722036548
P 2.3538813100477687 0.463141786308134 10.786746168124731 -1.7802984204462309 1.9728154260744666 -0.8482174744311778
P 1.2522731776974243 4.277980920227265 7.0778266784188135 -1.954514056662118 -0.6600479471383601 -0.530166356953158
P 3.7722537851489077 8.410850154150692 4.804119900083291 0.16889705221645104 -0.5734179685529416 -0.47572684705735496
P 7.125535418801338 -0.23536955789760883 3.060100493728245 -1.6159067122993007 -1.1816216773265007 -1.5007482872568865
P 8.512045728555718 2.51893122689649 12.625513494731418 -0.5085436364770597 -1.1163205421258453 -0.8030568187341396
P 3.888224266306103 6.459735959595292 2.4894891374137247 0.023643864671185087 -1.368824469830675 -1.2160986280574475
P 5.836264611625193 0.49414215948229706 10.04304273955773 -0.615267814709192 -0.0005934106096247844 1.7251027491106936
P 9.19703120746634 6.554978853152963 5.1067556802113625 -0.1425347601728384 -0.9312957311095961 -1.1681172150821624
Ni 4.316501544493764 7.256540830211055 11.907839347205057 1.756509288446433 0.7818639867066083 2.465500241142399
Ni 7.597403779512372 7.924829085777617 4.847247583582821 -0.11191420707350402 -0.24686626980307805 0.1131136266982439
Ni 7.341912117308916 8.1666509411054 10.495731581151695 0.48739271343105733 0.42261428350309155 0.2815620214130506
Ni 7.706446491695891 7.8030823682911645 0.21833987593523982 2.5935704891504754 -0.15522032606030686 1.6207434715663118
Ni 1.7437547395779005 6.3542221377737 3.2330978431341673 -1.7283819340825974 -2.779895764145703 0.5374276665012614
Ni 9.296954524030355 8.508656136497551 2.710247231902242 -1.30677552301873 -1.2678762748503714 0.050716809628577164
Ni 7.024915610718522 5.181646162934303 4.586746754376146 -1.0501542307114171 0.07264986225624263 -0.6496730316619391
Ni 6.530796667620185 0.07442151176694788 12.613702855883266 -0.4080261012762714 0.4322739180800426 -1.3591298682507302
Ni 6.758855850536456 4.355245046046281 8.450122989257498 1.7262857136752012 -0.8909764626652591 1.1435420968459598
Ni 2.344929072392777 5.56271988925441 8.50000571183404 -1.3692073070913904 1.6789038819571278 -0.7761702787559408
Ni 8.224487596826654 5.258093072037925 -0.038413828900283255 -0.7913966087873919 0.4349193261226897 0.7914212913777402
Ni 2.57179028989671 5.231765692627239 0.8860718669421191 0.9880212088260985 0.04349458084852509 -0.07178365760120542
Ni 2.334342401306998 2.575774221384253 1.4093895918193202 1.5402399175936055 4.241548113842392 0.0317279272309002
Ni 5.902654183197325 5.757468204464814 1.0222796056696024 0.3727014578330484 1.2444972338047986 0.4830141247473875
Ni 5.245249768431231 7.477932267654003 8.741381812589792 1.2664385139625802 0.9894756818844379 -1.136681108060068
Ni 4.026231739118169 6.7206231094310604 6.110157579755376 -0.7333513838182014 1.8723673106590333 0.8847387092856634
Ni 1.1335910228936965 1.0852452249353077 2.2562814891904748 -0.8706387795491715 -0.4218203268468864 0.3350183414599779
Ni 3.7454435049518526 2.06651819594397 10.078272209234054 0.38737500068482317 -0.01797869596560775 0.05497327091208597
Ni 2.6438446591550924 8.236095788806674 2.7789816582543385 0.7827487033044067 2.020892741197668 -0.4862413734354335
Ni 8.079673080237505 1.5796520511947494 3.2680830764512314 0.41648297379437305 1.1592461378447778 0.5875788334343558
Ni 8.790335879807932 3.039015373815736 1.1142378452246064 0.06018541124064473 0.6240445324605576 0.9032511662675541
Ni 0.5807225558567974 6.564478997469411 0.9647874810863162 0.5023017693324059 1.036015734427506 0.1982546794429618
Ni 7.17823661039063 0.19517178205383606 8.329550092144062 -0.24117616139683626 1.7389247425954506 0.8435977162709795
Ni 1.1637816085953334 2.2059650845615577 10.896228134292773 0.3251962131632335 0.5955145433416648 0.3047472012802622
P 5.349491332411812 5.185574375100342 5.9766717298833685 1.5831295178682798 -2.1293169328400423 0.1700141965400298
P 3.6994286319430523 2.0077250252035626 7.524615772520853 -0.5353083061654136 0.5538076505211816 0.7564964544760971
P 3.87314290328566 2.65859170624651 3.352093883449035 -0.8345518040186272 -1.7313050212666632 1.006233103848435
P 0.6834819858853709 1.2462369178678139 4.622397833585185 -1.7862752068549557 0.27163524921764187 -1.7583795088859526
P 0.010164132897705793 5.950702811441025 10.14356782479399 -0.5502998944782393 -1.03069252244238 0.7611457803226503
P 9.128589307552142 8.722562611751782 8.322700330220492 0.8679614898273247 0.28901744924983125 0.7687667872030179
P 6.653407034589951 6.696663801184299 12.543378571557586 -1.128900949894017 -0.8828934285468086 -1.8254760454241337
P 0.8420526742985237 4.448314886065291 1.9993281234528952 -0.013414987854325284 0.6267642453845658 0.8676976946429765
