# total energy = -381177.01545893773 ev
CRYSTAL
PRIMVEC
9.20740078746187 0.00000000000000 0.00000000000000

0.00000000000000 9.20740078746187 0.00000000000000

0.00000000000000 0.00000000000000 13.47596175078716

PRIMCOORD
 96 1
Ni 2.8752871357898977 4.241324747315441 3.6469455894848117 0.8425301942384135 -0.30807755120507585 -1.7539368997335665
Ni 7.214974546329508 5.668168034019531 0.9043343376471095 -0.883378338603027 0.764375857224174 -0.3532806301042754
Ni 3.3456472079425392 1.1053392640080744 13.448403333008233 -0.44530992532839436 1.4527540187657948 1.8263579338084546
Ni 7.146093980610139 5.272470775316743 7.836675745426767 0.08072415462394485 -0.0884937712670347 -0.527541260625485
Ni 2.0615370491333356 5.640407720472693 12.225918308052757 -2.205869215474485 -0.04456595953583293 0.04458832813333611
Ni 8.99338401948763 0.27526721787407304 2.3368392551306187 0.9017344725127115 -0.912710511908241 -0.3087594077634489
Ni 5.990629626403397 3.645642742265283 3.929038253605077 -0.40008087828726585 -0.3005902416890952 -1.5411081791311716
Ni 8.04531636930826 4.817514684777321 3.2089633424026363 -0.37568496594140455 0.22518364262332186 0.5626247345921794
Ni 3.4238732855193006 4.430205368244075 7.351393238725083 0.5597556405745006 -0.40743783287296925 -0.4914499142195665
Ni 6.166794826765471 7.525770361843111 3.423729650066123 0.1307457379577103 -1.245893857042009 -0.9621669667671559
Ni 6.1280316692091885 0.6194352577493724 7.060959590179584 0.2146801719888367 0.5011992802968465 0.8402694232286948
Ni 8.987049327706462 7.200086179163592 12.129901690563823 -0.9746609854691087 -0.009396610723551559 1.3940868439418894
Ni 7.459661223778005 2.8236152022493157 7.891078594057893 -1.4417196153285041 -1.3600356678944514 0.04555172048786994
Ni 0.4020503652856465 5.892110437364868 10.425597062364362 1.1670363233131578 -0.11766782172782962 -2.108093504684892
Ni 2.3941636120497756 3.2509306754528806 12.688830513662102 -0.16575902080810162 -0.06816354435011487 0.3879391007184093
Ni 0.084880266167242 2.615712091175485 11.584826322776513 -0.39972966559543416 0.05938631237811709 0.6219421414055741
Ni 1.732188320917617 3.9683805566744916 10.223983526807562 -0.11649719845849614 -1.4449856876742855 0.49171010985948865
Ni 7.598352302702057 2.410230526523816 13.219487091726577 -0.36943230016347345 0.6060874337615046 0.695978342486382
Ni 5.175968007063208 1.3665532259728475 9.629477306845276 0.11929610135987195 0.00013009781996106627 -0.8873283243897105
Ni 7.1510291474629115 0.09508943222387015 4.48763008583244 0.4086202832168446 -0.015768061467534133 0.09573451198984803
Ni 4.982115389678423 3.799664143595799 9.056223609512777 0.09345111527231002 0.3910727612513845 0.33028185521625697
Ni 2.0352959567258773 6.7084385962579525 1.370289589235636 0.3533518496618431 0.07810188650974936 -0.567438611041055
Ni 5.213709143125724 1.4676689020495883 5.032288358361485 1.716750006270624 0.7468365627888299 1.313287613105635
Ni 1.954878517748072 8.271413304451261 12.681634929901952 -0.3242179084103642 0.5037058487687841 0.0686502541785463
P 8.611617558262909 1.9098082906131562 4.075211266455551 -1.1475003101627594 -0.6891358656432518 1.1985590765117875
Ni 2.7071599963652675 6.7383626490032995 7.177445180486419 -0.25714271202842165 1.2740872887570898 1.009798709712506
P 8.266993752045796 7.121952175595278 4.572407229110222 0.14615333076203216 -0.064904671093185 -0.22734208372722137
Ni 0.9330135497982507 3.4581892684675806 4.679406434326739 -1.9078451918506691 -0.322737981430728 -1.3062445902159248
P 8.559531291684314 4.073483037316997 9.131042028036907 1.4895621887330799 1.1495582211330524 0.7846963139490808
P 8.291651171507961 0.24089967348106237 8.25064417036582 -0.4672049256292728 -0.4255594821743445 -0.4569274549626647
P 2.598853340228798 4.535059249063774 1.154811549486852 -0.9095755658236853 -1.1062338473138045 0.8984437175765817
Ni 9.018557053397101 7.081430404477654 8.309413168477516 -0.2712138454095071 -0.22002780945399525 -0.040235193370962964
Ni 1.0461909209815778 5.737159088549035 3.4155359840544044 0.7196535746161348 -1.0631182470712528 0.8080041354370859
Ni 4.218122097186741 5.688792611911709 4.979111935522875 0.14986188996187091 -0.7031710035800792 0.28557628477876623
Ni 3.811302298263528 8.304053540445803 9.262365344805012 -0.6988263534581384 -0.1671759557602863 0.159267499546487
Ni 5.147112012815848 2.2142325847422115 11.874505885192828 0.7969010835453888 2.094426034500129 -0.16671958494915803
Ni 5.139967069760344 8.188380963633556 5.643813538045156 -0.6858682506355737 -0.8302115247720606 -0.853770285928607
Ni 2.2971728515514704 8.998107416120975 1.766509828306404 -0.014654259578065085 0.7934007837016143 0.11336508058741766
Ni 0.42675013879169865 3.219643927382514 6.909031031061073 0.4597276434156211 -0.14613816125338056 1.1801209244112578
Ni 7.748423729070187 3.326099895949194 5.627171161018319 -0.28746038917535655 0.4073915530160661 -1.6756902601158368
Ni 5.929612181005423 8.681556975079419 11.368995639575376 -0.3194192014701402 1.4919875103451208 0.13991094939674614
Ni 2.567898058588842 2.365344447405795 2.0785725821762413 0.5200197554374592 0.9491116762450945 -1.7291920886887187
Ni 7.260983928350586 7.596796251959299 6.563790328987364 0.4612057706230444 0.37296833834119 0.48708469527233533
Ni 9.039936638158547 5.664853369715431 6.269812751856731 -1.185163886151804 0.005148634080475003 -0.9798587276199641
Ni 4.172969003444222 4.64394597145346 11.497663541939863 0.1939174855201886 -1.4010658463628838 -2.5267328627006354
Ni 4.85206085274672 3.273857103556239 0.7844401675475573 -0.2065457158071604 -1.6811481979066145 0.1992044449507408
Ni 3.105499779110491 2.7955142148712233 5.480822286811712 1.2504308256804142 0.09580650287836404 0.4774219753715907
Ni 1.4970773403476316 1.2829868559061475 6.109785362955202 0.8142056362621074 -1.1699113308681077 0.5693551113374775
Ni 0.2375417343929921 1.9615815055630301 9.362653275545812 -1.028853412351112 -0.027663527353539455 -1.5072174399209979
Ni 1.3266851803151998 5.022655575597736 8.062438451919105 -1.5260255737664363 0.031177711154385012 0.7515493948834668
Ni 8.754230989946812 6.942463103528261 2.2834344887510603 -0.8808648281525541 2.106731077119727 -0.08582625173720058
Ni 7.3830464413490695 6.451662601500335 9.957131873305565 -0.4245037872163205 -0.2636599443216492 0.2599359585028427
Ni 6.946634056110919 3.761048304453033 10.628908442636929 0.3135668564544213 -0.860376221280899 -0.9846538350157624
Ni 1.4898587380853696 1.36961929045414 3.7451986846389285 -1.2105604718480376 -0.5989976167942588 -0.17397626651157136
Ni 3.991841014026844 5.544475811071531 13.447298444906867 1.4516340462287387 1.4876852834253413 1.1131578281271475
Ni 1.3918367486924552 8.867656960952948 8.338467121843037 0.4779706487862091 0.6954900899960539 1.144482863492674
P 3.3071602724115996 2.5370716805607114 10.707986204791828 -0.09940836129700945 -0.370063248879253 -0.5870862100686534
Ni 5.682098831497595 0.8990538932626612 0.1134130806449521 0.5384828472386533 -0.2145709001044821 0.95387310218948
P 0.2550882781827795 8.262822799463136 0.5644974591291675 0.16848901814475498 -0.679760595075939 1.4457595897258326
Ni 7.043192068769523 1.3507993631275277 2.426966819039268 -1.722584353564214 1.2807968395667815 -0.6082371331146558
P 2.953504005965814 7.35699870435935 5.188460608529327 0.28027492717051083 1.139844079169082 1.0183316868841816
P 1.7341126676941643 7.6877745797060015 10.494755691589242 -0.13173381290259248 0.5195536144343181 -0.6078362981318112
P 4.351859594456333 2.177366151759943 3.270467859305297 -0.3013492313423068 0.7453877461574454 -0.4227415531095752
Ni 7.117210364160246 8.296687619770024 0.6090483888564411 -0.2333080715026692 -0.7998084870001709 0.5642463293560025
Ni 1.5330966924521856 0.8346048495698581 10.907335640480913 0.6853694566222842 -0.23722797538236562 0.2825920053394617
Ni 5.4897286056488115 3.8557280073393136 6.1516016946315935 -0.6572174196681003 -1.0477996144363115 2.0021540271375837
Ni 4.823969072769472 0.17057999100966428 2.472313268199526 0.10893815516431561 -0.038163655553914926 -0.7435131548425518
Ni 1.5202431608729532 8.022601711424329 3.873126311975501 -1.6151999160402633 0.6552515541909812 -0.663808956842689
Ni 3.676229727871451 7.12336090792452 11.458151822694907 0.9840568248617118 -0.32442513932516387 -1.6315279637763256
Ni 6.414565983496949 5.72622990374635 5.199268255640861 2.3422448980244632 0.4456575384758002 0.12528111529871327
Ni 8.488938149407828 0.944080845613607 6.209238182439386 -0.8893839213671586 0.5398396183768638 0.6576753331411254
Ni 6.1266505590824805 4.381673158391544 12.6736033141451 0.7232297220031673 -0.044174123414052954 1.0521725466930267
Ni 1.0163773570463668 1.4581576569769905 0.3235793708464157 0.06273697401790485 0.3122239692732816 0.21052089840482452
Ni 6.277292844302982 6.70570399820707 12.035260658761091 0.18929078538145463 -2.1436508329642114 1.3493583906862632
Ni 3.1356263946744223 5.610990074773805 9.458238986675212 0.4402818759861836 1.5112309319557653 -0.09075248539422436
Ni 9.035609159761528 2.8238638020721236 2.224880943819133 0.968327587051913 0.2953210228703559 -1.1290793844534102
Ni 3.8034207631404455 0.4319403506478686 11.44696667214874 -0.6827546447072564 -1.326743738610541 -1.64889653696176
Ni 3.5489097889906303 0.08060711143520635 7.081145895791553 -0.08166826370476903 0.7402823066100799 -0.14699459571640489
Ni 8.698378896422726 8.700137509984069 10.277711472956769 -0.39874698996719066 0.36282533636991704 -0.6266007232235079
Ni 2.3298315023477008 2.3011688635180803 8.25037439352107 0.8605690540179952 -0.2104820747470891 0.21955986867864125
Ni 3.3486672354196085 0.40473063967154516 4.4778730031572875 -0.46197607313016564 -1.8144213302718686 0.07630905627538472
Ni 4.690645908537892 5.090007712776879 2.220892297773199 0.5987844723421881 0.6407135084758062 1.0030799029314337
Ni 4.9925749970380275 6.553588528851412 7.8767270183612235 0.529640823466991 -0.15975292382333778 -0.060239661517347866
Ni 1.9778417754548097 5.134230859034081 5.601929992342598 0.5134287324835028 0.7921486564620679 0.908791379359493
Ni 4.248267127552362 8.186926194300089 13.337833497744132 0.05795163681411955 0.9960129687823233 -0.26365480211532655
Ni 8.511339755663036 4.849151314079787 12.078639486360832 -0.3701501521661044 -0.3717894875417404 1.1155399552060787
Ni 3.689074052049839 7.151084391867979 3.128363596888106 0.0837544568098364 0.5258988399260557 -0.38156250776810413
Ni 6.248188250232816 8.45650047623187 9.072718668126097 1.128235034175244 -0.6243638634731892 -0.9367760374978771
P 7.086190630714377 3.6442063877335067 1.571189551226971 -0.9066367949103353 -0.3752949295918375 -0.05687305903796012
Ni 8.647673739970841 0.3546736842391276 12.572762018613531 -0.5704786834189595 0.4459259616458385 -0.9617013399846469
P 7.152198487370191 1.1487981959951639 11.116752448253616 0.35811173294433163 1.5618767791370907 0.21345118467774207
Ni 0.6001844240632269 8.07512993324347 6.252320531731927 0.11813679094444815 -0.41259700847640557 -0.9259933450600761
P 4.980301531712013 7.08091479003035 1.280006420252711 2.5032512346389275 -1.1109279103553642 3.0500847678351213
P 4.492585508967069 2.1557287597748456 7.614956008645345 0.2334389406535786 0.046296826184010584 -1.0945265861792053
P 5.246911030571793 6.069362111026617 10.0650610260074 -0.03598850227946706 0.06221941095153801 -0.21465214696437868
Ni 0.3330141944920027 5.219270413235937 0.8868264649408699 0.3796411223756752 -1.5320697230779872 -0.5291728826916371
