# total energy = -381178.0060987553 ev
CRYSTAL
PRIMVEC
9.11469154782154 0.00000000000000 0.00000000000000

0.00000000000000 9.11469154782154 0.00000000000000

0.00000000000000 0.00000000000000 13.34027240737991

PRIMCOORD
 96 1
Ni 7.063904253254554 0.21361829364601773 2.2843613899810515 -1.3643798037957597 0.5617135356318197 2.210185069241019
Ni 9.094785157155009 4.626061482154321 0.4781184419238534 -1.890871540110808 1.2937212609379334 -0.00800384414108299
Ni 7.988106641851297 4.4627626666657045 9.719242707826037 0.19830918682998105 -0.6988762328594674 0.18377011267354157
Ni 6.402204983996512 0.23523925369405 11.398809671419025 0.06099967961182398 0.45741210790856707 -0.88706735741884
Ni 5.307384682521259 7.116386647739007 12.051268466288679 -1.2714413664938102 0.017143858769138216 0.7505438364370881
Ni 5.146264278335488 2.6947950432279164 12.4354281094034 0.7724336945316439 -2.3397846094094286 -0.5703185036920114
Ni 5.1105802605503845 2.4427100164379714 7.572899624590622 -0.37154163319699235 -0.5630631076811786 -0.07660524735956484
Ni 5.277761934679218 6.5490973545264595 1.2375299400099045 1.2305225167922613 1.0122170893460114 -0.6853807694761939
Ni 4.789387641717869 4.639150179354681 2.704513127458435 0.7293029247804408 -0.151549562076939 0.5741954701489144
Ni 6.6842317728360285 8.51002300006148 0.18087376391600798 0.5929210715828755 -3.017390877146526 0.08928335704786558
Ni 3.9899015788819407 0.4219418629162073 8.681302639553325 -0.15146805810672623 0.5030741287220561 -0.16358978107092473
Ni 3.599400844790693 8.485267497557178 10.909955034208052 0.35364238431906836 0.36106438781475236 0.39013122327372163
Ni 9.31758467969373 6.306491607045968 8.871081457205232 -1.1606365904344011 2.4563918510832274 0.528564816793993
Ni 1.2463064765936278 4.42176478365232 8.724191821082778 0.7290093047994218 -0.8628429376538366 0.0033504045294716492
Ni 4.512893470706081 7.586349263580073 5.228226320003175 0.8525556967952155 1.426055940649318 -1.6493469942356174
Ni 1.4860957843562153 6.393874155834166 6.764998878429226 1.9573569254275514 0.1628629302072292 0.2667786924562889
Ni 1.1620958404974386 3.286466136587374 10.7922005099247 0.006539343780414544 0.4034744773498471 -1.2527499607318942
Ni 8.940227330952705 0.1729521854084641 1.097398847741257 2.044409593372685 0.09366760215849029 -1.0513950450970537
Ni 7.920457400471719 7.131754017850293 1.9799498299337608 -0.270108013939838 -0.9393617959471823 -0.5332519378570171
Ni 3.553827386572169 1.1423078449389552 6.079495680474484 -1.0426766913874495 -0.7087006751490569 0.9357393687032465
Ni 4.95092732171925 7.147549778468833 7.496419158477459 -0.522834599178435 0.6608493599937327 0.8628215974975978
Ni 2.9542082820994007 5.475313761364879 1.4355602880068579 -0.6584572056124725 0.5583857568101674 -0.5645150096363568
Ni 5.105740359287577 0.9649450602441025 4.285069018664186 0.6490377120707854 -0.03617002216265384 1.0710745258038523
Ni 1.964790274791951 0.9717810789768812 10.110378735924852 -0.39767278306640547 0.3330308787163039 -0.4361933077391068
P 1.4856309350823864 3.4923579061270233 1.248097513501616 0.745658997540961 -1.3186966999363483 1.654434436060854
Ni 3.95235816400152 6.9204481214742835 3.035058331386556 -1.0779848797704403 0.23687059204294691 0.6392230399732088
P 1.3937821873887724 4.874664696736372 5.0864454685470175 -0.7982578546835994 0.5137133536034573 1.7888576228701516
Ni 8.902884439288448 3.6243477558195134 4.351116808721964 -0.0252906562459887 0.01676950614885499 -0.3776068655544658
P 4.978882080990492 4.494500022969086 7.017570629752945 0.2868520661673963 1.557346752477221 -0.11849931649018948
P 8.901863593824352 8.635906006352688 12.20927073446314 -0.9727848514923182 0.45748049925265727 -0.8932328627996036
P 1.6102287698518316 8.180089391942651 2.385400481259013 1.8175246517875407 -0.4762197275333734 -1.9184476499568637
Ni 2.649877842807739 4.140941134109774 6.897508265545407 0.7723501336789022 -0.013555370086931492 0.006078344983595984
Ni 1.892209985233129 6.855460370054669 4.315738133106923 -0.7795808470993864 -0.02241436313945817 0.03188553585468702
Ni 0.03270533655594178 8.54549737993878 3.6081299849778694 -0.582282618032423 0.5441066211833339 1.174620820528635
Ni 1.1133048961286864 8.510533422793527 8.172170547842601 0.4039359903672979 0.3857348939782389 -1.0394622982152097
Ni 6.413607463242787 3.0179564354554724 3.5715107998301208 -1.4904011396946075 -2.785959196730963 -0.07607097212264963
Ni 3.8357083403453855 5.415630760481899 5.142141703305041 0.14901753968370465 0.6163199101227902 0.37360442926329207
Ni 6.402423736595961 6.363677182418572 5.964262279899781 0.6738357449510718 -0.1438107986717846 -0.19374779271154374
Ni 2.022659452037833 2.6063460755174046 5.206001055899166 -0.03053313559185064 -0.39011065444843135 -0.6913457288103771
Ni 6.795494813730734 4.071450725018168 5.522405727211243 0.28581256915928843 2.384457012616138 0.38812139193254447
Ni 7.143922131194639 6.116459400966365 12.883288509477648 1.6467861754869766 0.4697981402777457 1.000283056912587
Ni 1.1623237077885311 1.8346051340449143 2.894838826608965 0.5363305767823409 -0.034235009923470075 0.3307929905247206
Ni 6.4454177370793175 5.590213564225421 8.402424065207544 0.2985379871457568 0.6426012124168223 0.4201815056918828
Ni 8.596357359310652 5.236554413758029 6.945932799310083 -0.5396655546928447 0.142667943316593 -0.9599900137204951
Ni 6.614577299294837 1.1239326265852463 8.983979673780818 -0.9096634975518011 -0.1986146338855418 -0.06721969237960682
Ni 4.0491561892576655 4.085450891382899 11.000948823825485 -1.604602343030075 1.502462698844832 0.9549563079513296
Ni 0.6118993285243316 5.456336973362685 2.5809826230804673 0.37555589656270805 0.08418177415524211 0.4675628231893238
Ni 9.389135009096815 3.053430815332772 6.698951088371447 -1.628897211021698 0.8319714448859606 -0.6745217152745029
Ni 8.433915324836544 0.8749475064233251 7.39864859562293 -0.8567013435324728 -0.15374374151478037 0.69391503219945
Ni 7.223730371226919 3.49955851252555 7.705434532843406 0.3405876080176392 -1.7529539669950067 0.6826677414204049
Ni 8.219656268367975 2.5665877905675645 2.049586074091666 -0.05984576851303886 0.8041945318830085 -1.944335059246587
Ni -0.05190908038006355 5.316371768481952 11.47295495353307 1.3283527349688735 0.8506224843282447 0.6594110848853095
Ni 7.609828709254257 2.3114584567686216 10.828765918391749 1.696797474408097 -1.1090445772897224 -0.047299813527228216
Ni 1.7395024414344977 1.831405877277974 7.699124431818469 1.616524805499274 -1.2838628800866145 0.931627403417402
Ni 0.5561575203080901 6.9716909178951925 -0.09111228060880253 0.04837787708275539 -0.31848460547101276 0.8421447858745368
Ni 5.7772834955208205 3.2868033801781915 9.850884376297737 0.07710686958633171 -0.4950463733215732 -0.9632943955033798
P 4.534695813117824 1.3902001135727964 10.66033188563107 -0.09964670256006065 0.3330159663179684 -0.10401012173507893
Ni 7.267581152724783 3.8651579090461956 12.451250302627708 0.15699104480748444 -0.2538067056766532 0.377145352537015
P 8.076400659803866 1.4726060407235322 3.826750421397952 0.4397622560372878 -1.0136283678712414 1.0861201072830649
Ni 4.581736736690985 3.254172784093728 5.316258746305571 -0.3907223198905013 -1.4022665515392045 -1.5940672478267064
P 3.1790494955663124 8.121372548373905 6.6869315445008946 -1.9911196237002935 0.6027822806476716 1.1189638932859634
P 2.3513352327098302 5.371606799842804 10.606303639443846 -1.174824966119641 0.2876326530871627 -0.8877204176218066
P 3.9135569216742687 2.1890937214518837 3.05955133077152 -0.7534697518346314 0.005295444070984428 0.47639430543802463
Ni 2.791027957602153 1.0848761728919711 1.2203104645566172 -1.408024537068904 -0.19194364962326946 0.06875335541531385
Ni 1.9382027192672637 9.146775358290702 12.44305892924751 -0.7867033170767805 -0.08990427846131614 0.6839293817416479
Ni 7.476854472864247 7.146811488445693 10.643069571127057 1.1896098377382995 -0.24188192921460921 0.050722466055531996
Ni 4.594114487943136 0.40236532820385795 13.021960339614136 -0.4978306209349297 0.25532031410770223 -0.510557838693611
Ni 3.2928919941961863 7.908088763911211 0.7475724251100427 -1.0660544468814415 -0.38525975411403324 1.2668676310801987
Ni 2.9386130446970222 7.29473381913138 8.879245486510499 -0.37699854254650556 0.4121488651953934 0.146251032682161
Ni 2.6018434178454144 4.190342762818654 3.5665487616992877 0.4564165767645172 -0.9968758310032511 -2.3295811865138654
Ni 7.06404097362921 8.63177705103809 4.8420924346784275 -0.76140880417605 -0.23359372106388804 -0.385721010021168
Ni 6.9314495542882355 1.5133669417541802 0.21984271656950377 0.34826080829218087 2.7079542408103943 -0.407529364145511
Ni 7.286977216542587 4.797672896421997 2.8052860697404003 0.4258423035220859 2.2849573771569034 -1.6982774013877333
Ni 2.7902076353542196 6.673777221520699 12.334282376233208 0.5684989339847693 -0.6743077994914839 -0.6958978669574337
Ni 3.3859712252617 3.053029768900449 9.019211602860395 -0.5758959977797887 -1.344187388008285 0.4291924509412415
Ni 2.2042696830386523 4.432547463866824 12.79014638703979 0.13376858394443414 -0.05703298165459209 -0.9544436299809692
Ni 5.387037972795596 7.538834376041439 9.851590764900124 -0.12864334690272683 -0.10930428025448272 -2.323726784615617
Ni 2.7598648268723256 2.208808799477217 12.095731755065001 1.2775297387797353 -0.67468395188398 0.5536580123171948
Ni 8.787847916053249 7.541833109592218 6.1087374342058185 -0.49653941292733195 1.5848842957758575 1.6470633404077633
Ni 4.0161701201990985 5.3476716195864356 8.840158042865635 0.19608106883041068 -0.8793550763762469 0.2394638066914198
Ni 2.7858143539819538 -0.05351691198601309 4.009952077559762 0.08972455835034225 1.2114279620546555 -0.2980443353387899
Ni 3.8352252616882687 3.1206334368218083 1.1018167387809608 -0.17374101057231367 0.29761650377275195 -0.5170709572217805
Ni 5.517195769467701 9.35249394868912 6.769774976850527 1.884851559168973 -0.6383504075602683 0.015053809009328914
Ni 7.027955909411783 1.8903688175211006 5.695549321144226 0.25114355702219326 -1.212988621673556 -0.06510933090482335
Ni 4.621722888931918 0.06270816703952507 2.2138984432910624 0.8601139687584477 -0.3626510155755819 -0.47400600771150625
Ni 0.38813456014054154 2.5139231022502377 12.736572052496422 -0.6182780622904255 -1.3372284401919485 1.3820679651041423
Ni 0.8837896687868831 0.5964635982257174 5.782180819340983 0.5812919719843795 -0.4177523274250999 -0.948494868596702
Ni 8.751626131461165 0.08815638610874904 9.869293319010527 -0.577681886035618 0.43131721059372813 0.8233150547625434
P 6.220667670528843 3.605607949800056 1.161248174174574 0.6724715176136935 -0.5884800050923865 0.26922946798962666
Ni 1.343113616541417 7.605125528366106 10.624579507658638 -0.8530287797768921 -0.5463473375883945 0.22465630936494216
P 6.024082001157416 5.209401747351433 10.900830316403539 0.4688481176596506 1.1038442640357053 0.17356463289544946
Ni 8.125948123579045 6.275465196690797 4.418778810669843 0.24885758920149398 -0.5784007664795136 -1.0427774786313717
P 6.070594272615243 7.003264209748986 3.241952717007013 1.4733184731807079 0.1072006036479186 0.9199749067801383
P 0.04880279346788894 2.369464354389159 9.06326108463609 -0.535711198030787 -0.07478156388726476 0.2702273131265217
P 7.28058781770035 8.270735000339297 8.32242259371242 -0.16060241630782662 -1.159716392612977 0.16854172575956136
Ni 5.068825858130573 4.803952918964509 13.126681766316155 -1.1148619553024477 1.3114593016476446 -0.21743613746741905
