# total energy = -340868.4639820972 ev
CRYSTAL
PRIMVEC
9.26824331259543 0.00000000000000 0.00000000000000
0.00000000000000 9.26824331259543 0.00000000000000
0.00000000000000 0.00000000000000 13.56501093637476
PRIMCOORD
 96 1
Ni 2.959387230005297 1.044948116049117 3.428217621340595 -0.26411862912562256 0.9765404618800085 -2.014132796766015
Ni 1.39547308610524 7.167327349782422 8.080514408605048 -0.8148646100023451 -0.40096456644379974 -0.626956821011346
Ni 5.012877801543498 0.4003056328448181 11.088528405080373 0.1952372327728767 0.4675293988482271 0.05243790608474195
Ni 3.301246392367013 4.687868305907378 9.211958407336576 0.26962876031057437 -0.1465603363924637 -0.36226637854265353
Ni 6.596959643350539 3.451317791498392 7.767759384555607 -0.27062403434430815 -0.542881233416665 -0.5424582869466335
Ni 2.1280535906841953 2.3234281641581 1.1589428772655443 0.49191836921555276 -0.2613490368002854 1.803102819935256
Ni 4.304719118648781 8.507747069358487 6.820528213622717 0.6857641209575416 -0.7196923982738702 1.231261451840815
Ni 6.862633843949661 6.38460564774171 1.4499101144401063 0.7941769997460064 -1.0338583217648711 -0.3951657003738356
Ni 2.7985461318996925 5.1174328567313125 4.874763363381697 -0.005757728419383632 -0.330381871129231 -2.66764011457238
Ni 3.591898509261778 1.695365641792865 7.7681801628115705 0.17828672096146717 0.6614142313582674 -0.6490875914721144
Ni 5.818899867802112 1.730149359736298 6.247596911032254 -1.7041539147731684 0.6510017777756917 -0.3050279657454747
Ni 3.8295177367154776 5.776321557055475 6.795107275286654 0.7367629806029118 0.1521619988499573 2.030915929761625
Ni 4.367872930017433 2.6008081563273135 10.086806450000182 -0.27890967139186806 -0.06580147187584152 -0.030031256254767633
Ni 7.996983437025783 1.3726639387940789 6.750885704963312 0.8302097249998477 -1.4307967977684133 1.036925904946601
Ni 7.764591498919299 2.892109050268719 12.797571193840763 1.1183997932523773 0.24372849550504475 -1.2962653675160256
Ni 4.301549379363768 7.469574039324998 4.4428669224872674 1.1224636789091056 -0.1026824040625909 0.9982845384253194
Ni 5.770445490661621 4.862722988220408 5.470253570708189 -0.1378378689178013 -1.0258783888831882 -0.606547918337691
Ni 6.001938409146332 5.737960297111997 12.978771842494288 -0.04306134996584842 -0.5278621343000135 -0.5329431483673467
Ni 0.20598856595693676 4.455151979277574 4.221757217221854 1.660078521720509 0.6159108476098296 2.6937810346338056
Ni 6.021040259048122 0.9521637301360591 13.546671415675881 0.22948432688120476 0.4556192776742024 -0.6369278161811289
Ni 0.8579640834369734 4.845938199199477 8.336025053356376 -0.4162194357203412 -0.8192704523795244 1.2940861004765196
Ni 8.387278440040944 1.0348642670956252 4.2581795606202295 -2.3450355733957227 -0.4074149500548338 -1.5737424202264252
Ni 5.782994692392345 5.415147375190931 8.715546650099903 -0.1317194147248893 0.6688341779714223 -2.8232512483132024
Ni 7.979892795968578 0.9003236636364579 1.6285202890288306 0.8400218259942631 -1.579644644643473 -0.11948919120728455
P 2.4670488657971714 0.7287082324348662 10.575350395309815 1.0511944990504736 1.4481183197659964 2.1505835555283026
P 1.6058900188176717 9.073879188500163 2.3890695720884403 -1.0071702709507235 -0.7890851870453959 -0.9868688403892102
P 2.9936241215808477 6.37849787525977 3.017699310957309 -0.31620377985663606 1.0899340817125167 -0.3570264702999529
P 4.768066417115618 4.25032379740977 0.7564721827336531 0.6332467677851159 1.9783661806893673 -0.20726022537568176
P 3.245961319749753 6.826404280016572 9.153058719745177 0.1469262043723147 -0.37019026137542055 -1.2211253918480776
P 2.247169056447318 7.691205546700781 13.20746482461057 1.478911393887453 -0.10953825064215975 0.12748506492856754
P 7.166066868663235 6.388822698544871 4.723269288869472 -0.486336247142085 1.1218196175672033 -0.2705571856621147
P 6.051097172794605 3.079346105929052 4.133720025641497 0.26300816967026314 -0.23640008016443156 0.23990269400105135
Ni 0.5249199474903917 2.0624066218077406 11.423896089678278 -0.7815464554661895 -1.3406264101299041 -0.11559294147667189
Ni 4.986500380475817 8.140520724473143 2.376725198539584 -0.5930092604213077 0.5920445825151933 -1.2493298793067518
Ni 3.3908517707515347 9.352399174622759 1.0722764589023026 -1.320775436842248 -0.5719367560217247 0.3406043201881876
Ni 6.115038784862748 1.4066876607685903 9.052569642991093 0.27545256608120305 -1.1531348827407173 -0.5305710485907443
Ni 5.045492750502448 5.620123848955108 2.976163677607058 -0.5120256814883891 -0.5171336921389159 -0.009663748342009162
Ni 1.1120501991587501 0.4287869451923185 13.319443742860651 0.1374591454221439 -0.8504322226943096 0.47563865821892276
Ni 8.289118472884297 8.92944288143103 12.29821584246105 -1.9868029986028104 2.095765065026526 0.6236156724532549
Ni 6.577672428578281 3.4020570771713614 10.38545428058261 1.3282828009628866 -0.9185098921988376 0.6411732217210441
Ni 0.11144136012572249 6.901634612696254 3.835330779053373 -0.3384762181015913 0.05211009043167799 0.8108881418531003
Ni 7.85546662666653 3.1855879814381303 5.6290454601707625 -0.678728811377315 1.0295748638981685 -2.3874721452933785
Ni 3.042097035208387 0.5678161589898828 5.56766373696379 -2.2654221353374533 -0.4046666978857354 2.7078359700649752
Ni 0.02398065329252282 9.242820731445246 8.055704247517179 0.9511564745892652 -0.08451370357336413 -1.348817944801761
Ni 0.3531979314882803 7.287935002752817 12.116105052293525 1.425823512923538 -1.043201710652984 -0.05380676140781056
Ni 9.085992782785286 7.982821560921982 1.7170181123123023 0.6431537424861826 0.7350154017841858 -0.6894235720869998
Ni 0.8998963976100278 8.670543766847535 10.130309731450458 -1.5105164223872438 -1.0546678023110547 1.6754033250030371
Ni 7.945461271279036 8.914595155306495 9.899067055540877 -1.9901667728687207 0.7659174906796808 0.7955296571191589
Ni 6.749700296616666 2.8059977996925305 1.1820106085710094 -0.8518926092899198 2.26982154995673 1.5551181202570186
Ni 7.586984148279809 5.959925461254623 10.859646350796211 -0.8203924817991097 1.4098790737791396 0.00845970073157898
Ni 3.065842275115414 7.87721919421602 11.013622460924013 0.8513562771704757 0.27287092139695585 1.5050356017783306
Ni 4.788493625841257 8.32363341176555 13.09176841388324 0.32704380789493354 -1.8358288494133672 -0.12898710339539077
Ni 2.615535395286044 9.030170152043667 8.741388366691929 1.7890617684611576 0.13216704378526917 -2.0274937914539537
Ni 6.18043551116407 6.825774039456979 6.764369145641198 -1.26950943957842 -0.5280256564610712 0.5589609125873471
Ni 2.434665622926307 7.256126390980405 5.658929057763357 -1.4929884408058096 2.1156880292026985 0.34082492083942595
Ni 8.544847848182778 2.276697680312966 9.151105900834791 0.6095039156422213 0.06386903073981903 -0.09615283047418925
P 9.421632953742781 2.096819610010236 0.7376613556784996 -1.7154778244264197 1.2343040953218807 -2.107824824404538
P 8.301241335412945 5.724011590609236 12.82537870488411 0.4182788893525312 -1.1636704921647185 1.2333815835076112
P 5.783050301853485 7.519956211118363 11.32693357958486 0.12336307234039398 -0.5721090199335309 0.05125725551307946
P 2.1486198230626865 4.1828139115851055 11.273405765939641 -0.08043490551830017 -0.22776168776314323 -0.9804948185420661
P 7.390571531531281 1.4104598358826266 11.225032949342156 -0.44750204788370673 0.1394844033822888 -0.7180368649483183
P 4.348724738898026 3.650918684018981 7.09245291765404 0.7329037547578215 0.5234573203640985 0.9421900094245967
P 4.045217568236264 1.9525501313245244 0.3322544815983855 1.9577983838403443 -0.6785681174297347 -0.7246895943781455
P 1.109825820713127 2.0561320209423783 7.5057646766352875 -0.4935793018577435 -0.8224647909471062 0.8398197372857859
Ni 3.889474004068546 2.8691886840352763 5.116016669120932 0.08762885216357812 0.026714790287024958 -0.8656194719577092
Ni 1.399653063934307 6.1123139212668605 10.360738655578679 0.7891111551873249 0.35152096710069136 -0.20772302394471323
Ni 6.368580854689699 8.790261668439681 5.519399358815529 0.9966192349077547 -0.12481266030272699 -1.3489151325012576
Ni 0.9523398267630042 6.14906250683726 0.6191826182454366 0.16663628120673235 1.514445582238321 0.7237179744934955
Ni 2.650244967281289 2.2620167825718527 12.358226792450905 0.268374319078183 0.36158914996997077 -1.578334924693114
Ni 3.981025713592988 6.433968312747498 0.8213461801002538 0.043792314594602 1.302604422360176 2.480676177551889
Ni 3.3005142011286623 5.196185121949897 12.800541665890025 -0.8652662023833486 -1.4773751597485847 -1.843150065665129
Ni 0.8581818871597741 4.175621754610924 13.327107653430176 -0.4672856582685372 -2.5069934752901792 -1.118887788632389
Ni 8.320788061003856 5.0890998362801865 6.9192952507301495 -1.2288505284064772 0.24243497350460186 -0.35230566778551586
Ni 7.687433371586744 6.972175214153079 8.671528054309725 0.8361209482779601 -0.31594795509208806 -0.711838192336774
Ni -0.36300280631171694 2.939923918606094 2.687758182942372 -0.24587896618914426 -1.1546335787734308 -0.5950969961882719
Ni 1.9053284305726486 3.8232894770677324 6.548535851413674 0.2712318431316361 -0.8903357437574667 -0.24185930350678989
Ni 8.319638798806952 7.4451707541278065 6.262789415815861 1.6173714697702857 -0.04597595250948212 0.2943625156118285
Ni 7.173954143901674 8.08687613095953 3.0765035356404162 0.7971815909002852 0.0983287550795855 2.654637788775441
Ni 6.139775726826783 1.2221013227559583 2.92800773790802 -0.4686313736631542 -0.963443005266102 1.377400127314828
Ni 5.140214199311903 7.889304983770573 9.232875906144605 0.6167382286071313 0.13084112588499403 -0.38825611773819585
Ni 9.262617699611292 4.256867177337312 10.812046505708581 -0.6065957408564908 -0.33889813613035824 0.3014027102880616
Ni 4.537092520268218 2.792382749956612 2.304044559653198 -1.1696771033701145 0.7852473013565444 0.9968606614945994
Ni 5.058616583331625 3.2766762787864003 12.306829747991724 0.03621938734335053 -0.36870493507914565 0.9283567030859302
Ni 5.263565252365233 5.202904598504384 10.70859993244617 -2.341605464668251 0.8973980499208868 3.04153225027942
Ni 1.0106000055512854 1.7315395962648124 5.228158708457025 0.3854410168869039 1.2256613320452183 1.2985063410314024
Ni 2.4815165939372457 4.552941216693283 1.8589760910632704 0.25415740414785265 0.1330227069173451 0.6335979804769475
Ni 7.173073660766948 4.79004142250967 3.179150259486756 1.1815609992918943 -0.9323462838612976 0.794949873356289
Ni 2.1289248055753975 2.565950292435693 9.492713893797022 -1.7587152949588163 0.27561120314625437 0.05569806489325246
P 0.17146065153475057 9.041579359821009 5.544562639981642 1.2905942852731773 -0.11896314350048544 0.24480141685424933
P -0.047719405429084115 5.053213197357465 2.2192225217511194 -0.04408310636214343 1.2381342677012481 -0.4831717333711743
P 6.793261041176787 8.385248694709313 0.9657157558160184 -0.4108658847179118 1.1994751605681535 -1.054678343834016
P 4.741420216985756 0.47176286358611114 4.529778022479527 1.783275757907 -0.6333706949574898 -0.8158349443354143
P 6.779933306990094 8.922195114995707 7.716334535365856 -0.2739407574223669 -0.10793285382825282 0.5370872524427073
P 1.9957401461437083 3.028695155073507 3.8611039106433265 0.4249894686034874 1.404169424988872 -1.1314157458960707
P 0.936685763451931 5.897995058031064 6.20492128372862 -0.02196287742433637 -0.9852580442586644 0.06552584961695167
P 7.856189549661358 4.620460370761472 9.129591527143853 1.131216228290755 0.48234949458019516 -1.0633990115364655
