# total energy = -340854.4012412303 ev
CRYSTAL
PRIMVEC
9.43366165406616 0.00000000000000 0.00000000000000
0.00000000000000 9.43366165406616 0.00000000000000
0.00000000000000 0.00000000000000 13.80711739985258
PRIMCOORD
 96 1
Ni 0.13531832976805774 6.2207168793424055 8.940039665645088 -0.4341464525124071 1.1451793753390664 -2.081399026112841
Ni 1.0645887197839765 5.2371444460050816 2.2086833967807786 -0.4560028862658662 -0.08759568493279753 -1.0166879806331717
Ni 4.1478300989765 2.075943286747918 6.16355266306945 -0.8562511433689317 0.17674791571943754 1.3358750114878477
Ni 9.42322804306509 4.705095361316588 10.764194748879294 -1.1692963229919282 0.8050967319823038 0.33598507624862134
Ni 5.673158854863704 9.278525106664857 3.390931575047358 0.14927233600698808 -2.0060119674310934 -1.1118236826967562
Ni 0.8551142623377808 4.510252513125022 6.839148117237083 0.1671690137817508 1.625692073820839 1.198753966131413
Ni 7.498440317301654 2.703819506709478 2.546349995967342 0.30228305601048583 -0.9801101815091379 0.7847099407958356
Ni 1.4602836586527306 0.5289954084049838 1.0858003080554366 0.9052057188907636 0.5426022687236656 -1.573112757062226
Ni 0.9731199362037777 4.798781055389913 4.661958999951199 1.2102460259314125 1.186505230671047 -0.7782636709498597
Ni 7.7864688754978815 2.5587203565189838 0.09523470132001063 0.11517488010264681 -0.7570937217404639 0.41688509432879817
Ni 6.947608812222465 2.7459974080489036 9.127084649097855 -0.08403162173062302 -2.179521835829208 0.46964670230154604
Ni 0.3287093374281685 0.5671347591822512 3.029392151631416 -3.1611294278194784 1.1176127785747074 0.794676050869612
Ni 6.237886143587038 5.25488916361176 0.6407993930872325 -0.405195830916328 0.790809111715038 -0.25938831352948877
Ni 3.7755306410564757 4.08690751189307 3.9905190737504674 0.46388074635204624 -1.4037084261920534 -0.4784169922950083
Ni 2.692131199896786 1.267280374487375 9.864509265235679 1.0085344982881017 -1.5512447533445413 -0.697829793872824
Ni 3.5293120713944304 9.112237952357084 4.880829384423578 0.5612142273978981 0.6842327719146797 1.0541656658636556
Ni 5.200730511947783 6.207424850045324 2.877237565875778 1.2449402348794882 -1.5555840041498434 -1.207046030936876
Ni 9.055569946688122 3.0169604722789005 4.547954142000668 -0.2022290907096775 -2.309637910622719 -0.024645309352505942
Ni 0.12983359887144805 7.866079546355277 1.1717381357968286 0.4771527808706041 -1.8840360052462133 1.13965227487325
Ni 4.621711225790044 3.121117530809117 10.955464126029174 0.17946017244427803 -0.8425407357613747 -3.29543280122146
Ni 8.94630927719288 8.211719476387755 7.008244615991039 0.10636756622366197 0.041738774499682954 0.8427855047823292
Ni 5.596246211244753 4.3346260337611024 8.00208087322845 -1.0715576360878576 1.7494045590808516 -1.487557242487909
Ni 7.122754174841068 0.3729692478987975 12.899838020157837 -3.0855971018091184 1.170299567445462 1.6676416787797474
Ni 5.582444764217336 1.6361837142051634 4.4945067884268255 1.5980120914070672 1.0232247533104246 0.6452597330855919
P 5.460052437673451 5.317207932622774 5.806197068605429 -1.1628713933021908 0.9412065624654048 0.7394991485871523
P 9.259620048672414 3.2360572646314294 8.946666812970282 -0.20182465618240725 1.9598012732029857 2.973452266782047
P 4.5503833098814335 -0.07785695315240705 0.10889464342233406 0.10583123410421773 2.342830338214288 -0.2747365138507849
P 4.258147338579103 6.300827534268462 13.114083080312005 -1.835973859631664 0.5087457251855367 1.0310676463936113
P 1.6822671514771592 6.682173873732773 3.781741763901897 -0.6078972332767337 -0.4552891480282933 -0.7364125392420285
P 4.55394923399378 2.5974549713478097 8.410798982036608 -0.693065025494329 -1.6122662873332363 0.781709463406615
P 5.124940474067903 9.190858088738826 6.4060741807218955 -0.06896804252928122 -0.9808866546638462 -0.9683219306249581
P 7.6592748151625045 9.236252868708702 3.8942834609269643 1.118819654398615 1.946326635755319 0.0951668124118361
Ni 3.437315002760551 0.14862356619148107 7.7320413644762285 0.1405670949235063 1.846557291574465 -0.9872069404549192
Ni 4.84745874962195 4.233874527094795 12.82041979599857 -1.8934912371218422 2.1765342139557933 1.0625775440764345
Ni 1.5050086486438325 7.623625007700709 5.792706932413218 0.4861868660484142 -0.16559884108115352 -0.13892981643039945
Ni 1.038448043288439 8.654780830516016 9.334840293387252 -2.7626338917414612 0.7372931420747689 0.32922924558202654
Ni 6.12916319280715 6.508736003876961 12.087316740273087 1.874366343366933 0.2505663443624846 -1.080075957971514
Ni 2.111706298149788 2.914510906511475 7.505535374245824 2.3529792537228316 -1.4566476973932463 0.908705761624222
Ni 2.2029109392031465 2.8783894159660357 2.0343823468818982 -0.39342069265827084 -0.2405472695635857 0.765216093737282
Ni 2.126177535155979 8.712703513187469 3.1096386512855623 -1.1371516199385836 -0.8352246617159358 -0.423946886271586
Ni 0.4450716674307506 1.4633212977113965 7.985236126945365 0.9012374782716351 -3.4824293912520994 0.9056538621717757
Ni 6.2600646821799675 0.8513898527093295 1.3280803239690562 -0.5214006949453859 -0.11836639045675101 -0.3503061208569838
Ni 2.913548673020842 8.285943526429936 13.021519991977753 -0.22042530200273003 -0.47171515479480053 0.03240901245832483
Ni 8.430335151994965 2.835277582120996 11.470470357539451 -1.4440994284145903 -1.6240648226300614 -0.4011751397927091
Ni 0.07832486277138168 7.186742701968181 11.400798992620599 1.5950810338032013 0.5809890960319801 -0.9324668685995617
Ni 2.0946502378452294 5.5192580983324175 12.62816931803471 0.3054889645422933 0.08292733292285073 0.9946052898015193
Ni 3.192134135882522 4.700444566111861 6.360925619321682 0.9834914392765449 0.3829326486427534 0.20540800265829143
Ni 6.753548957949747 7.680264712384652 7.770714660504179 -0.47275362336164395 -0.0630629898987559 0.13489704112192252
Ni 1.7703303831934498 6.0082142164992165 10.373687380564455 1.6081841468440625 2.971191495772328 -0.6019132477791569
Ni 6.420238823723718 3.7394091505110367 4.847817228765519 -0.11402662543081653 -0.36057253577999837 -0.5635886411673455
Ni 6.605459337008951 7.657482419444658 5.293593590723233 -0.8580501442508836 -0.1095523917095468 0.5492706818827766
Ni 4.297985691823655 2.9304726620619803 0.9808093138333384 -0.4676942065608655 -2.27079445539296 -1.9381962933387007
Ni 7.694452939540656 5.111667312094167 2.5361050393905997 -0.030518480303831315 0.2188882965329134 -0.378435017882716
Ni 8.399119165519421 5.680186932809996 6.7455086481059565 -1.329832919058826 1.1223973444475446 -1.2852579606619285
Ni 8.125175064200796 7.774016442089686 12.917897822064388 -0.9640562133700687 -1.5660296249632 1.4481211479794738
Ni 6.682938000328276 8.20816298593708 10.201623051848212 0.626718736858611 -0.00519851348180395 -0.7827096225363552
P 8.336404182718146 9.637806111476312 8.918086591566139 -1.4078090786239883 -1.0670052408304849 -0.4110378915194018
P 8.967252006106664 0.06956099107728053 0.1253978911528621 -0.3027962482014785 1.1055759020148315 -0.18270387619255632
P 1.667135558153867 0.37825587190027676 6.490615826535701 -0.7286421512679903 -0.17398809358611325 -0.6877430990607833
P 2.133413153659074 2.5676540341231964 13.52677747751528 0.435555674155108 -0.3775610999181949 0.5926055972249858
P 5.076621258979436 6.907374245187652 9.074507079130251 -0.0413695640857223 0.3910051412382427 -0.3355495313730995
P 1.8386961293367772 9.026136922268751 11.38105528210544 -0.2661968518108899 0.6236118157985131 -1.5424577511805306
P 9.546016583399236 2.9427930242067553 1.6369025592246365 -0.8925214385548756 -0.1325730209744362 0.47558646482474864
P 5.717742339929713 3.793143287399734 2.052124234390075 1.1071409325091062 0.9803608640673631 2.5097129311038713
Ni 2.9980837152714774 7.276202115612057 1.338706400477383 -0.3460211203283847 -0.27313060281624574 -0.22782262290806568
Ni 7.045879265868807 7.239033488620929 1.7306259879446524 1.9943808109500687 1.0676783556381095 1.7917768533994753
Ni 0.1985898986080323 3.8378116754207983 13.31427198457359 1.596855609205121 0.8266857710069891 0.3951962965014549
Ni 0.6369853636728892 1.189575303287901 12.417942054387018 1.0874637657951527 0.6307468841813976 0.1054291135697926
Ni 3.092939183392238 8.137269018465421 9.27635347774776 2.745636585852517 -2.5787267392694235 1.3336291528764646
Ni 3.156437160112362 4.89280636128346 8.858880930907175 1.0002707156174129 -0.6468946975858536 -0.9750127123815724
Ni 3.73322066845363 6.264177758669342 4.603513692423067 -1.1330013452156358 1.4272808141953548 -0.4235493937228512
Ni 7.559117629181587 4.88026902492021 8.898673059209528 1.3043028931085214 1.265224181939505 0.5792937106074282
Ni 7.487648208347884 4.7792911103737525 12.50735712982103 1.1912288613989614 -0.46278185686091267 -0.34238506623769416
Ni 8.246208943463786 0.40085515180381687 11.163897107226687 1.7429888853624949 -0.5086426239487691 -3.246893715970492
Ni 1.7935937928787602 1.5499506128534102 4.585164277103157 -2.2451656990812623 -0.023882977265184673 1.6537057854249455
Ni 3.724749240271388 1.3672488872348345 12.069090905921092 -0.6083263503943523 -1.304175880612354 1.3888307377492728
Ni 4.069492972444943 7.2732399458467745 6.563103139463909 0.7577966613447594 0.030187579326973815 1.9799978027555187
Ni 8.602159865704715 2.9896594553975997 7.093517370584492 -3.213280913012053 1.0354200098250361 -3.0828442216543293
Ni 3.29646100032285 4.946757472390635 0.974115187510266 -0.10123281610025793 0.7469412066874943 -0.028255395301267465
Ni 5.8205032165323445 7.7198766577490545 13.86303657438025 -0.9989183153545764 1.174376822838629 0.6430732669572344
Ni 1.314561886791826 2.8338530992083917 10.509369849673085 -0.7255653121148794 -0.7844967963437651 -0.08068044587020298
Ni 4.5998156970473 5.693733670972246 10.797580477539599 -1.9294676552164511 -0.5378974070488285 -1.092196652494448
Ni 8.721325879956478 0.8698939800806743 5.882756893277815 0.26778630778519685 -0.22232817545239777 -1.5895197376653398
Ni 5.32828305142673 0.8225869968897067 9.992570279078794 -0.4103380372388998 0.8043320859021373 -0.6894670237304255
Ni 3.719485257057924 0.9494320117431878 2.1773136416199663 0.4505506049020434 -2.9943183115977785 -3.482996062388847
Ni 6.577016847065232 0.8703807570229949 7.211526817915159 1.65072819085386 1.1975236932687376 1.4166968680319214
Ni 5.046631648521365 8.568491127194225 11.692778368325428 -1.482900203331872 0.7720076627378188 0.6725147121468031
Ni 8.791361384215904 7.637577393314891 4.324099010700341 1.890925533277195 -1.8560760296981778 0.12610978184759572
P 2.230334593686195 6.568045434814328 7.620617556359395 -0.9742994883646316 -0.7121567520184574 0.8933171949832938
P 4.134047519272428 7.97193466398661 3.007714540473316 -0.3731161767729639 -0.37540368725555995 0.15517353198277145
P 8.611253915557368 5.691158281335551 0.5018387265472777 0.011367361296677198 1.087425970578682 0.18458643792724985
P 3.599989064647612 1.8538937582917792 3.84909339141539 1.3266570924340055 3.1133881558794574 2.245710772951455
P 2.702857273218845 4.310211717351701 10.927242383768602 1.5355687373701812 -0.7987371083128632 0.7174115726594935
P 7.7252066765942295 6.3653537801109294 10.552047735081173 0.7006153270377612 -0.985580974815722 -0.06137377512179107
P 6.111409041538799 2.735554344577031 12.62695426241124 1.7801192145558888 -2.196801448845262 -0.8440301758227077
P 8.14920260048161 4.87869360342084 4.550563492819386 1.1207559521893795 1.980385525112241 1.6784169150183803
