# total energy = -340890.50148772204 ev
CRYSTAL
PRIMVEC
9.06228962221261 0.00000000000000 0.00000000000000

0.00000000000000 9.06228962221261 0.00000000000000

0.00000000000000 0.00000000000000 13.26357689238090

PRIMCOORD
 96 1
Ni 6.267026194093884 1.782135448157528 11.409421374682351 1.311239986547987 0.9105878091382833 0.48782157343835986
Ni 4.832492978207137 0.4719449980961635 6.191251861765179 -0.8585322260936247 -0.6870476156556555 -0.9635139677133534
Ni 2.7404816083073684 1.7625699654692935 4.896394805269582 0.7621672796086294 -2.107511921149809 -0.628980022088962
Ni 3.3362727587730014 4.203434163568966 4.732510552360562 -0.1326954054849134 1.6850125659580268 -0.823854215095465
Ni 5.010358531112177 4.482307993474037 2.4959266681384475 0.7360952651119258 -0.3372315470612128 1.277272628463607
Ni 7.004805293961676 6.239920886673546 2.8779311632073195 0.782813237993755 0.21310125753749104 -1.221788479353373
Ni 5.1245977505507545 4.128860584578006 11.800604156396265 -0.949356445266049 0.7719621542118641 -0.3728562382433579
Ni 5.776103855887746 7.86315815351773 12.503480755094317 -0.48171443209935744 -0.04217971869184348 -0.7556307640416923
Ni 1.7864400355947265 6.388868674289954 0.5322391277717687 0.047391601910086116 0.21650411257145294 -1.2905364354520485
Ni 2.6115071063995616 1.419788871128174 0.5282218149066948 0.19739824497993746 0.5533337962085567 0.2588298699228575
Ni 0.7415327001130286 -0.0493432592353724 4.869417276128958 0.3817316863561168 1.2921642008634584 -0.16662728234566787
Ni 9.016416032823917 2.182788322233278 1.1341391674824866 0.22593080520199155 0.5031422629558302 1.2804952491659625
Ni 6.901739877281131 0.626632839781459 4.684456856898481 -0.2654139508982784 0.7598584289697946 0.41532931980590404
Ni 0.7841046167524544 7.498990056330741 2.4340257945625994 -0.3197848123396751 0.6990549245291767 0.49782187918418136
Ni 7.5741617464182385 4.129775875801495 3.773143072201938 0.5188442470721193 -0.9775619611659873 -0.4237877349859024
Ni 7.303788343915468 3.9007446372745123 12.711240988079 1.8598966889958484 -1.09987448075468 1.0387737567886173
Ni 7.920694628546727 8.707029474706117 6.9359355198822366 0.7381866004233157 1.005085620507553 0.44591927677761917
Ni 6.812530701003697 0.5899640984190673 0.41467223568700445 1.042491829070153 1.5840841684720652 -0.9872617049522545
Ni 1.6454308134414466 6.793762699777511 9.151682482221508 1.3029687476781302 -0.05102097113255729 1.1668887419917
Ni 8.985287068935968 4.687813528870561 1.2440991738940206 0.4631194427059895 1.132973577301494 0.28646948601699695
Ni 6.563716484844284 1.8547243857827065 7.073200204079621 -0.46562446851603034 1.5069639291492951 -0.5606462707095698
Ni 3.6704809273970898 4.533210872705076 0.47361699047966477 -1.2871819171575187 -0.49091666742391576 -0.07185924803414721
Ni 5.778831604979529 5.600241068927171 4.862042385062869 0.9380363922675392 0.4388867954108699 -0.36446621440744975
Ni 5.23544767377562 3.084721731232465 9.387680808794213 0.7061262295536612 -0.7091434191134304 -0.3154504466303793
P 0.24392511105968911 5.7643591289012015 12.31779082157185 -0.373128518068138 -2.75929145763179 0.8112848630708867
P 4.400801763136851 6.174146790633153 12.392331776321182 -1.0990980075999714 -0.540087986942244 0.03204288736815772
P 2.5604592305390583 8.478333540884769 1.5260541821751905 -0.174499486004893 -0.05718570518237249 -1.195738833454173
P 6.507929031658192 7.796541264568582 5.642391589112219 -0.9961564363387232 -1.0307701697578506 -0.2414903502031454
P 4.645963876691651 0.9564158925201075 12.437242669839641 -0.42790921335344373 -0.4977681431281105 1.688231587115957
P 4.096734768862493 6.3126276340601635 8.229240206213639 0.12694307638216848 -0.835696973366664 -1.530961577615473
P 4.692834037165737 1.366810727637938 4.045908012861922 0.9253616250133484 -1.420631170089321 -1.6675987413569537
P 0.13363976846079628 5.737706935947936 3.337182612622885 -0.529090864500792 -1.4649762718635995 1.295304289154337
Ni 1.3964444137845462 0.9417984198123156 2.6818821267386186 0.5179669866734886 0.5386728517622722 -0.43303239351262196
Ni 1.7905271280877297 6.584994740218057 5.0181285379935545 1.1724387252756518 0.30167396167157723 -1.6656634720074537
Ni 6.207912880719472 5.603657552008906 9.3230340615479 -1.8200569312910915 -0.24568356234888653 -0.3733946272453311
Ni 8.828446027303137 2.6112624245873417 10.305586502757741 -0.9700198871526714 -0.6368128878698194 -0.4468736702710885
Ni 2.456523834081734 5.336501262222357 6.874326452023184 0.026927420518463304 -0.46422347440344564 1.323364794835979
Ni 0.35533780245266083 9.168771241232719 9.147715918176747 0.4114826923663042 -0.5278780751396135 0.4220273006513699
Ni 1.3560991016363197 1.0314063368207753 11.544139555574782 -0.29088509858618933 0.33349547705754823 -0.34009292776940786
Ni 4.014258873565771 6.783957302710041 1.5133343528555026 0.3947422396831718 1.0229259911230835 0.42231397865385334
Ni 5.852218024066757 7.608090957712704 7.845432315565815 -0.30544139913380947 0.46710773792977617 0.3889035215142076
Ni 5.314271466467731 3.2042805145144846 4.934726476726133 0.7977207512332067 -1.440515310607758 0.02056959662123554
Ni 0.9449158473457814 7.551931950663612 7.064591935434158 -0.1934821977549829 0.21758526145077364 -0.601617570915609
Ni 5.279735081787386 4.654736172774195 7.079354404771413 -0.9139541545073551 0.2682339368455767 1.0729730283781456
Ni 8.127940123496815 6.880978172399823 9.090629838928022 0.44124012613439495 1.5539104731021625 0.271653504050087
Ni 4.463168438384851 -0.03963392243492097 10.504819121472101 1.4992465059003792 2.223874136692338 -1.298151528795145
Ni 8.545621039245187 7.252985149867184 4.739765821207343 -1.9126966064056992 -0.9394394432626532 -0.06590457311260907
Ni 7.6068766109409465 6.171790595404371 6.8258876092640905 -0.1309128596631939 -0.9472216583112333 -0.1984043176469486
Ni 2.1521215351017418 5.29060076670781 2.645831433509315 0.3724888276016101 -0.23032044962925496 0.4677924227016266
Ni 2.5606676631939123 5.243014685375748 11.37399416695974 -0.5854165356757144 -0.33685205223460696 0.9818184224494962
Ni 1.031034782957775 3.1708044176870924 3.9521876289503033 -0.03091802973509514 0.44072976215687965 -1.42813519177585
Ni 3.400007839711563 2.71047636829776 2.6261218604205507 0.03548610872175179 -0.4987978699442055 0.13214236119492082
Ni 1.0156288910772753 3.320259693506623 8.165203351040006 0.5517091161209402 0.1273660228522 -0.5601791012651643
Ni 3.5942127002992748 2.696121701980871 7.135074797016379 0.8559068726556357 0.6354689722474153 0.47848126987404044
Ni 4.275443114676291 6.996712669579742 5.913818029636468 -0.9762386143688735 0.8607474885773886 0.2456059150334157
Ni 0.7546530826216096 7.535955134554599 11.53173781261098 1.0272888960774695 0.6760970301814228 -0.8254971500155267
P 0.4393443184191577 5.524770323291405 7.955294449252461 -0.7003888128492519 -0.5583333063056771 -1.2046518196730867
P 8.470938712782129 1.6599576632558237 8.047502337072988 0.49358804360849184 0.490627161207955 0.1109137908334477
P 1.9952895557582544 3.1888746226339846 10.170272023226643 -0.8773311039676827 0.6206599322590408 1.2635635064076305
P 4.032365327670029 6.118531520944549 3.67378503809099 -0.6301550162336695 0.6319028521627117 0.384507449329041
P 6.931192317640911 3.902783652376343 10.66163388246584 0.01606733787550781 -0.2914952213663625 -3.3738249652781187
P 6.429232111016863 7.852074973653113 10.101791927588886 -0.04846658014181976 -0.19196961776519839 0.7285557622017711
P 2.629169508326087 8.74285270447295 5.963197538029206 0.13606457906746244 -1.1337662484061186 -0.5372147791595071
P 7.110254092739026 3.680213826149829 1.544570251757683 -1.8630491185819011 0.2926463042516702 1.242708260225176
Ni 5.122078434113825 2.5355198102713317 0.5825710827742956 0.05276340774496074 0.5383501783155309 -0.19084655990434873
Ni 1.4392909177910183 1.1496692127269645 6.9460816590289465 -0.34915503797167613 0.45787516358791464 0.8823591533098932
Ni 6.736262473905882 0.9405387615938512 9.300140906213477 0.1135507142356625 -1.0802561923031202 -0.1766299020843345
Ni 2.6682007885198002 1.4106359588932889 9.143259990507547 0.3744899171920389 0.10676454455176451 0.6892726483314323
Ni 6.439726242074285 1.9268602089408111 2.5559308045551257 0.027107397739753313 0.3843526689187316 0.9200474118892864
Ni 3.902801776955026 6.86142175200093 10.285213570089182 0.39126430843690035 -0.860570339569576 0.3209932308254794
Ni 8.175653076879657 7.188117282760938 13.51651330027526 -0.3395445114651055 -0.3407495875168003 0.23486410313587938
Ni 7.691264649288719 3.989074771485825 8.292136119159181 0.0008446073884824164 -0.4935785305267952 -0.238660336953518
Ni 3.13867860197158 8.359055688572335 12.509992916215097 0.1630130826318483 -0.7993230627233201 0.28591824149921724
Ni 0.2852337445649138 5.10966309771601 10.176266727626025 -0.2575024093606856 -1.3050917075584039 0.6077331968950437
Ni 8.532127290415737 2.0354173729622853 5.765848969268939 0.7276101104590501 1.5218863547870822 -0.24676059746314924
Ni 3.300721397686413 2.5632141664988652 11.799157815017365 0.3668899933575939 0.6744828916167673 -0.3448504970590513
Ni 0.9301624402978675 3.506970040808939 12.2901889006956 0.2796097827826862 0.362545343235653 0.8088536279215747
Ni 3.1590053169644983 8.340994545914784 8.07761088718109 1.0720890831112955 0.05585233108292962 -0.07823815497729751
Ni 5.51284435051803 8.044503625529895 3.5640950879018316 -0.5811721585770636 -0.43076699451721295 0.6257525162905997
Ni 2.9538532108522904 8.498796190217808 3.645798876146661 1.2966371490331476 -0.7366642502415184 1.0533691381042891
Ni 3.4768741779059154 4.492919934292898 9.245415553338205 -0.4040025819391752 0.5377997051286996 -0.5964864203366307
Ni 7.122071318040303 5.901734373028551 11.493140616076724 0.6059475657495307 1.5821370720480237 0.24617618571458894
Ni 0.6966018695580182 -0.19317900943425712 0.35735234937326976 0.011151131520813054 0.8797595109035172 0.12143397363848116
Ni 4.763447395714474 0.3042246781088993 1.6825508568130436 -1.123554597980439 -0.17415238707811945 -0.21354862948755482
Ni 5.88052861596951 5.557720807336993 0.6340176993658233 1.8359067538391542 0.7717783203358322 -0.7549350235262482
Ni 8.040416533036893 8.951095051250599 11.242048140376866 -0.7808543144951713 0.3992666099160866 0.49765295770648493
Ni 0.19065425562372343 4.763528956318547 5.521109158397452 -0.36583841216462804 0.18834487652841755 1.0635975007005167
Ni 7.843538297093447 8.9984273884811 2.53521350489159 1.065147618796456 -1.148519495455893 -0.1555378573007257
P 8.67635362528524 1.5862993754883519 3.5728628528397044 -1.292792835586393 0.5340600355806093 0.7824723097145686
P 1.8830621645534844 3.560292551294151 1.341345694588406 -0.40690947117332504 -1.0911862089520628 -0.8304411242843632
P 4.813199364199147 1.1867067892655543 8.237728852639794 -0.7173596363756356 -0.25371800261758887 1.0725392832748366
P 8.437553238848151 1.796616986525198 12.457641883147291 -0.552534440235713 -1.520996238872645 -1.6948308376000296
P 6.461593546255254 7.786781178947818 1.396376446614485 -1.6993145844029958 -1.0256626733279561 0.5988410366117365
P 1.9062344383996244 3.320984676653941 5.982098754908711 -2.0723502856470115 0.4805564072355143 1.320993723500641
P 6.981551459511461 4.0040456734779335 5.970572429095295 1.7946896561708963 -0.15121249045249444 0.4155766599300198
P 2.3265434180570237 8.517944807596336 10.364688941384943 -0.44333583232115914 0.5124002912189886 -1.031374636111069
