# total energy = -340868.1665648009 ev
CRYSTAL
PRIMVEC
9.28056342812127 0.00000000000000 0.00000000000000

0.00000000000000 9.28056342812127 0.00000000000000

0.00000000000000 0.00000000000000 13.58304267078404

PRIMCOORD
 96 1
Ni 3.6924577193822996 3.8801014287049194 6.210615138807538 -0.3001960915744701 -1.1305215162165756 2.19581337390038
Ni 5.771452387151031 2.482996149258038 1.1092565440265754 0.815156430211151 0.3678631559041407 -0.6072608852443155
Ni 6.8830132950445035 1.2330806037177169 12.244691690334863 -0.19737021995547946 1.7225558143191237 2.2670416732187477
Ni 7.808331858673358 4.006465578570729 13.548311071511822 1.0646349408260953 0.006707751037478771 0.07041248828529163
Ni 5.534566008969129 0.16000340765213364 0.8863067877493069 0.3442498873605749 0.023704028485159175 -0.9824563131438111
Ni 6.557154156524508 7.410993821632029 2.100183121834436 -1.7740791790093962 0.16737033115927952 -0.4813087120205065
Ni 0.6845027949465718 4.940897655358236 0.9034080817385641 0.2655844150378716 2.1962846571098433 -1.3405359072986267
Ni 0.7774717658407938 8.319440321185088 5.870862997030407 -0.6034176002388253 1.1274259080103874 -0.8028511304812367
Ni 2.663957853006085 4.524348852290009 10.158254938857452 1.3866625264533603 -1.4477251980926358 -1.2239042401447955
Ni 0.23384977787079023 8.333500374581583 8.461909032541946 -0.5045044334106795 0.07925271228474093 -0.5734881596692446
Ni 8.65449649793342 6.579279019426981 6.520349298597228 -1.0533627103463858 0.14077252606609303 1.307839188396554
Ni 0.7332183278105263 4.035003310712133 2.9064858856168514 0.8287431677566502 0.29525854506353666 2.253217108630829
Ni 5.797540050581758 3.9467729954378785 4.924763396064632 -3.2225075738166433 -0.40581340989566883 0.33279613699767846
Ni 2.689210265739991 5.521953723447123 7.935349360195348 -0.5070428835618171 0.31032032449266556 0.34201894114752707
Ni 5.292974385195133 9.34691932559852 6.705785161911249 0.7223915423725881 -1.0908938745226244 -0.26595645366530973
Ni 8.145541126106831 5.742311418395255 2.302774106404843 1.5735657854392449 -0.13274039979023589 -0.0014660430225652173
Ni 7.947531027580325 3.1047938902252232 7.573727571006439 0.5186552709897648 0.8039045114464155 0.4745641942078213
Ni 3.0803860087514368 3.0006010060783788 12.112175455058798 -0.9809015670621815 1.4447272918065766 -0.10636910888555874
Ni 7.058685077712681 2.9784668626126063 10.17712139598599 -0.8120034864044661 -0.038419737428778994 0.6316729955400928
Ni 5.108513909083733 9.147888365109232 11.634296977491951 -0.7743288546718278 0.10048282530811081 0.5557249221485526
Ni 6.074137959115878 4.906773024111425 1.5935488188886817 -1.2472004916685746 -0.8146815474572613 1.4358772976151142
Ni 0.7090740143344034 1.2555024446457275 9.477744642241687 1.2742261283277991 1.1710891532262928 0.4916273203376953
Ni 3.1635491364649733 0.5319980824392364 2.9735992071627964 0.7280171160894817 0.5578555953383102 -0.011136476232793723
Ni 4.0234026065896105 3.7399556423415543 2.1811244826944267 -0.19626875936118454 -0.3069357242911488 0.4431579119823981
P 8.254838320067586 1.1761814701375701 8.298505226497419 1.0078588123773158 -1.4654326426747277 -0.39187905920276384
P 5.081498189323203 4.682387564691953 10.64576385695865 0.3496815998991074 -0.2882224641523617 -1.0464978649057526
P 1.5511904718838692 4.031996408203575 5.416876401617978 -0.7268809456025095 -0.5101428626433795 0.47331720917459774
P 0.8299264376575196 6.9418242246640425 2.4957077368073324 -0.11427705087872578 -0.8899320805611448 -0.9925450648383808
P 7.830670174531687 7.519288714756597 10.517417378772384 1.2071223927007664 0.1123798338560129 0.99323514892687
P 0.6821743016150991 2.3193705377506877 11.75022791809813 1.0788467135501032 -0.1367163537188484 -1.8503234434851166
P 5.187083157964752 1.3468231874982217 2.9348472870555935 -1.091013173709308 0.46178735415812733 0.4212089185151327
P 7.893239732286922 1.5868927988913435 0.5948488412624017 0.4147130263781439 -1.0381968012392249 -0.5339204246789514
Ni 3.64559087472731 0.013657276949362838 9.239945984687589 0.8683070460922014 1.564674653597202 1.5949133978770853
Ni 8.065431303718343 3.003877044922579 2.180023807887282 -0.1867497641271558 0.1296321931785574 -0.5435561479965025
Ni 7.460273612744503 7.9566631018655745 12.673603131772378 -0.9560436274782373 1.1039267964471828 -0.2058039525451294
Ni 4.512516134085037 3.802822178122326 8.55982918395566 -0.9132612422053885 -0.4779076567587576 1.4067353859438354
Ni 8.559212954552672 2.3521587678825844 4.640850547539015 0.4357659903937011 0.2738785367258638 0.3185257431215933
Ni 6.26495562108642 4.918939842595126 7.5101046693168785 0.649840667588055 2.243118072523614 -0.03681331217360757
Ni 2.492026137347009 0.8383838149910032 11.270705852771204 -0.0547621833425444 1.3985531072433592 -0.787040131590909
Ni 2.3058487570254758 7.651768755835799 3.817663654948516 0.647763216233736 -0.1527597803349563 0.23284758692648283
Ni 5.480460324941687 6.777307679080082 11.350709876738094 1.1882047298606568 -0.0605034567016958 1.0484778714502587
Ni 2.1245993558151905 6.5016842296922555 5.9872561096888255 0.289956673234649 -0.22111307209837402 0.41401805719364826
Ni 6.671648465932151 6.415792616369101 4.338939902609552 -0.6269082271615978 -0.6278849892525702 0.6869437430879395
Ni 8.456764816305855 7.808276175293571 3.683720997093546 0.6075691605133537 0.4216377785224351 0.3587845906416402
Ni 3.530901673490408 7.922380701042698 7.539118494355471 -0.5577344963794136 -1.4490027792534788 -2.1645299904060655
Ni 4.586630712583006 1.9922306814955641 10.555232890042817 1.1398487071547725 0.7949969245441405 -0.71944402970849
Ni 2.616849713705347 8.832015112697901 13.116872532688255 2.304205426753238 -1.4026187926723006 -0.07078144158893616
Ni 3.54188986043526 5.40764502530544 12.128407160267031 0.5209114140137932 0.7641058913922388 0.832077888556838
Ni 7.323895735080133 6.890790407088243 8.555673347710808 -0.7554258471197377 0.9526968224931913 -1.1506789650010572
Ni 6.16762107321681 1.4457911145082825 8.597251199342256 -1.0800548749255916 -0.3315820620849193 -0.6348141122722358
Ni 0.8060531166296989 8.542034631888042 10.872845320016197 -1.5440965723355344 -1.2621321732777424 0.3237391690017328
Ni 9.314530159688438 3.6570430898370643 10.273575218398618 -0.43855280911021893 -0.027900840175326146 -1.4462905225286382
Ni 5.765503546077002 4.162072783388591 12.65608142826572 -1.3985752187305462 -0.21272150560056913 -0.6215297364585037
Ni 4.434967747166801 6.106285830380211 5.84725510011291 1.85075821702969 1.2064065975806642 1.2066130571645155
Ni 1.2710195464800131 4.563837649123075 11.966063194551136 -0.6594637925001159 0.18350168950350332 1.7185466931597309
Ni 7.662794065033845 0.5252928754564187 10.333272441813117 0.6157221286377911 -1.6307016112202883 -1.0531873611107863
P 7.878697089598928 0.1624943108413216 4.834354004528003 1.2130068765060014 1.0775732461543184 0.8890638190235784
P 4.557666074529893 7.7302451990838374 13.350921842669955 -0.36888465519011954 -0.4794132947700066 -0.533579496399765
P 7.284184204727914 4.280130829102674 3.562940962164154 0.48331468670694183 0.4265490997811235 0.7726098150981919
P 5.790199125013026 2.963478752886308 6.980855489726515 -0.5142882522703208 -1.6730024288710286 -1.4134423656503659
P 4.468897486584353 6.180428250568075 3.37208524988409 2.28865745171631 1.8320909796374898 -1.6457081119314496
P 2.9770933392445 2.139559623851595 9.078104097446117 -0.5893001870008368 -0.01199393913708257 0.5824798216448935
P 9.168481935067533 5.04654758794287 8.09755782968709 -0.3093358490922092 -0.21083945808650786 0.26989744059092874
P 0.7455772539544965 7.574545188632995 12.968382591863643 0.0005242479345861938 0.6950537737895837 0.6031815729686192
Ni 0.38182464743236316 5.841632006810641 4.665340097969824 0.23814714476252533 -0.49392074435756217 -1.9046369693260163
Ni 7.432172067078105 5.303359335525614 10.199343704803095 -0.4445979868630343 -0.2349450928854599 0.18365826968602564
Ni 4.869734295989035 8.190217757823488 4.277517422477953 -0.08640500705880604 0.8071739262263067 0.8565082536850604
Ni 8.655034770604704 6.050843745237853 12.210869605451567 0.7552795513498606 -0.8714553619131961 -0.2118288185829707
Ni 0.8871364701081498 5.956868761282127 9.981593848141705 -0.7695741135956617 1.2742346129682314 -0.7631802942541759
Ni 0.5703054635644641 2.87105362300135 0.1468147991493207 0.5353509864778909 -1.0457722995936376 1.5175766716681347
Ni 4.174035429479736 7.918102361362311 1.983504167826438 -0.930969715228745 -0.9363176098042197 -0.8075220535943448
Ni 8.585291337420102 8.008986917739799 1.27777579656097 1.5694080545171294 0.7929130454319183 -0.8939139480270283
Ni 3.2048940459576416 5.010474038403474 4.352740100233705 -2.5800629415823435 -1.5642355091772544 -1.6251793958504788
Ni 1.6059921981586638 9.15198109352366 1.3652451056447867 -1.0773076511977577 -0.7703117630926346 2.6961287089303765
Ni 0.64055004716716 0.6130229683689097 12.982169796699178 -2.7646969449180774 -0.3276282196434938 -0.2706826554963854
Ni 0.007740917846876558 1.0707728321986854 2.69118145738449 1.776659538142063 -1.0154201696643415 0.2364353042777412
Ni 3.666499983837744 2.5694167546891786 4.240884254971687 0.6556891559490321 -0.5156095421849055 -0.16119736957934822
Ni 2.9994409356661262 1.90615345690645 0.6248269168276583 -0.003573062063239008 -0.4675491963425689 0.8478184392205462
Ni 2.672486690676963 5.6988319793440425 1.978873166740727 -0.10409471102908524 1.6660529941363889 1.380071503499404
Ni 3.293040836162214 1.1506784821946177 7.08275514668242 -0.5753547805643382 1.7460518405585348 0.19679480706798363
Ni 7.2053643806378505 0.5918957660209725 2.738001899222989 -2.4837987823412706 -0.8896533729784615 -0.5812192097649151
Ni 1.5384853807288832 3.367814334654343 8.032807339556822 -0.4037411007476724 0.24524056127419697 -0.78271527896331
Ni 4.503170606843933 6.358902763352253 9.207468653426176 0.5485381745921263 0.23301059486690837 -0.09564040961414497
Ni 7.794986408650808 4.501156724608263 5.667795919562812 2.041221425452691 0.47842624826638896 0.16746237665245353
Ni 0.6702942525373067 1.2768106179779763 6.805932648516489 -0.9326956967809162 0.26017198577304873 0.8839743203158131
Ni 6.2481949237702 1.489047820040343 4.961844814778192 -1.1337940163202604 0.36768035046937325 0.2309488272418732
Ni 3.1287006212809167 7.682923606827245 11.239818282002739 0.26511801692441433 -1.0692120186738168 -0.8488682206412993
Ni 1.689545109530717 1.2406257016790052 4.710137377009356 -1.2737093365923806 0.9197584198939579 -0.5526784220127449
P 6.2572341924224695 7.127704626960038 6.521925138245232 0.25481817766030307 0.33374178874039945 -0.03817034042213426
P 1.7012386192862194 2.2382212922728213 2.4012102571379272 1.663971686127328 -0.7559392964210465 0.31531032150808924
P 2.9636272418990757 9.09424670924669 5.515461969420159 0.5670534597874943 -1.9514791264905362 -0.6879487873136861
P 5.697634786678599 8.672018201440077 9.590986075604098 0.24798624234013422 -0.545296527726377 -0.45598488854373725
P 2.182612156991099 7.717252410466613 9.289171020476605 -0.6032003420216967 -1.2044862406295 -0.6429408551444283
P 6.804536851796467 6.01846385989107 0.03197154056167095 0.9088170903911058 1.0858514270027104 -0.9152952419162816
P 2.9451217986828286 4.358486625027838 0.4126286931311434 -0.8182718359116811 -0.6750289939282245 -1.5634461805067397
P 4.734303035781064 1.9027567707393758 12.762952682980373 1.3321155444454154 -1.1057322250870376 0.5804802747163617
