# total energy = -381165.9158906963 ev
CRYSTAL
PRIMVEC
9.32184960798879 0.00000000000000 0.00000000000000

0.00000000000000 9.32184960798879 0.00000000000000

0.00000000000000 0.00000000000000 13.64346916828631

PRIMCOORD
 96 1
Ni 7.934916939330962 0.757232495140173 2.455688426134507 -0.09414659867743785 1.797610686472433 0.4349388665067155
Ni 5.688220654816071 7.187463064530089 0.5363139790094984 -1.0815826244240276 -1.1735640971293466 -1.1890711916260102
Ni 2.2913293008967504 4.444396926986539 6.770039956643027 0.2524455636630685 1.798426497505509 -0.7839800046083466
Ni 6.126627246386415 1.207971893868664 8.662456546609578 -1.1874894489611874 -1.1437256736116754 -0.8986324365486201
Ni 9.236797147115842 1.0840658676055759 6.1385648071171195 1.0112670667279164 0.7168351313307332 0.05774569145090055
Ni 8.42495725641073 2.466822443420742 4.385475379378676 -1.3486243407337162 0.7804964169351204 0.7745941925180725
Ni 6.3091863509858985 0.06904227983129421 6.181965474968134 -1.186593162399163 -1.2960236838188648 0.825333884964785
Ni 3.441291324058583 1.980958315008282 9.06592204893512 0.9456869668342618 -1.3278184597319584 1.7439759318661125
Ni 0.7619642660498287 8.486024693820411 9.562530541316196 -2.1172402041811664 0.18444888390812106 0.43841139843634813
Ni 5.9045807864415805 7.110706954068889 5.290460124509262 1.9164110791428095 -0.18951035759142845 -1.0073620752465553
Ni 6.494290320554522 3.3734748674633406 11.583537387022 -0.4906199621191034 1.2278868789416273 0.2042533202285579
Ni 4.1379877272221925 8.637700510351161 8.898420528162207 0.6772437421913562 1.3687655915682815 0.05329434054776628
Ni 2.285810765872093 4.599894701895852 2.975926875329779 -0.6862053222600182 -0.2995188630017874 0.6950200923381707
Ni 2.1036431789601706 7.024573062805653 8.161932877352902 1.1091893303977025 -0.8573258644903493 -0.5933802706074813
Ni 9.210593427598422 2.16142932527411 11.766019120268941 0.8754225740910601 1.584033517739788 0.44745062582048106
Ni 8.51467073796023 4.484201225221823 10.965870693462351 0.42262971012205924 0.19404089847193035 0.007057421067413652
Ni 8.15977859788635 9.143354925684816 7.707414400754484 -1.59287091352576 1.1187499775029441 2.103702831816364
Ni 0.042659580799561427 7.698393646796104 6.6029346144825265 1.1215871898414234 -0.9619983023997756 1.6018031830183832
Ni 3.421939164073467 5.935342890464164 12.572730129267015 -0.17307997994954707 0.09972692097869278 -0.8221961106667518
Ni 2.732877355817281 8.394251083486369 2.80449712709168 -0.2796043834660475 1.0640217327221289 0.0828136901631219
Ni 6.183136299290933 5.794489741439544 9.724955382740411 0.23859785914669876 0.30342102626967093 0.12627278978802123
Ni 2.178012895897194 0.8978181070782947 11.819283237291561 -0.28184638542268886 1.679306002491553 1.7168826751937465
Ni 4.6849472585934455 1.758007635642176 12.842297514631952 -0.2254914036717278 0.2766848958264073 -0.12511605047575872
Ni 7.122331300649545 2.0545449965701854 6.571990734390718 -0.09458728575928226 2.146974755131122 -0.02080562389144159
P 7.598155796930998 7.071639081960207 8.072499983479485 0.10372421506354394 -0.4714796417452267 0.7908574484544703
Ni 7.4611246062849395 8.257061421395345 1.384743994172019 1.5275852049440724 -1.9784857369863669 0.04632279432593958
P 2.212596958298342 6.458811360581809 5.7439550620102 -0.33928842959024147 0.8037114215990029 -0.184740704116927
Ni 4.679279573973527 1.500640687169591 2.653490619369665 0.5111203960653004 0.6015136983478931 1.1365366120624039
P 7.879498542841791 6.56823123240517 3.6572412942971257 -1.5160406946395826 -1.1850253036914107 -1.8851616342102244
P 5.363745710325732 5.482300994858831 11.835163940446977 1.0465204906135717 -0.21683938442368464 -0.5103868603333855
P 3.0392865555816293 8.185385719022726 12.836131111052879 -0.07091796716680045 0.2929862040895922 0.6611339811136872
Ni 3.0497270272499 1.2510015521014668 4.938335641612443 -0.02229660661467128 -0.5175031596631926 -0.1777467892975971
Ni 8.875976310630335 4.145827402823099 6.298698337884138 0.8508479700754894 -2.2850771905642193 0.919630378956526
Ni 2.8101275243127835 6.855605215074331 0.9931918157679507 0.45121214974544227 1.4169524356861534 0.9514997168612968
Ni 0.5144672920436413 7.14930873369238 0.6022586081842155 -0.9449608873015145 0.9988550662168089 -0.5788180565225903
Ni 3.666665684347681 0.3806279027361695 0.9548529123061068 -1.8302217876392353 -1.022958644133232 -1.1451858030969695
Ni 3.4969241230909422 6.436588070887916 3.7114059020011334 -0.4704787112845381 -1.176936098925373 0.18330320033945208
Ni 1.5446211740721827 3.33145196899855 4.987602549482068 -0.873542583459528 -1.258324112385562 -1.053667128960682
Ni 5.9189364349854525 0.40588638669362237 0.5935920845145801 0.6685667832426485 -0.9930150624962639 0.6712803255190697
Ni 3.7568266146829643 6.425196770549857 9.891515396693238 1.3669241674841683 -0.47044580116407364 -0.29286356246879885
Ni 0.8297033512925298 6.727103516907262 2.891173550007678 1.2227696123197198 1.3106728011906073 -0.08672073852701193
Ni 2.3835690037159845 4.671961921956033 0.7035377086612372 1.5873101316085307 -2.1762264529073874 -0.1516917440817581
Ni 0.6960289587248155 9.286808870776802 1.813094174281891 0.5082142781620989 -0.426536244265317 -0.0993206866792096
Ni 3.9853610820216545 3.9814179395969416 10.429954757435207 0.0803387462600681 1.2454107467580036 0.4442688856583897
Ni 1.540705997196581 1.9066445291694811 0.6387760222139343 -0.064206873695212 0.7654243530933463 -1.2085190159379768
Ni 0.09337044318830652 4.860272607822768 3.8231459822157743 -1.3846598942010346 -1.2922202509123744 0.9633321907198505
Ni 5.605004502510128 4.774828533437614 4.01842475073611 0.15174496591719672 0.31541059453137943 -1.1849965073360045
Ni 9.147437895855086 2.8608383867015283 2.226628206472522 0.6808558850226467 -0.07457124764867157 -1.1945841510244393
Ni 8.598819075236554 0.5088219798630118 13.363859666485164 1.0994304512387258 -1.1700550555348235 1.3630991373111234
Ni 8.944081744566397 8.167897928978372 4.303845805892323 -0.8180862022634362 2.344077066137195 -0.46653746724860296
Ni 0.8796265173813027 7.650703063711394 11.95514453579979 -0.5066446196821338 1.4247734743924687 1.2467358933273303
Ni 6.763085856763982 1.1208498865368237 11.987275087358894 -0.3675893334174637 -1.9421257103000937 -2.132862484099456
Ni 4.659461321503219 2.8966249677144678 7.261995913836929 0.11053198201399672 0.7112051867384654 -0.9956036491590466
Ni 8.515966475069062 6.90557032948677 10.466341665569072 -1.023172817026567 -0.5038464881117064 -0.8054805976842838
Ni 2.1301079102692966 9.285130937830115 7.943391432896698 0.10070805394503946 0.8326317041777789 -1.175354613370866
Ni 2.3519865769194643 2.20511151298618 2.9016522412597348 -0.44939875068578733 -0.3200910307261842 -0.3476270313629239
P 4.0732008717806885 0.10558393067024288 6.50714328692614 -0.09444124709972122 0.8895577279408614 2.308732110978998
Ni 5.610448462737154 4.3878692303826154 0.0869756542914905 -0.14459035715028645 -0.45292219045801346 -0.28020576449547224
P 4.982360873393613 1.1607007940206262 10.697599045206246 -0.4615801232433277 -0.025915434314181175 -1.3902839252560315
Ni 2.3249345690789975 2.102776246937716 7.06394762376959 -1.0156523402798057 0.3563723816557217 -0.3764400989398743
P 6.0740520140569085 2.521765425575018 4.332688541060891 -0.04626931538018483 -0.18991196390522133 0.4140507102037966
P 1.3981096622773468 3.9493787421649347 10.869219891363272 -0.03872081360896557 -0.9397878277410074 1.9176508650871813
P 0.539781707099317 1.0208544047640171 3.730124176206391 0.7178391471152153 -0.3047662274436558 0.4180238359189316
Ni 5.74686441130276 3.3262130894650066 9.293208320598469 0.5194764813394795 0.4054706818442695 -0.7167795955024494
Ni 6.8704362779530985 5.375565815750168 2.082511477866596 1.132595625136785 0.47813288539568627 -1.0450598469076453
Ni 5.426593621028842 7.301003193922536 7.566449389533417 0.8700687659783145 -0.28693871234393165 0.23405600541228722
Ni 2.153384568979719 4.133186974624728 8.958411291931098 -0.13877477890977388 -0.10013161261627916 -0.26317889092017255
Ni 2.716554796985904 8.486658579600272 10.694010133070277 1.4629026771640226 -1.3814218468797113 -1.033698142037923
Ni 0.3306944826127224 4.997378373266457 1.3995881076403718 -1.743637060469455 0.012115295206295264 0.8993443750139801
Ni 7.8162497926014165 4.203697445784373 8.668037538027251 0.12508288324497813 0.28546598445314714 -1.1052606847672577
Ni 8.226066271130167 6.092714357163943 5.6527761856872605 -1.3415365806489992 0.580710902669929 0.2635414164659139
Ni 7.308497961084402 7.9636655238175225 12.355484421919643 0.8947107328967107 -0.12133190084297812 0.7231579882249675
Ni 3.1724305349011965 3.389452517855677 12.395119062490316 -1.9870313125635328 0.24396015189987663 0.7883868754267905
Ni 4.359586738381245 4.950731837348575 1.943225331777186 0.8580118348137804 0.2726693469091111 0.351276198079737
Ni 3.919809834904439 3.361160704004603 4.869532001133566 0.7379816835013613 0.28176590989374056 -0.029021069822698406
Ni 0.15495710762649073 5.830481403145967 8.192834809121042 -0.5816552688610692 -0.34475408069050306 0.22660443423024845
Ni 1.455569543851653 8.828900969626078 5.47826183738217 3.0398533199151 0.2598449414509331 -1.1162287537429874
Ni 4.015461334715268 8.380128481185091 4.74477582217749 0.41777649579481596 0.0005090784259346072 -0.2916047503610333
Ni 7.115927189903025 2.279891391310171 0.16200815474245522 1.1608749316974525 2.3465558666949913 0.3544602522346734
Ni 6.489620073852912 8.54373626533672 10.033229884630492 0.7339293678088586 0.12411666267696687 -0.401722784766063
Ni 7.742318202600472 5.659500035878621 13.270838792660753 0.06281796376748536 -0.14672077322972793 -0.008700613097791467
Ni 6.694411789995988 3.0450474586985856 2.2084272949258263 -0.6389350764191448 -0.020669612534209562 1.4552405326330744
Ni 5.083857172968734 7.725566838682719 11.778993270686708 -1.2701581289060124 -0.22520935365493472 -0.10138065453203185
Ni 5.61224757972999 7.191872299439993 2.872400276889168 -0.0297206669928843 0.6250840294686654 0.4205586865256435
Ni 4.28448059531762 5.631907360755333 5.848573249051128 -0.8608973838916915 -0.2786481902003653 1.3707648813864972
Ni 0.9219812736955495 5.2266306230323405 12.785145254097872 -0.3366414788856977 0.7238313601429083 -2.4386430117402385
Ni 1.6179282001429713 6.103537024670071 10.484583593254463 -1.057909449176804 -0.42795369343813394 -0.49229812115247473
Ni 6.428105187657446 4.470516749856625 6.066064121045711 0.2760678310676987 -0.6424055514662484 1.1663454678937202
P 8.561056262086407 0.20046358132559683 11.165514884198984 0.7493536727837288 -1.7079234091179296 -1.2234365564797574
Ni 6.28124876742357 0.14149076354436185 3.927545105788663 -0.542541076468427 -0.05114001320892483 -0.4357274238462819
P 9.176223767740462 3.527453180870931 13.511605391180785 -1.0751237561725613 -1.159298845459584 1.0270976060022698
Ni 1.0043920181870825 1.6501724782684621 9.666357303317268 0.8594449677158811 -0.07483067195764533 -0.3282141740539509
P 0.34074902970325555 3.0165412423043243 8.12680069018917 -0.43919789889338556 0.29419333702381595 -0.976555374278344
P 3.752249586478392 2.8040590001556005 1.0751653655083748 -0.1988475758319543 0.13755684734227278 -0.2106419973637211
P 4.511859153293038 5.362655053910386 8.099322673817237 0.051180893749189264 -1.3897169970089678 0.185476553841687
Ni 7.939372783489384 2.1406695659837176 9.727384656773225 0.2564937655905131 -0.7193211309773805 0.1671751844293379
