# total energy = -340898.09748784 ev
CRYSTAL
PRIMVEC
9.01722210009813 0.00000000000000 0.00000000000000
0.00000000000000 9.01722210009813 0.00000000000000
0.00000000000000 0.00000000000000 13.19761601827552
PRIMCOORD
 96 1
Ni 6.218961575602993 2.113285156827109 11.409061731942925 0.728509739455184 0.12924884169720968 0.37746365510838215
Ni 4.578160815272856 0.36849779280211564 6.167655386069262 0.31150457460875386 -0.46221184329005555 -1.0288251302163378
Ni 2.758007510068397 1.4138643351490365 4.880808541234665 0.4533366522876128 0.06408500340536705 -0.4988716606049344
Ni 3.522974518206572 4.309519738505847 4.930457365371318 0.05499975327464721 0.4720378282415419 -0.6015170407820027
Ni 4.893348791820724 4.388059741816824 2.588025662259604 0.5176468843299085 1.2439830131725416 0.23930851206047818
Ni 7.125372727476646 5.992845717620664 2.7268250547928865 0.14226428012027112 -0.04026450394700162 -1.0456445157665217
Ni 4.961176335437851 4.714041333056223 11.411001336387493 -0.12811704208561162 -0.4199868731825735 -0.2579785776661557
Ni 5.652265244020706 7.786055563595136 12.192274187004113 -0.19233214331093973 0.7475359028486996 0.4284020938294622
Ni 1.7114957805319815 6.530849248911847 0.5097318352658189 0.275958302073028 -0.3604866609344114 -0.9931981250413475
Ni 2.722028794429958 1.4865341269611114 0.362165899538629 0.1252011539903973 -0.3328321324419365 0.23113780332422776
Ni 0.5611092608530703 0.17552924276136603 4.792410910872072 -0.26443847435888657 -1.3403908970803302 -0.1075297048525632
Ni 8.45351033340898 2.3461458968388995 1.3448501251213787 0.5843338441344968 -0.22889862958106383 0.33736447309465123
Ni 6.968626358067376 0.5594753402330991 4.836477172890489 -0.603636915338483 0.16354864342034414 -0.9396050223062399
Ni 0.8850827167609705 7.46903709098847 2.627236150250127 -0.09520537895925539 0.07095833348643263 0.33506564975814557
Ni 7.739959524912504 3.8524728260121344 3.738224623721653 0.30319039831610367 -0.5401877457449019 0.027347281664701288
Ni 7.68929175469386 3.9660808055431347 12.590234850853104 -0.4193572100183745 -0.8072556873068356 -0.15539027597926788
Ni 7.901205488082068 8.859862424018155 6.953916563876653 0.33780593150744403 -0.3496561459778107 0.12810984299676
Ni 6.846298724896685 0.6665656717281435 0.35948057083759466 -0.6167713958379121 -0.19546271852012143 0.022259068508516503
Ni 1.7765009336742135 6.321595596003171 9.28763763057064 0.5383152113125375 1.238027566920055 -0.30607080518769225
Ni 0.11900478687676605 4.672381767580137 1.4145469388517509 -0.11478098709833781 0.8009009487334013 0.3145356481255938
Ni 6.534555327139263 1.9084950287908722 6.828961312225499 -0.7955268289056815 0.42653367316215574 1.0725233424352367
Ni 3.41843786397188 4.440846559197131 0.3299347413486451 -0.24148983598251314 0.24983692239562777 0.05113307123038936
Ni 5.847659426769912 5.47587936517271 4.826988350217225 -0.028425859440860724 -0.15412709299612812 0.0804387621730421
Ni 5.209907386107198 3.0278027912468657 9.175391251556281 0.5932702273921783 -0.8985324206356461 0.16151927169514116
P 0.06781942811735898 5.610849143537661 12.446974638613973 0.9230980257901521 0.10856225988213562 0.07824869650025879
P 3.89303229040855 6.359810582688811 12.24324313243637 -0.08916457208181418 -1.517416749051503 2.0852343406985314
P 2.503640695671223 8.395159890076565 1.3758251842917046 0.11585365133722626 0.513163137526942 0.16456680027221335
P 6.274976558446597 7.65221293797575 5.858699211621075 0.7052646528843144 0.055262005797098376 0.32970001457085796
P 4.67362614421124 1.1681360193938743 12.732254293349918 0.988620275862678 -1.0453596375362515 -0.9558718777870635
P 4.016676437986062 6.1679511509496985 8.243230520640743 -0.22188851681181787 0.22903489804861202 -0.8332487689364876
P 4.731751156994544 0.9897753689356489 3.793140407207783 0.578571744839739 -0.5781025185128044 0.9720729130269581
P 0.20431492043870644 5.590046412465511 3.558261612920332 0.1768795562012954 -0.9308200770247582 -0.6477421331878135
Ni 1.5271747463552077 1.042580220759884 2.5458196531324666 -0.23803067378931908 -0.37116599502512854 -0.16654089327944868
Ni 1.770883204390317 6.419558695425728 4.785587579011519 1.300036918743316 0.2805623765039426 0.10987352249439142
Ni 6.030925445976836 5.6608406221089655 9.127959762300705 -0.3103123540728656 0.07263829229201683 0.3662112221230145
Ni 8.653449196028305 2.385812656260827 10.30888220244027 -0.0715597145158574 0.7239144067750177 -0.14518402487022739
Ni 2.410014880013602 5.2027657463112975 7.035636039652322 -0.23962244375647115 0.24802969398355992 -0.43601693006224257
Ni 0.37884415328420706 9.015986605111872 9.012348156049187 0.5788049438964677 0.6921983066186594 0.18058760118050188
Ni 1.3651262504308004 1.0075573306496843 11.432421747164213 0.613126342886157 0.1455727756682138 -0.569058148922349
Ni 4.126911976502331 6.718957516313719 1.3961626267104854 -0.5030666725228884 0.8280055182596773 0.5928321114134951
Ni 5.706765333574271 7.89165625002164 8.000051373534951 -0.34743085619171776 0.31136444948646375 0.08022150395591346
Ni 5.343939373387839 2.860244772702136 4.859705536671096 0.06819285492615353 -0.4754476252540393 -0.31171051997197285
Ni 0.7196987504318871 7.241830149148434 6.900558054623797 -0.2858835316065399 0.29651581450940545 0.27075824592932723
Ni 5.142061808046142 4.588602758307771 7.221458441286188 0.05237671382950334 -0.39796228928236627 -1.2269180872704548
Ni 8.088664515502497 7.11050332845715 8.94221581049793 -0.13315614717141583 0.04840101701120697 0.3588136441073627
Ni 4.557448256420352 0.42606824643460006 10.46193511773287 0.15523189602453266 0.2908102794841959 -0.6827955252475209
Ni 8.088862894385716 7.001485114906091 4.719494047178169 0.13754604870899537 1.3027566316673242 0.6268097539105205
Ni 7.260540884724815 5.914864782071486 6.9055734334804635 -0.2850386671077414 0.4700202835908808 0.4764575545757923
Ni 2.313260088334291 5.0601132948325755 2.6026362670087173 0.13948748870608235 1.0447927092891878 0.16017072808704672
Ni 2.1733759239986767 5.142170014709717 11.46483505323788 0.12122854249589446 0.4083747428649419 -0.01642883497998461
Ni 1.2622487650375802 3.128651401698068 3.743820711672835 -0.5698284514294701 0.5526072024551774 0.683699525119029
Ni 3.6029031737000867 2.4991591363548564 2.710196395768113 0.07311934569349343 0.09018221471305114 -0.039823302644524966
Ni 1.147495598317086 3.438717596170088 8.177440869187599 -0.6147967886100444 -0.3523727735780254 0.11491494157304079
Ni 3.7947626054392 2.6384211123749193 7.012421201704662 -0.20649815039867664 0.4204614988261468 -0.4261860600147499
Ni 4.160564248873924 6.912124445237688 6.076961069272306 -0.4629870308931832 -0.18536111130974528 -0.25517761788225085
Ni 0.7023559274275238 7.457936890750144 11.381214747072091 -0.061579977595326206 -0.3595998874540839 -0.1702823625997519
P 0.21167387528395204 5.469711585348978 8.044395365989876 -0.12709322880678758 -0.5834295871526727 -0.37953467870479796
P 8.50829897406541 1.763029204059219 7.949293431096662 0.6973410271618635 -0.10704196658286726 -0.16557904358681164
P 1.7270504884207805 3.18434176455095 10.474023605498507 0.8238017645909748 -0.2854605851365084 -0.7766652161144882
P 3.9081361371991226 6.172495830819816 3.800939402484897 0.04976087347321107 -0.8994271645357734 -0.4376601220926204
P 6.775279084704117 4.01334006585919 10.441834828251757 1.0126526342215332 0.026775725431947433 -0.29910028740713007
P 6.397529622166402 7.9751016220813185 10.089815106867608 -0.15592095167175726 -0.5501764815264977 0.6381727443318236
P 2.3113664717217417 8.305149980426716 5.891244169135423 0.6982481123571652 1.0659107222147255 -0.07191375542116646
P 6.876479366811936 4.0376414790535735 1.655931658786603 0.08272370155247688 -0.08378993803346214 -0.50868041916524
Ni 5.306698246674367 3.0304538545044344 0.5064594854148943 0.010154314825182512 -0.23908199787196888 -0.3199354789849264
Ni 1.421871628253531 1.2030056167306773 6.883718392605053 0.06733050692585824 -0.28466457159777425 0.8561871229002157
Ni 6.9748211895570025 0.997322783719953 9.281764713905147 -1.6495493400544106 -0.5455263843489959 -0.969451673354027
Ni 2.7306222069621464 1.6467160579388627 8.98733889093059 -0.3499109423010942 -0.18456046978532084 1.4907001589922648
Ni 6.358881808826466 1.991444453642501 2.6105281396720663 0.4032122248273959 0.04988171532179151 0.31929733118029524
Ni 4.131871448582818 7.023685515382742 10.211958788710223 0.09469398654047563 0.29238816549427704 -0.42550266079448007
Ni 7.9153354749004725 7.272795289374599 0.12714643658853209 0.4886540966419843 0.09879181075893309 0.10984883990404307
Ni 7.558415795100802 3.7671158028959786 8.30933757830704 0.21889266740828753 0.13413136660049158 -0.21316142135146512
Ni 3.13031057053954 8.316205094555219 12.168505691627832 -0.7215358792405122 0.8483061774902423 0.876968064201309
Ni 0.02882625517618077 4.8856931703728455 10.236849928221087 -0.1790534239241626 -0.7136531340583258 0.0472267941974477
Ni 8.636767335393941 2.343440730249543 5.642852166011942 0.4307731651648001 0.5611797746155368 0.041093427606200196
Ni 3.7669444756786525 2.6450758221847352 11.401380862273546 -1.3060108769385637 0.2853595407822698 -0.18627488137326628
Ni 1.1583072474525467 3.1813931329685516 12.668140943459976 -0.49802653899581967 0.4376634645267301 0.11222196812190995
Ni 3.179941360232264 8.359045916108657 8.093120826597362 -0.2630189683035406 -0.48033374970174686 -0.3387708665238746
Ni 5.61276079459414 7.686622656992363 3.8014019859716766 -0.41452507873705385 0.8925504920205983 -1.0156983630263925
Ni 3.18942747773894 8.25274188636892 3.635692497929674 -0.21427213791714064 0.29785741613896444 -0.08176082341857532
Ni 3.3287435570907893 4.365841306896245 9.190700691007645 -0.4684004885992707 -0.5007519083467827 0.7654012131648947
Ni 7.197817088739607 6.114253594150975 11.173471478842474 0.07359808510212486 0.4496869713501674 0.9166278446847762
Ni 0.5910419291642978 8.926418539338284 0.4017542091294656 -0.36035347779065685 0.4735784332557844 -0.03792711406307662
Ni 4.7558271396398135 0.3787557845089548 1.6494780330265955 -0.789499391764679 -1.1426319263268643 -0.13682279738972566
Ni 5.982025051263239 5.664763113663532 0.31260003384404994 0.1285603002706173 -0.4773489560418101 0.19962302054539813
Ni 7.9331084193925445 9.078358729440465 11.28691805010031 -0.11018051221184896 -1.4542632563214697 -0.21691060398125225
Ni 0.08846345608293338 4.898434505008714 5.781254800778786 0.6702768239552198 -1.0977844309948708 -0.15202213083798335
Ni 7.835650284400001 8.638868348111675 2.5129185153505187 0.09183183450133217 0.5165176558214718 0.35309191113223704
P 8.58305174415129 1.583811917514364 3.4858731584335505 -0.9905169786647586 -0.004355705865534434 0.030630580401663377
P 1.8959250213723298 3.2030074140175087 1.5809949373726477 -0.28557834166129525 -0.33928123050138986 -0.8001213902548995
P 4.730984693127559 1.0781982475197418 8.20605341620322 0.8008148167774982 0.09307444865918163 0.6464246999279707
P 8.468821576304737 1.67086417835985 12.448255084132935 0.029373053845478447 0.6838530199777577 0.7861147915631623
P 6.229087915869151 7.600823789999945 1.4611876177410392 -0.32780922530604834 0.48226361973460813 -0.27958535730265394
P 1.990443542004439 3.245550667246119 5.9418830842437815 -1.653528636417133 -0.31747956124526616 0.3133953638735634
P 6.992909736817832 3.915620431429675 5.923736826762379 -0.17471982954581525 0.017435164757311907 0.0989519904858812
P 2.1992643682588167 8.468334646318652 10.056833715810177 0.6139624656342072 0.1878108584018185 0.5709360826713522
