# total energy = -381165.6550234586 ev
CRYSTAL
PRIMVEC
9.30838926792383 0.00000000000000 0.00000000000000

0.00000000000000 9.30838926792383 0.00000000000000

0.00000000000000 0.00000000000000 13.62376860002130

PRIMCOORD
 96 1
Ni 8.306480570656232 1.8107702250652231 0.5006200550882265 -1.519406268677706 1.6565548248379665 -2.0194205275275157
Ni 1.700065554412727 2.5705116287468903 10.966179597989672 0.39795097642845656 1.5522729374987394 0.17894260937791115
Ni 0.0650656392719202 8.5783506888558 9.996413012778344 -1.2545679877772393 -0.8369416444070426 -0.8286585784626438
Ni 3.559593121181286 6.795998975478299 13.488565924647899 -1.4806042082088438 2.412111541108614 0.7976765282588326
Ni 0.8909980664584083 4.563065383045494 6.671940489933171 -1.0167933958627844 1.4841127355827344 1.3680130296729731
Ni 4.517361192941756 3.106982013318933 0.6509328518731899 -0.23670758410252135 -0.995176331813641 -0.40960218751413974
Ni 8.120592041863638 6.022127437259467 12.473799794381886 0.23379992353742315 -1.5613083082281303 -0.9423013381914803
Ni 2.521112008200956 5.208769712804372 3.8848170635838275 0.4772936773238425 -0.8698183405304052 0.18059891403441156
Ni 2.246300439070069 6.4745616857303805 6.20745187767726 -0.14156725405324652 0.5667909501547271 -0.23741206636871373
Ni 7.372653675463342 5.278731564702477 7.119031723104786 -0.16662882500756465 0.6202950927204542 0.19126487838868994
Ni 7.926446972007494 8.846488143057078 6.012631949616938 -0.20859359947512465 1.3419875521434887 0.24479318932413327
Ni 0.2498073745368624 1.5471752647072492 5.453417447305695 -1.0097331465818933 0.8471967464761474 -0.163726306648789
Ni 6.213284514239175 1.839728623316288 7.275283272086529 0.8429515980465483 -0.07386727960311149 -0.08275841144515424
Ni 5.47779146396285 2.26280421280814 12.293420901052102 0.10304518671864833 -0.009865579940170106 0.03648163986580169
Ni 2.37990374671955 8.216598766248556 7.768245315525399 -0.2402315380953798 -0.5887265738855538 1.4873878067895803
Ni 2.5865965249789187 0.7503045588899832 1.5332191970448186 1.438282564622497 -0.12223127272879596 1.0205235523291778
Ni 1.515759451754069 8.505847646754372 0.3167635476193873 1.4320810637974757 -0.5396544989492512 -0.565047227990743
Ni 7.221820539731984 7.652324223664321 11.11037399066971 0.4047731415566126 0.5597677247593584 -0.8762358140209747
Ni 5.270223697135305 5.742857149786485 0.9350714268052878 0.1951906958056574 -1.235950115565736 0.2567950988810158
Ni 2.6612032629995825 8.250751245574547 11.64867626620151 1.544923953332836 0.5244685352374322 -1.0089299339543074
Ni 5.846459519614306 3.99929349346851 8.468466087276246 -0.9883307696467174 -0.7073559881957044 -0.871337605388409
Ni 6.242401155103633 0.09909338618500052 2.936916815026814 1.781478299686945 1.330267178382767 -1.05143181187226
Ni 1.4864752598871933 5.911199365270416 8.657100590830675 -0.48660055654706524 1.7369195392399637 -0.25977140790052033
Ni 6.506871104029784 5.177083956569519 10.282348106791913 0.6916300928200154 -0.22979440192245587 1.5877739586188269
P 8.404339664456762 6.326530375094995 9.916155151781718 0.5630245411337594 1.8065547830395985 -0.3999710921822789
Ni 7.656047579273587 3.126715798048042 11.48158044400778 -1.3443239135861493 0.9907602050238163 -0.4826747391300978
P 5.536936967816038 4.625329197221442 12.151420495664823 0.7491850084163484 -0.6335208473821089 0.7783539166708208
Ni 0.9316487321614703 2.332682289205036 1.6011601976859942 0.5185444564435133 0.1935829849989053 1.71877320734824
P 3.164275147756511 8.475856017321735 4.065495687040158 -0.041513288752438184 -0.4011095766620963 -1.0568882070011412
P 1.5043101332555766 5.34495144421327 13.505159989759495 -0.5710515252032939 -0.013754887692247279 -1.078346376874917
P 0.1829731413505409 6.623123574540086 5.6814925259901745 3.899853131693187 -0.482273389926621 1.754339534488624
Ni 2.364172569270402 1.3528533354596661 4.4062534690445565 -1.8322997532141863 -0.033003451509214125 0.1596246257755896
Ni 8.678341403742634 7.283283832451939 7.683260654582808 0.5812482632306376 -0.16530342132792178 0.9966716854122448
Ni 0.25789450292018773 6.06487155965384 3.380724048551058 -0.12370785727432242 -1.5053742160646721 1.3418332859538118
Ni 4.301713744442103 0.09141396524088978 13.249700561407767 -0.8406514891584618 -0.12226572551115716 -0.0497629303557401
Ni 7.663224347210447 6.401537373843655 1.0121327870113601 -1.3789517880726638 -0.0735057824986347 0.9537525174512156
Ni 1.9745420215387801 3.4266786343195195 5.2699053502307125 1.4022320987568433 -1.4697721505903463 0.46111732467429617
Ni 9.117483272688467 1.6463654581380907 10.348696442071224 -0.4873952845342187 0.3202303845175259 -1.877637300808721
Ni 8.06489064194902 2.2461701216237446 3.25941805364008 0.047445852186789254 -0.7487430357829234 -1.3783200680259358
Ni 6.105521294517999 6.951830716115096 8.895339499489548 -1.2813455129813995 -0.9852870977243868 -0.882418802903235
Ni 4.1231509178107375 2.304114843292944 6.038844373106168 0.4508701930249912 -0.7088410573816631 -0.4259801146515309
Ni 3.7446904369069127 8.800579168394831 6.0330405925502255 -0.6312482492978484 0.8328281364593012 -0.30953768069037013
Ni 2.9949555514251474 4.9656625166863835 1.4461224626328726 -0.5514972572204502 -1.0718288874713735 1.4198181872697224
Ni 1.075267866399876 8.720769040910218 5.7192575910960555 0.7073027663602658 -0.6841355842151831 0.7973150311543558
Ni 5.3897806457488295 3.583087495075753 2.6286788209137435 1.1007717957579686 -0.28347003706904084 0.6916879426411443
Ni 0.6367515211963988 3.5432289732785627 3.5804485667876857 -0.4172491625364362 0.6070212584296836 -0.0924409288402408
Ni 7.204190450922111 4.225338412507037 0.41036684595852535 -2.527126241484312 -1.2154784779749452 -1.9649043987575063
Ni 2.257991775683164 1.5883090358006136 7.213907478223392 0.09014621926879314 -0.43599481857505556 -0.13542668837314742
Ni 5.985517543231362 8.05588942976362 4.764272727653513 -0.5550857459026569 0.7713833988902586 -0.31020462485040773
Ni 9.269154163431912 0.2319157199954378 1.5621692177457627 -0.07927071000686993 -1.331278907476733 2.0031446731856275
Ni 6.105660920353347 7.34208492591127 13.101255958299753 -0.7034337703231627 -0.09607698293093132 0.15211931853747993
Ni 0.21401010287047847 2.635828594522436 7.965299256951281 -0.8734842194177665 0.13531741648879275 -0.2609615715538796
Ni 4.244569544228896 6.6376074278601305 4.881518403272586 -0.7288522103962674 -1.2574090567704603 0.41840153097332455
Ni 4.304022224919847 0.9481711226775873 3.6384994040917493 1.610144870114859 0.5607961660238729 -0.7009999640706895
Ni 5.800420227505734 1.7395982825941068 9.871551213260517 0.3308598392069141 1.5857507575412109 -0.5591709717156241
Ni 5.407634135895259 8.989604624288233 10.634849352387933 -1.0068329422159628 -0.8372823155759128 0.852672424878738
P 3.878135501943 7.736043874538663 9.622998609563977 -0.9207596074649627 0.12199524545858989 -0.5831709341746473
Ni 0.5414531652161425 6.628261805280873 1.25806135584227 0.921776221654935 0.7142820258915764 -1.0528299777713672
P 7.4283364585999125 4.381700731318156 3.4576308894993457 0.10057718479413 0.42383504328407007 0.5395966491281223
Ni 1.8212235459382367 5.073658446133138 11.022419022789828 -0.03815517091348268 0.3423603836473459 0.02629930001616116
P 3.60734515687012 2.1021321098792964 9.027735509082724 0.22910817448870863 -0.27807766240887594 0.3088051733997198
P 3.185498274729326 2.9959050071055104 2.620545150585302 -0.6848475226805432 -0.6735490669485884 0.2206361324619555
P 0.2659685995588807 0.5660701308268035 7.624487486290548 0.11584696646900695 -2.2822962853849726 -0.06621824769828595
Ni 3.4787218373480324 1.2801734339667974 11.108357793607292 1.2793225690141 -0.4602017548385623 0.9629771213732768
Ni 0.222382998796815 3.8707911830037234 12.496837126375317 0.7628031134204154 -0.08517884796118878 0.9962014306440456
Ni 7.763754948660624 7.6272008816908 2.900786303033401 -0.2917888413473813 -0.2680390472259513 -0.8687037673099878
Ni 0.6145575292484675 7.4907771321673 11.980483101321235 -0.003923246313806147 -2.37341849541379 -0.6010946085326035
Ni 7.421103840328914 0.8556047788756298 11.593268080541124 -0.29736787809705556 -1.5246400062728196 0.990163966200714
Ni 3.548357895630326 4.585591684481552 6.528945948598219 -0.773151546534275 -1.2272381896140347 -0.18253366916327918
Ni 5.772923246331306 6.084921829609736 3.191926648188723 1.070952398403691 -0.4835532850803092 -0.11800797867606773
Ni 2.2723360031678603 3.719343693596836 8.736609126510936 -0.45417380347692754 -0.16090580648085837 -0.11717237014864983
Ni 4.760645248451184 8.05644793310501 1.7618527790706886 -0.0009734196568628396 -0.11329180414732101 -0.352446050018122
Ni 5.3076061874523335 3.9876393904115077 4.909324422962583 0.8852202769077724 1.1191886077022597 0.7343826532961932
Ni 2.187024617770557 2.470036877630852 13.489574023179108 0.8925147536866564 -0.07485046945198723 -2.0317636224739006
Ni 4.572327230123543 6.698484292071626 11.458869836469065 0.2751527754525971 -0.9780944366306897 -1.548003106478792
Ni 7.755265697871498 6.645603334031029 4.959051698802132 -3.79778676394804 -2.073772362805519 -0.8581496459432252
Ni 3.7862523938953423 5.5895107490188725 8.652115017669868 1.0089633582954043 1.141631510086808 1.4373207149298601
Ni 1.1015919905573854 8.29797270308906 3.3864058892107978 -0.36060570301077893 0.6170701580252534 -0.7405520153316988
Ni 8.37495308031063 8.416663971523432 13.274822972542387 0.8317852970170836 -0.3147382510547031 0.07422157761873668
Ni 6.5485633784645385 0.03344038756571865 0.3104571140561933 -0.8878366314846968 0.21386821761050265 -0.010565177110355997
Ni 2.7282329723553906 7.029043803062246 2.4752346820613873 0.9456622842439134 0.20834420246847993 -0.6804995301244925
Ni 4.5927591440293885 0.28456117579374957 8.291275317186894 -1.4016068064680183 -0.38611516013579306 0.8097733115223668
Ni 1.9838224853948752 0.39388261983740325 9.49091629268088 0.1916142913083087 0.9118911013307391 0.13350067499502816
Ni 3.4744772119534693 4.649605475793854 12.841096724330228 0.10235176019604955 -1.4841230199953794 -2.105153962440594
Ni 0.8033428287050723 0.5025226898045614 12.109636068178741 0.12282648311063361 0.9861265629065469 0.2578325390065947
Ni 6.968232097573912 8.942802044279762 8.664335070779478 1.1282286064173408 1.7585067784924358 -0.565182982237659
Ni 9.03945104750728 4.220460816658899 1.4905495417626324 0.7527076768576263 1.3542216323158354 0.598478253955679
Ni 6.487742364587181 1.8184217208422642 4.821833012856054 -0.9048118258864546 -0.4328932968315964 1.0559127304617493
P 5.70801584967278 8.945948279769592 6.658521516317377 2.87006229512947 0.8248656870791149 0.38231969764910284
Ni 9.179951871422926 4.48313424650358 9.415658898267498 -0.506672901816908 -1.3482970393012843 0.7774607154325901
P 8.576712412387723 9.27836016017582 3.8113310556015527 -0.3938320691640766 2.6468447750935833 1.2711055804209463
Ni 4.1794201294557665 3.7451651647470943 10.435834133394872 -0.03331944008773617 0.373188424771796 0.5748978955325776
P 5.211013034558954 5.652593701428858 6.989810805007412 1.935971774883556 0.9297666960595794 -0.25830279377479387
P 7.588934094416571 2.787815970492667 9.051454215152651 -0.0015897130846230685 0.09560827082462889 0.16678309119724177
P 6.290786161246042 1.6832266786698222 1.405346133677998 -0.6789985200989339 2.6870879388843463 1.097957209127309
Ni 8.227210329734964 3.495123218806848 5.975603178082789 -0.8611907467623944 -0.5579787511797358 -1.2438721986262902
