# total energy = -340863.71629753034 ev
CRYSTAL
PRIMVEC
9.39053808675954 0.00000000000000 0.00000000000000
0.00000000000000 9.39053808675954 0.00000000000000
0.00000000000000 0.00000000000000 13.74400170011160
PRIMCOORD
 96 1
Ni 8.995712795123662 6.333861513363508 4.286685736046809 -0.3694659816148863 1.6760926377605778 -0.5687732706920785
Ni 5.587989863973837 6.876681560361669 1.046653397531963 0.7902866635526646 0.16118322851196112 -0.6302563176982242
Ni 4.2374708656322655 5.072881294506885 2.0508390261763823 -1.4087171922605546 -0.2469187203075683 -0.17092488127975725
Ni 1.8300937721534571 2.7749415304583436 4.943456205020644 1.2755260780861453 -0.7152487606802198 -3.044472049634034
Ni 6.360211362889965 6.483321315595542 5.371169854819785 0.26760041702663595 0.7148368699537818 0.156716193879543
Ni 8.01212906771805 8.986190789628356 4.92984931551108 0.7367382980125634 -0.7129375960485399 -0.8194108346121307
Ni 5.376637026022317 1.9633173342460601 10.395371539576065 -0.5952306935526588 -0.20334032149598527 -0.07116993527660646
Ni 0.0466484363890332 9.118916653208878 10.885249611641845 0.1489692029442725 -0.021047307588602463 -0.8158747964344143
Ni 8.101818095810419 8.182079023787121 7.301830654242892 0.2594677606171725 1.1509815838431405 -0.009955568550815112
Ni 9.18592753211864 2.7808481788375814 12.826232490394775 1.3945691828949467 -1.8272925298075817 0.6569379407544685
Ni 1.1333534173904514 8.797844769688176 5.759574712702409 -0.006688724874085255 -0.08741313660834622 0.4694656966389915
Ni 3.237566383245549 7.0942791060591235 10.595636030299916 -0.37874663558586386 -1.3220861852338717 0.1613614059610382
Ni 7.731812118960294 5.764222089940699 2.183977134373514 0.7327222348746348 -1.7084854522689867 -1.469905590844417
Ni 3.69939304030583 4.412998801251843 4.92369193976821 -2.6381670448139274 -0.006688724874085255 0.5854167927860304
Ni 7.823398035721354 7.589404610739083 0.3256103305186114 -0.08970038998062616 -0.14968448384374222 -0.5791967800182476
Ni 0.4164111983058965 3.265352985080469 7.898911107703553 -1.0663123285285185 -0.6812163536858591 2.263345969534715
Ni 6.680278458848538 2.8959104405081715 12.093442799442492 0.6625843404069686 -1.1924079693087273 0.2848350357373675
Ni 8.315434053411218 1.7370147598561512 9.731288658689808 0.866018764278657 0.8797047464061818 -0.2847239640808
Ni 3.2989711109909163 0.8178069264076574 9.70257802791925 0.6360634112983046 -1.1317996115980506 -0.7708213557392015
Ni 2.052780989427298 6.155328605595511 4.98816549532015 -0.9075063419994823 0.4511355308712359 -0.4564710841515364
Ni 6.656473445110273 1.3333437044057586 5.894912084890666 0.3183876748818323 0.14580366073209727 2.2104511784182126
Ni 4.66555731978857 8.912991546200441 2.485176761455196 0.6788167431054309 1.166112525947308 1.6143259980757423
Ni 6.808121242687877 9.31229600149766 10.157531750243816 2.1180020220478557 0.8278407105470388 -0.6573680863133518
Ni 1.266201357964502 6.044877098065152 2.4889010488116434 -0.5532538349002407 1.154519936013702 -0.8625871128892886
P 0.7102655465922845 0.751151009832926 4.156268066697793 0.5108866827879395 -0.01381865105064717 0.6598628277107473
P 4.981746123568088 8.855568406551729 5.38454291993405 -0.12078708408310167 0.19932065881363092 -2.703668211840531
P 5.430106749188264 5.736942577155825 7.577658925853946 0.28301315203728034 1.685919908263645 -0.13414807877103993
P 1.9468087685056783 1.2483781169091863 0.33923036678132457 -1.3069634706598203 0.16378595624213083 -0.9715098414346366
P 7.465825131135315 7.557551905965831 3.0195575319852788 -0.010698617364426736 1.2469981458497814 1.7102962802254802
P 8.777392178002993 3.8103516368862342 0.9865661622629183 -0.44632448263583785 -0.011574592211476841 1.7511315690742875
P 5.335628546734349 4.613421053013485 3.8301093287620946 2.9873436800521582 0.12825331055315975 -0.8528765704697441
P 5.560550712043578 1.4677223026679103 1.398314958469782 -1.318781803450987 1.1707040019727322 2.5177730824041866
Ni 3.654309067541568 0.5687416879934679 6.844814769781472 -2.105723976011451 -2.799009087936386 1.186341451399673
Ni 5.8063104810945045 4.224680952925554 6.064416929460252 0.8912140325973619 -0.942260457651216 -0.06901715059966178
Ni 0.07119999789542004 0.16943911080384078 13.226278798191137 -0.9466287619222405 0.7670068670891177 1.7747065281807501
Ni 4.459820023539409 2.199855595016524 5.662281226966944 0.32698647229443684 1.4789350480365369 -1.5674694427335198
Ni 6.402064990594675 1.1449413412377956 3.6775647348089486 -0.808585976082485 0.6906924114970944 -0.7764402445878756
Ni 3.6928947880348724 9.279588757769702 0.3654722251211976 -0.23287664039220538 0.1845085335014629 0.34219840414818486
Ni 4.204979604277476 2.432055427247707 3.163401792514953 1.0032238847084658 1.0790009797397804 -0.6345153500848943
Ni 9.31190159890318 2.1876478956635683 5.824021035694255 -2.0411939146488653 -0.8480220705909202 0.18313864973712976
Ni 7.585329117262789 1.9948883228803966 0.7821116134996148 0.6660496732477497 -0.17875671861935022 -0.4800691831864506
Ni 9.240486557688389 3.960891350984107 3.8977165068325608 0.06052891062299253 -0.44025385096172565 -0.538040360384596
Ni 2.52598897849972 5.08407481575975 11.98867256738024 -0.020275719529900565 0.01219628495587577 -1.9313206492647899
Ni 1.9485272369530557 8.535773636194106 12.367841831175452 0.412703966367915 0.24583320055287336 -1.4015145038645282
Ni 1.5936681978385587 5.317025891028037 9.224355491574153 -0.3328133633888591 1.9528716359626885 -0.9014981881321895
Ni 7.184709986650635 3.50954453429144 2.6459127216741756 -0.8297890925226613 -0.26033653637537096 0.9928355994956063
Ni 4.921092638859825 8.346272580084378 10.204179247579054 -1.3408668082754842 1.2811791626068645 0.1880412292450697
Ni 0.7451927134948872 4.998489452757566 13.55047209653101 -0.18337981921365837 -0.3538012784944358 0.20056378719211265
Ni 8.262687401668485 4.417384182480943 9.270109009695235 1.0882806052694933 0.8976374196252024 2.6503877552498354
Ni 5.6979061108402576 4.268206096387822 9.255870136980706 -0.39994872358477573 0.2582824820598197 0.6076077270607729
Ni 3.1481590712920933 0.6231053903735693 4.4267371582929 0.6094031283982988 -0.36081370525652695 1.9488157207257597
Ni 6.072381983761159 0.3860506500150955 13.466661545203985 0.36047946184555985 -1.1536028235160714 -2.7272557693524835
Ni 4.345584129209635 6.719606031840983 3.935938813506665 -0.011403613851251328 0.522134487787617 0.7059758200187262
Ni 3.655238730799985 6.845091790651405 6.567062376941633 0.7203922525543722 -0.3070563090294131 -0.452995209787794
Ni 5.517307284720223 8.454320109896 7.307012353091324 1.1668877135504356 -0.7230289188462709 2.219154619729481
Ni 5.547028337375688 3.597158253493807 0.6398571710472137 0.7370946529107176 0.39177390108346727 0.5123331854264789
P 3.7660564693109326 4.74381806317898 13.58435127939685 1.054029140285791 -0.8728303878838516 1.4145443404652929
P 8.445286412374813 4.015243784718652 11.430047305935185 -1.2988935491674922 2.63437672453356 -1.2891089589769025
P 0.3733245929665373 7.043288484915624 13.263057779180203 -0.4152501298285365 0.9370488315432894 -0.8171863161569861
P 4.060647035773683 3.7793440805297265 10.864042020704373 0.39195850629044754 -0.0010289554851466152 -0.008049866887670008
P 4.257782599247991 0.2701066168297033 12.116547279048655 -0.3326786375832077 0.3134490999296344 -2.4581463718804892
P 3.3375568314842203 7.724262126437389 8.425539989144509 1.3404060665889819 1.5628175457838054 1.6242501991679898
P 7.007322724514223 0.8317227646162307 8.078160513518188 -0.5314043431253171 0.09421216180805066 0.41141095858810434
P 6.002892002828948 7.266595477695076 12.553908767551818 0.4877593527418567 -0.44760463489984204 -0.26709596658639156
Ni 3.3131132611644176 6.990560614248818 13.36808906819785 2.137053896472984 -1.7577210493663469 -0.17585034360583263
Ni 1.4272303029679525 4.491353450021891 6.491951219984285 1.2858446864033337 2.0493993332777927 -0.3127600442824098
Ni 6.752482305252289 7.0607267139144225 9.756056202569363 -2.181752524931939 -1.3371415369050972 1.0898384366749165
Ni 3.768939364465823 4.497494861850224 7.578662774362278 -0.664602656388578 -0.08256737848027071 -0.3552362111687495
Ni 1.3252678417568802 1.1150606494369453 7.739467285508394 0.4271502237002321 -0.6994215638399761 0.04522467616575437
Ni 1.2900533243925847 7.65539192101079 7.901041820767541 0.05111070263288617 0.5830449501197443 0.9004982861127654
Ni 2.660799541508207 0.9168752238182828 2.3477640803769364 -1.7535597188998058 -0.287133344853241 -1.4984530634648063
Ni 6.662220454344127 5.084638248037578 12.627507108843194 -0.4660294172639328 1.1922634733110626 0.9964112326620065
Ni 7.013323278273099 9.216991431702931 1.8183593559138773 0.24104889179035258 -0.28131699528178 0.0748098460220389
Ni 0.25951690716791237 1.886033206803886 2.4096674456881826 0.015314518869883305 1.7170551962158687 -1.4001561900644208
Ni 8.594060705335488 4.848654029006979 6.062877820287984 -1.3255342916834723 -0.9115537725959785 1.012074136010244
Ni 2.138122198442423 8.064903891074675 3.699404308951386 0.011635013135767059 0.09841025904979826 -1.8703147990053788
Ni 2.3027477194860135 3.3594555660158303 0.9930878908787858 0.16221835464469483 0.19267667113455203 0.4493355015480197
Ni 4.771548321786118 2.0711207100706233 8.060403006228618 1.4165924812435733 1.0307403449611798 0.42380290449455404
Ni 9.259032870166918 8.999703773758283 2.541774472816888 0.19245735603489433 -1.7611920386340831 -0.1796470916441035
Ni 7.22893942046019 3.1026806959333513 7.890211713333877 -0.19411880289771732 -1.764757130277522 -2.0623620640860483
Ni 8.353381217322983 6.412216162133555 11.7127888915952 0.24778106830786362 0.03718612213199402 -0.07587428273081126
Ni 8.838102005939039 7.092485513308035 9.4723934051351 1.9712771350530696 -0.09417796613600554 -0.9415472336342751
Ni 2.7098275402172702 3.3260628130165144 9.26183500669532 1.2557342401711986 -2.060270728774658 -1.0079529147530188
Ni 1.0442090404999826 3.6621783383552424 10.610629902266734 -2.2046674818569 -1.268775646736189 1.4801025859820767
Ni 2.364020979699888 1.770970945133296 11.754172053347922 -0.6278479653670478 -0.34203076822206896 0.8205683452553416
Ni 4.35724717736069 2.5200541585065905 12.74550015741229 -0.16505145321811573 -0.15965933566826696 -0.1788261384047049
Ni 7.458228185922591 5.98730370980902 7.853294691436742 0.01629565183623 -0.18022199031096703 -1.507011751668095
Ni 1.6261876308072403 7.797724304928291 0.9420099377322223 0.029134455472111118 1.790628341617329 2.1703661374718686
P 7.455889941969602 3.1836459142573394 4.95878062392379 -0.21727775751268388 -0.8515915331097335 -0.40008242094916263
P 7.757401334911682 0.9701270865034687 11.825201143452402 0.2820800987000497 0.013457153946170372 1.0854444213722791
P 0.19968978980046523 6.785133205752464 6.359253528017655 -0.388310368014899 -0.6532008423095395 -0.9205318077248728
P 1.2714131065344176 1.4226758920555034 9.910386876843226 -1.5431313802087874 0.47670258070706284 -0.046147187980023756
P 2.6646214904594787 2.762668097339641 6.826892928077537 0.6285339356904788 -1.194047561794679 1.9265365976125852
P 3.6341851446851186 7.212712570858722 1.9309359421854466 -2.2301445430820817 -0.28881433210008967 -0.540221941416947
P 1.2073884186971462 7.116403213501865 10.601298524692094 -1.2643322662528549 0.05649819219704464 0.4460851129315221
P 1.903987915390695 4.349490593002581 3.3087034645366113 1.919761226561965 -1.7692509043828177 0.7414886682133552
