# total energy = -340858.7167494285 ev
CRYSTAL
PRIMVEC
9.36704857590685 0.00000000000000 0.00000000000000

0.00000000000000 9.36704857590685 0.00000000000000

0.00000000000000 0.00000000000000 13.70962242661981

PRIMCOORD
 96 1
Ni 2.6612908313572645 8.212166195646663 3.568847282076379 -0.2758150916269443 -1.7626369986107255 0.8763944510860262
Ni 0.9635695262433798 3.3848391115332537 11.644582418990153 2.301639980018907 1.8708699001779003 1.3239368652893653
Ni 8.219116545497663 8.077009055484847 9.889517917491029 -0.15585024633482192 2.117505284917095 -0.7436041718944613
Ni 7.566111506194821 7.740376073078903 7.4240349274414505 -0.2763894760731756 0.198403032095368 -0.16914542078183126
Ni 8.647415462730935 7.278130972745872 2.452651070560518 -2.2995306469853882 0.7303725036955356 -1.6541287318949771
Ni 7.142936364390789 4.211237582226724 4.818109908569767 0.7034114017256595 -1.8797427771874982 1.616326059224907
Ni 1.701571161972053 1.0710564056776333 2.7603913924335672 -0.8314142868309099 0.5134174196295932 0.5496236943468212
Ni 8.738425704176095 6.0407157889634595 8.8066637144585 -0.0552226679187307 -0.40054881906261985 -0.5136858427996314
Ni 4.757645611685399 5.581365106560292 12.957800441275545 0.10558055154599237 0.9981806658576035 1.808189233319228
Ni 8.709472157829143 1.932431434785701 12.467694929134122 -0.3710623795677287 0.6854049378459098 0.6977408337034435
Ni 7.042259329082785 4.148843673389115 12.982121045525053 -1.215309813607565 -0.5573997387478142 -0.6948020627900937
Ni 4.926233747289556 6.540925536124119 7.11263396308623 2.3711546390802773 0.16397621787606598 -1.91348953462064
Ni 5.000832920083839 7.921178839688051 1.4486130854744532 3.8504822945695434 -1.6012817632972745 -1.5585307454829933
Ni 5.522193462343631 8.604636153068517 8.59752375328164 -0.06909505502544876 1.023572366457831 -0.5450522729260548
Ni 1.0896125283930367 3.8759066195368037 9.333277297414302 -0.7219544548351695 1.94254634277728 -0.1856228496115642
Ni 2.417991118379025 3.577369422634922 5.322445840513938 -0.6355720734841828 -0.5429835633224842 -0.20806318089295134
Ni 5.516629435643505 6.396654257950143 9.392187600982927 0.589174717166566 -0.9163969596208927 0.12249121125840196
Ni 4.925671724390553 4.558408493988967 10.981160285254298 -0.19322997253486077 -0.22032939985481406 -0.3386261134158942
Ni 0.7339419569882109 9.235113441169672 11.93929879688365 0.581526970813321 -0.46707894157436974 -0.444957169974666
Ni 2.790209517340152 2.549794855243459 0.9648368878806307 0.6581900679940148 0.2312686724751372 0.3539491169262098
Ni 0.02973756829106095 5.242493399606654 4.971574944666594 0.2006900283573318 -0.6039765580660889 -1.0230296065804834
Ni 5.527354705966138 1.4976786212622146 1.3780913888124346 -0.0638677451882384 1.307454808473942 2.4403345405100487
Ni 3.6133576222677237 4.723287278459706 7.216429288778868 -0.06384151993599328 -1.6940643917476501 0.6525141006551601
Ni 1.4112769675888766 8.044233753424678 1.4123654186032786 0.16720963721169912 0.4682721905515226 0.759771268572627
P 1.0715903274316858 3.9382349590361954 7.108493727730244 -0.4012936676484444 0.712603866858205 -0.7857959747711628
P 1.1869174263070257 6.398883615449521 2.956452144045804 -0.49553076915715955 -0.6713857407486824 -1.0292347069499308
P 0.3186623002103342 1.0810510462315632 4.612492894264822 0.08871128659447948 -1.0659107222147255 -0.13313377857391265
P 6.467309903403091 3.368549814510494 3.024671420231575 0.29339758059539794 -1.9572890483040934 -0.6589670553693554
P 3.1167916569022647 4.265950511444631 12.530813847511443 -0.9059554525725946 -2.2815318964151223 -0.5783334035766879
P 9.403205123213041 6.9540029998427375 6.342208289609263 -0.6185192317669541 -0.32538133259084606 0.8420586539186337
P 3.707627596527099 9.269499875540316 6.677696618710905 0.6496779167579457 0.2881175631433812 0.30130989346393916
P 0.709697225830069 1.1889032405501685 0.7883542039551508 -0.6265559860285015 0.1793655558479427 -0.3279586063997191
Ni 7.272510743755846 0.6608387018101068 8.985053529421261 1.083043268129954 0.8024143000541342 -1.1270775235320332
Ni 8.232614462122042 6.300782518428611 10.97845976522459 -0.5357405086068258 -1.3452569669233798 4.261804550098582
Ni 2.399687905968173 2.3724953647047617 7.734118884803341 1.2140484303966383 -0.6153341491707531 -0.10299222199352584
Ni 4.740925430440072 4.241952133657218 4.6095722485996715 0.17751436157181685 -0.2979420054329708 0.04701982039296418
Ni 0.6594523786592337 8.013144520061514 8.138196488499263 -0.07421952073620766 -2.0278365195053527 1.25927593477587
Ni 6.393591233150579 7.39744843420413 13.114350046383066 -0.1678156462268142 -0.3437968589835563 -0.6259702887283607
Ni 0.6853775582853934 6.817468903578364 13.292397027377437 0.3951358755771646 -0.35971250177254827 -1.5620667836607098
Ni 4.839110830895832 0.5001629119190759 13.360972251399243 -0.48515276835694515 -1.7528979169460908 -2.471182122018525
Ni 8.86447807337407 2.630314002573903 5.9420657829111905 0.04779552221672414 0.03445303947154712 -0.6522929857832895
Ni 6.984651981935015 5.523326875189953 2.97944356413917 0.709156788849869 0.2172656733278258 -0.9563159073030175
Ni 9.153067464963604 0.17617169792136514 6.717207765215622 -1.477229635309656 1.1141459030720295 -1.2648272036114023
Ni 4.431662963215556 2.5347607426951386 6.370505205869214 -0.7139009884030737 -0.9613298155778411 0.4484921797111179
Ni 7.272819856350297 9.167155505631936 0.7370330829327254 0.29162840451011707 -0.17675999990429558 -1.1865021453472533
Ni 6.156136558321967 2.361236172628076 10.202316445455104 -1.9848319909193688 -0.23505436476981453 0.37151103706937305
Ni 2.523660790439837 0.33910681986638663 13.697886245254688 -1.0205806308193586 -2.7712393740222856 0.6143866976558194
Ni 0.5086391539408673 3.349366099557871 0.5298714423603551 0.7609341785324766 -1.238921539489234 -0.5019222745058001
Ni 7.654751884415853 8.750209450958517 4.6747069557747505 -0.8088304879931231 1.4802167429624378 -0.08610238821672268
Ni 2.2550419458615285 5.950820226267989 5.731060842414474 -1.8860782324872227 0.9568681802620618 0.015537690624282919
Ni 9.419597457767285 2.128118441170101 8.11582235688997 -2.521920271803341 1.2253216893176122 -0.015183135498341594
Ni 2.882428108018167 5.265573806659029 3.3925285214964416 0.2526121711479198 1.025226614231802 1.8356928380561353
Ni 5.421656932760377 8.42919133809653 5.663101970171908 0.11544870258932376 0.09412397296961854 -0.06143265338418452
Ni 3.3078513414182096 3.2768838796831647 9.951965218504045 -0.12768149721008978 -0.7837619750602696 0.2396754084815937
Ni 7.316030050235283 0.39288491766228517 11.563983651749018 -1.025120427671241 -0.8759331951788916 -0.1257562551629189
Ni 6.271014038878104 1.8001031432155312 5.029224443531788 0.7760679488501215 0.6817344309728581 -0.20551624610138153
P 4.087770518364162 6.42585134755333 5.040205434273469 2.1030371732079067 0.651242433031588 -1.1303770202189112
P 6.303555164730358 7.607382721078247 3.3477662077053765 0.450315863183418 1.0530616341661994 0.34493251524989627
P 4.449610227790374 1.7846849816862256 8.69458791805389 0.7988674632431403 0.28451699027631644 -0.12283753885422714
P 6.974507468608016 0.5477690615790939 6.7089404083712925 -0.08840712509049937 -0.41200205520488403 0.20702908320148214
P 3.3483450912913493 2.8579894789598694 3.369030344089141 -0.5287437655740184 -0.49457843254621914 -0.59427758561077
P 3.2617467296033604 7.38008192662495 0.3095238078725514 -0.3420143131618368 0.22050629175231057 -0.07035772378795625
P 6.201885222300781 4.879117494256502 7.69748623224635 0.36244918397742093 0.10641153208771996 0.46700566513427316
P 6.1512750602455935 7.854522923866338 10.862969679708538 1.1672751787968412 0.07183327989221823 0.16942464258514692
Ni 5.14483255385663 0.48738438460541944 3.5624449045519073 0.6327482308821426 -0.8865302539684473 0.0324537496533312
Ni 1.3704460039763353 3.980414777606343 2.7945558277591056 -1.3473732419354345 -1.5620374730846713 -1.540391098459489
Ni 7.028311794139202 6.381292298710738 5.418933931814709 -0.10644778464229411 0.7298330862522979 0.1390254614679993
Ni 2.753649927760031 0.5874769160984616 9.82668656749703 -1.0832736389732052 1.4116302521422914 -1.4910017493930836
Ni 4.687870468774223 6.0879725477212645 2.732437310142008 1.9298893161349022 0.6301100219283471 0.14619806795703855
Ni 0.2173642295989314 7.676071286384686 4.367213923977261 1.689993049891754 0.5356962856324516 1.2763210631836148
Ni 8.259666497660703 4.656715666072844 7.020738535575141 -0.3656790037686283 0.04268236935987488 -0.129093547066268
Ni 7.631090720367842 0.9136328549621642 2.6280930754180107 0.30245223459849846 -0.6894577677590449 2.778994335377356
Ni 2.7779574181418947 1.7098516326840252 12.129999723449062 0.41862624538962095 2.214311689814883 -1.9236065684499841
Ni 4.870087659679193 3.974166956379097 1.5068789361188877 0.3601192502926637 -0.09290886961559483 0.4308217590145483
Ni 3.690261088947917 9.329823666699932 1.952401045092096 -2.512327743018899 3.336730374418666 -0.37140047963343775
Ni 7.089038368376436 4.539880472418513 10.233149958399219 0.6704148921949808 -0.8799906530777166 -1.144296458513481
Ni 1.7119123833137015 5.976982392216562 8.046863083887178 -0.1425674131829867 -1.069808771717551 0.6369108469002644
Ni 1.771439975366397 8.717640223961315 5.815634984961222 -0.7427855326479079 -1.8111717129863196 1.3564353521377026
Ni 7.637282339305187 2.5097881918827887 1.1383811287491585 0.4262305400994401 1.4758713215095485 -0.7016957045861334
Ni 6.527062304615387 2.736686203258468 7.357117670971703 0.6042632360685722 -0.14142867159285322 0.6234842890817134
Ni 4.302650606749502 8.913317863297397 10.658449546761481 4.528196548639415 -0.30770396991574106 1.9788055822196307
Ni 3.433697635553216 7.686122129228516 8.180216130543196 -2.2818679395983024 1.0310941287561728 1.4668976572560284
Ni 0.8892982001401818 1.7287356020905136 10.258662987899443 -0.8504314513633612 -1.4368147218277192 0.5609332058223694
Ni 9.194769564069599 5.321111036128806 1.160556678934139 -0.7207714902706619 0.9854436779069092 0.9116972401523782
Ni 2.773508070191457 5.22943573425316 0.7526367120187019 -0.8487039271492932 0.26707025555477876 0.44256578692435394
Ni 1.1167676014631807 6.391670988245654 10.519886547831709 1.3857577552509037 0.15188303415695778 -0.4339898723298848
Ni 3.0019048092978102 0.8471417991908261 4.867463949445682 1.5014625397150916 2.5875019143588918 -1.2806276609787686
Ni 8.977116829382513 2.8794493866534534 3.5788007076177153 -1.3020153826259253 -0.4181433922159315 -0.6153452049143466
P 3.5019178484438185 5.426228052338932 9.39022707777024 -0.48713894554903847 -0.13027188364508532 -0.34664307018309976
P 1.2878192707746317 0.5386464932234495 8.323207869917109 0.6772249731382788 0.26531136388214305 -0.1703769791960872
P 2.5459730995302414 8.019954364187763 10.87229270289816 -2.922738028256631 -0.9344666726384099 0.6516625512881422
P 8.238665575334638 2.4991753261399556 10.019841660721424 0.4098274161510683 0.264723352589157 0.518595621396423
P 6.318785985293328 1.9956683779718136 13.051272343018336 1.01390938944677 0.10102352830292924 -0.5378287585944221
P 8.441874321517355 8.12535239184739 12.793174567109357 -0.37779352764397517 0.08486928714056997 0.13267226555646183
P 9.017011088163382 4.685154024762377 12.60661481260476 0.6447650528373605 1.6907823785622687 0.29967775717715484
P 6.458832724676468 5.563352272647257 0.7960426772135067 -0.3058646027141571 0.7437885199911254 0.0448688354882324
