# total energy = -381162.50203306304 ev
CRYSTAL
PRIMVEC
9.29819502135385 0.00000000000000 0.00000000000000

0.00000000000000 9.29819502135385 0.00000000000000

0.00000000000000 0.00000000000000 13.60884828971862

PRIMCOORD
 96 1
Ni 8.559527749933007 9.044224056465033 11.729425601757132 1.0326157076070217 1.913533500484698 1.941383947038063
Ni 1.2500772241230247 1.5706603897271367 1.6863401629621655 -0.8528210346414602 0.018095424049130126 -0.4794523755380582
Ni 1.8531395524121224 5.388759587061244 1.236185720862611 2.094262769449387 -1.2397329796469359 -0.10965240762252083
Ni 4.723046021175984 6.526681983656084 12.923479341646793 0.8270395548019821 0.6108033511799351 -2.5137665323479546
Ni 4.5011538968075016 5.294940799981208 10.533833940422173 1.5699400157611996 -2.0920295092434937 0.22010802787262737
Ni 8.16764602542605 3.8759618645292577 12.575800306128912 -0.03111831867135931 0.569460012346458 -3.118930682964242
Ni 8.297653387264807 0.19455357156642847 6.13484117120692 -1.273494135257781 -0.2861205873180105 -0.4331123548209379
Ni 2.8726122434953076 6.399584956837746 11.554334082047712 -1.826608873476996 0.1444908554579447 0.3977961960181472
Ni 8.6423560705781 7.179647724260201 6.12832313654457 0.022406649829974316 0.14448314214846086 -0.12235288590832477
Ni 7.196421667956175 9.449383603365478 0.8292920606033516 2.9486694034104124 -0.08812070419833211 0.7201076314344179
Ni 2.977560969934591 1.6244783421175482 5.526009312949222 -0.2611009253452213 -1.6644607099486044 -1.3596613152741681
Ni 1.4685848055284612 7.6502200726579765 4.976592920443898 -1.158216925249315 1.2495851898506674 0.24663229941540107
Ni 2.3224008553214652 5.323495556683169 9.459959370305501 -0.43997000117271967 0.4758687719518579 1.3335124247929422
Ni 7.2146647264547905 5.358298700393831 9.360383140910306 -3.34653193389012 -0.5237769084870463 1.546393338789511
Ni 3.171353949153829 3.1569603433659306 1.3106038241723306 0.8998210575400827 -0.3270114119951013 -0.4682176831645033
Ni 8.744822178964819 6.346222616000052 4.011262688754999 -1.1370132945885065 0.05514296372073084 -1.3573460368774302
Ni 3.1307766263770924 7.994485740808456 9.787850917143006 -0.35433015441471233 -0.5623984775139862 -1.584397071726794
Ni 1.3250020790577057 5.17501268147196 4.141403944601086 0.6657719941063308 0.8093315959992576 -1.3984222380924498
Ni -0.003423595381850284 1.7219420216193262 7.4611868394353955 1.0260691647377553 -0.4614852495366762 0.5194942219512924
Ni 6.120350864191505 3.6123208448199065 -0.19622166774107253 -1.8543325646445097 0.1235276229427163 -0.5145350781738041
Ni 6.94061902659256 1.8016740433449268 2.7871330074689964 1.3627998609031498 -0.2522596729045075 2.200470927277049
Ni 4.500874950958899 2.102740297741805 9.730966420056953 -0.32511728029618203 -0.34580051967714637 0.6181500213529935
Ni 6.649938855958656 8.180802971285143 12.320321241949674 -0.43518466396893435 -1.7504826226363788 -1.0053026216143655
Ni 4.634406328685004 5.956442283552568 8.163907221235279 0.05180464337611723 -0.2107939495605531 -1.3189162721463221
P 6.647781674729462 5.558414452181396 11.624977118206342 0.2354441440090655 0.030384525829128317 -0.20962795427690992
Ni 2.2365971122912796 6.274924057097206 7.479803685371138 -1.1798255046580262 0.34131240199880575 -0.6153431480318177
P 7.671959252459079 9.144040179290027 8.487811702076753 -0.1378844058850206 0.1896736226421701 -4.054244276983979
Ni 1.3157782696639104 2.603838620171667 9.611276335338513 -0.18059325760745673 -0.6397742844909885 0.4745945332251245
P 0.5194892222282378 3.618253093200191 2.084712027546613 0.7992659842331397 0.02842688788212524 -2.2875631902108666
P 0.18880263798773644 8.85862278699976 0.1681104349383893 -0.05169305749891742 0.33754110788183156 0.3944121100372627
P 4.271144448244681 2.013617099113247 12.859571917912422 1.1703281066905522 0.14207016183159404 0.8373296238740806
Ni 1.7548204389746294 8.471631913038303 11.59532424468038 -0.6457628979742556 1.6020890896899183 -0.8512614034638243
Ni 5.102979565167794 6.698270873326548 3.306188003992909 1.2643559204019388 -0.6140298285370328 -1.759898002413008
Ni 0.8226485003091308 1.9208118152831337 5.197232577952155 -1.2663310418504385 -0.3182616908269293 -0.31510026237981215
Ni 7.035879033890376 5.91893336511046 0.21010945172350487 -0.3467909086148737 0.906280182901865 0.04183159132380538
Ni 6.604703137510254 0.49945161210361166 10.010300933208692 -2.1623604935585727 1.441641453792401 2.2053578230557047
Ni 2.1064595757231737 3.9264882559061576 5.763319704189471 0.9710796958757535 -1.0575566938230754 1.1526669419653632
Ni 4.851342515143312 5.259979586956337 1.1109148595331266 0.38961725975178063 -1.4398411673588687 0.8117620598176214
Ni 9.170409860177935 4.8434762422127156 10.53543973869063 -1.441489758705885 1.043463448954803 -0.5306322408459829
Ni 6.716541826410023 7.569772089920962 7.412481034630375 0.7057714173174039 -1.7351138534897925 1.380581867476919
Ni 1.9297008896586056 7.5270096913301705 13.65158007639154 0.7730060220953461 -0.9975720857393272 0.3271551366618172
Ni 8.731404883647029 3.679360830434085 3.795480408290411 -1.0239806576398431 0.5875749767796138 0.2210912177215031
Ni 3.594923922062053 5.203009546476716 2.967341323861284 -1.1381805754237302 -3.161700212721284 1.4605007525907492
Ni 6.816683386058387 7.5716968162763205 4.478331477294326 -0.11652419504168965 1.1211454743183142 1.7183299491632342
Ni 0.9393036541947737 8.554516022853113 7.437888352340603 -0.3132416119045186 -0.2193603510733254 0.16453260460016828
Ni 6.285589086708782 4.799523674667887 4.525200888596043 0.41357608456022327 0.36164828534268034 -0.5001438424491387
Ni 8.345650669614376 4.010711305794261 6.025549257904892 0.7382395651484382 -2.0144891516641694 0.02135558285764064
Ni 0.28120995907384316 7.174663891765166 1.725070864221153 -2.174260073209636 0.5766670716178585 -0.13210173776497247
Ni 4.479219454912377 2.1798316321006332 6.827600396753201 -0.29691562105098546 -0.09264661709314367 2.755720709561396
Ni 1.0175014737530597 3.1445565512980647 13.270422889943859 0.5303728165370092 -0.10923768868260543 -0.0981526345130374
Ni 2.2885740220809128 7.045167930648846 2.777375481684874 0.38620746273928325 0.4823451237048209 1.2899419964011591
Ni 5.343793516266492 8.848338983381273 2.259572022201692 1.1817744008542808 -0.8599293635514674 3.6557572255463944
Ni 8.098151316344167 2.6362707241692065 0.8103088657864435 0.5794412919288859 -1.3443825347382266 1.2152203392175522
Ni 5.550166953257711 9.161697451506576 6.4090328527299185 -1.2824649712978236 -0.8540986158023034 -0.008749464057855899
Ni 6.459483928727695 2.9559891576426502 10.72088758793917 0.5184824928573264 1.7004831507898004 -0.4974279861798723
Ni 2.422784168038618 0.9608661682917612 8.125421062503566 -0.7198754608189538 1.0569329441961475 -0.20332926575239177
P 0.49816195246357187 5.399154969019171 6.229559093738952 1.93084113852521 1.5036412925339653 0.01294190487264868
Ni 6.078388110366708 1.6021812706192402 5.344739142693254 0.40173821138503074 1.920833376580221 -2.2705152335896446
P 3.8219765446296847 7.19341835098622 1.0874220401638086 -0.0867446497864119 0.26511287471809175 1.475476400063975
Ni 3.4133115782317978 4.26932200203381 12.860157704194489 -0.0478338316538273 -0.03400926706590917 -1.068811183690972
P 7.332761100558215 7.242959133698056 2.3824737034570442 -0.12156509989970676 -0.1351353823849737 -0.3494941664786497
P 5.219030336381464 6.749885153512998 6.058169185440491 -0.27445086428956605 -0.2297391232044882 -0.7268940582286321
P 5.632753520834013 3.8293035222529817 8.782756024916296 0.1160606251417098 -0.3700015424033821 0.6911924910619646
Ni 3.3661325370381308 8.327965502812965 6.848149407600265 -0.44397577989800313 -0.2024797732679029 -0.308533664905888
Ni 2.1028239814963854 3.0460049829867364 3.3544447059816784 0.8846065545831734 -0.35962842669917416 1.7545616778017592
Ni 8.924277341565878 0.3853543916496555 2.8660095952588818 -0.8154819318713697 -0.803065560484888 0.41560854160921973
Ni 9.095689565532227 5.031690304459901 0.6636939979413771 -1.204152511439165 0.1657839605087661 0.23601081514581287
Ni 6.856265801975108 4.143973035866717 2.2348583498349894 -0.80139845719511 0.7409896170897496 -0.28587504696610766
Ni 6.645308354871851 1.418885953502416 12.411146940074206 -0.8263129610486027 -0.593031886129127 0.7046437314708639
Ni 8.286681517219769 3.237668675561641 8.723013262701565 -1.2306006783283645 0.8772848241107793 1.0423349917773146
Ni 4.456373789911817 4.16402924238125 5.832235135725755 -1.1354675473679412 0.5995077236614579 -0.7769511227860232
Ni 2.3797521217941777 0.6051916149334314 13.464499464109178 0.2623108864929224 0.9590145371811033 -1.6949035998194937
Ni 2.739927001509964 9.088939075996043 1.7991988638483258 1.3175091073861505 -0.11451076415608666 2.417861299108197
Ni 0.9387271661076615 7.319985380692211 9.636874266045286 -0.6783243768500447 -0.5880436888859163 0.22524174955476695
Ni 4.429780952345028 0.15440024647956735 8.559720222568544 2.2054156728768337 -0.5995956553895738 0.3193878340115725
Ni 6.4500834536297855 4.359282038208176 6.890159582219326 -1.055780575759259 0.8172832467461666 1.4879524210437989
Ni -0.02949015511427583 0.16571800937687364 9.645189641792134 2.7761159853882966 1.286237036745746 -0.8835153784015236
Ni 9.13652723776766 6.9234266641236815 12.56115750871626 -0.2618048933907814 -0.7359469124595197 -0.15272352778038215
Ni 8.798203116192418 6.088309284382011 8.179720661392565 1.7557374432774149 0.20700028684607577 -0.7380724434429548
Ni 6.524496907842028 1.8942654686911113 7.709059050323236 1.0298556283633813 -0.71456536145995 0.9574909014477251
Ni 1.0021036629101914 3.940751686964708 7.85568042690477 -0.05992213027692906 1.006429279019641 -0.9743789354523154
Ni 7.659062656058681 7.7186361911252614 10.158937228636631 0.3907670570855077 -2.7788950907953303 -0.9292087666735804
Ni 2.5127628006028906 2.060600878212892 11.628516011205615 0.7312284239379278 0.5373765015483519 -0.9020617739451432
Ni 5.472424745252143 1.837304726406443 1.3215236243256303 -2.7846613038551458 0.09446670102101795 -2.4983730806110196
Ni 5.326257120584335 7.284410486800415 9.924565996821162 1.092876195059976 1.6086045222109326 0.4732701579867462
Ni 3.2009965946653414 6.306919145931934 5.357286126963403 0.8368951074398232 -2.921325207069504 0.21554200576849977
Ni 3.4870369660174876 3.7145916911126045 8.4146776794901 -0.4753128994483879 -0.19791940759073012 -1.0955293164121067
Ni 5.216882453347223 8.734863812169703 13.846049964203386 -3.1400031873638246 0.5613106437664461 -2.631041746623056
P 1.645743313976026 4.216722113182297 11.145034048934507 2.7141068906753514 -0.7885717377440871 2.3699238519969703
Ni 4.3706816252210725 8.815990563138316 11.575169477299342 -0.21137039088931336 0.8667553853343652 0.21904487671543563
P 0.4582680470159113 1.4943501037443956 11.332210432624889 0.09489504680768818 0.470764360845757 0.7609092388318122
Ni 3.9093423844120454 8.130304474493103 4.444717572718206 0.013453554401744571 3.0653280671474366 0.07507904052302554
P 4.851509882652474 3.225311374468542 3.1939420541541796 0.22951980810483052 0.3703442704547815 -0.19138057803094785
P 8.017433685953504 1.8602340751615838 4.635636479877342 0.6569790784050491 -0.9433678317827818 0.3195989215811141
P 1.5798191117562583 0.22271408480236485 3.8056331073600536 1.4552294768894807 0.3490424236532118 -0.10956087634997906
Ni 4.152378604104611 1.0385153943477952 3.4415418279298855 -0.625127224001775 2.0351875605537852 0.38920202659123293
