# total energy = -340890.3401771418 ev
CRYSTAL
PRIMVEC
9.07543933188234 0.00000000000000 0.00000000000000

0.00000000000000 9.07543933188234 0.00000000000000

0.00000000000000 0.00000000000000 13.28282282167610

PRIMCOORD
 96 1
Ni 6.487940869161628 2.0000271830129126 11.313099698320066 -1.343905337991492 0.6043300847507657 0.7393330553229331
Ni 4.732986851573942 0.43855608806508 6.040802138060604 -0.41336319721846876 -0.6848871176692269 -0.03281961763318218
Ni 2.7788450901426454 1.5577900967291811 5.083017473603479 -0.48062402724865605 -0.5785352351748488 -0.7071009347621049
Ni 3.6028496100205705 4.4910084109824435 4.943269320078061 -0.6913359586183642 -0.34056446808918767 0.6005495346624108
Ni 5.133050370988654 4.667307896671618 2.7783677220304632 -0.005653598741351553 -1.1062775560675464 -0.9785364092641147
Ni 7.285472332324053 6.152340195770298 2.579444073473249 -1.642142248957062 0.5185370002443456 -0.18104371488131402
Ni 5.042341354234648 4.235834281510472 11.580244332354171 0.455658358442254 1.7154153466196005 0.3178420867910074
Ni 5.544857508980622 7.91335660687391 12.473939151347054 -0.5371479304773137 -0.03627518028195043 0.30029147950175383
Ni 2.110275620784564 6.351319204507822 0.5391101414748871 -1.10531364949238 0.23066754855602853 -0.9193339307620296
Ni 2.4128961474141075 1.96363467103857 0.16853544728666792 0.3181156521673683 -2.5951491464915044 0.6698045123044917
Ni 0.5179353262782443 9.042967472942365 4.851989458186105 0.6476056076099492 -0.43014967264818826 -0.5215906994690049
Ni 8.635389489708514 2.4851094186809024 1.2168675856765658 1.5698184025816706 -0.19765895484049184 -0.607891833960095
Ni 7.014833654122834 0.6000126926235715 4.742897231393389 -0.6812826881474202 0.5503518307620974 -0.04688252348415151
Ni 0.9705002625935977 7.492283445259546 2.7560130997124577 -0.07681119272278383 1.1382870190946073 -1.777455808791113
Ni 7.890531876795238 3.6386068412372565 4.04135215299322 0.031938500579809515 0.5980218831445507 -0.40300807923638987
Ni 7.602640788303939 3.8226930539274253 12.604509313012208 -0.02938668069223326 -0.15322540711746516 0.34880511083142507
Ni 7.810377596057732 8.755648137132958 7.235339605105531 0.5934378633182942 -0.5425729581476268 -0.4168951216311272
Ni 6.866314088422055 0.8356991310824486 0.263300277906342 0.35515702119138187 -0.7350526827800244 0.5268095246657831
Ni 1.4458536272300422 6.789227306200092 8.97671767290209 1.8918560155112643 0.23734521768652028 0.02845954089227357
Ni -0.13879250975711313 5.031069658505937 1.606862812626355 2.687033174387011 -1.092550179179125 -1.7578040959984567
Ni 6.405998726863288 1.8224662112478198 6.962337682485829 0.09827373347193398 1.031888856743326 1.2596603146984822
Ni 3.4280657227103775 3.970096340582607 13.54502613893228 0.1569056841825298 2.2611559038619315 0.1944679587070199
Ni 5.946472928531895 5.580814399864001 4.813588551473626 -0.17739557660576544 0.3184113290309161 0.7401141564633318
Ni 5.283929550932159 3.1371071357035345 9.241152380732819 0.9001229050512175 -0.7278980740131141 -0.09092012132034019
P 0.18919023980597152 5.79611104863391 12.521053387422766 1.237665812705262 -1.6518666753336777 0.6185737391539734
P 4.0605693959123395 6.039269296346772 12.61542706660451 -0.7078673806144842 -0.32886646292596905 0.2419390077047898
P 2.452056668403955 8.479409912824963 1.4652551015688828 -0.08596483419759389 0.16596985126732705 -1.152866459570679
P 6.31268505900289 7.895623198295888 5.934552338886434 -0.6112013579493023 -0.40859534351618015 0.01903721913710915
P 4.75867034506207 1.1199182967944916 12.636706249354198 0.7408260949286919 -1.8866976112387766 0.9990175599366019
P 3.9141281058330377 6.195920455745559 8.314343098475103 -0.2688052359680145 0.6981984900661523 0.046862983100125745
P 4.68463291047686 1.1853068376361728 3.9099053038824985 1.3050184311183073 0.14074013016626086 -0.7164093566472243
P 0.19569642230831727 5.745669756475956 3.59488954212713 -0.08377322586291379 -1.719783393780309 1.0256413331717174
Ni 1.557508758107933 1.2973159106504726 2.5560140115869245 -0.25053909066897495 -1.7096966989682687 -0.21400628585026368
Ni 1.880612551452213 6.655119538258729 4.658844141891749 2.441441400420983 -0.49230969111670053 0.629274156290613
Ni 5.891466690358206 5.667630053117508 9.547732521570445 0.44100795551893085 -0.4298185145610146 -0.3340210105437151
Ni 8.595067312476093 2.488104313681285 10.105027120961289 0.3852265868832527 -0.3914892799635129 1.4012923605513932
Ni 2.357018667058489 5.107103689758068 7.218071766568478 -0.9887688856254006 0.6053310152114543 -0.4677839380611944
Ni 0.4802377661188862 9.019834177924261 9.258512788751704 -0.7140146311628026 -0.09163180267538412 1.0645066427783472
Ni 1.550838310152536 1.1579262369811623 11.267460221146056 -0.2746840633462947 0.2690299503843109 -0.19488062076440632
Ni 4.124342508541694 6.828061111371717 1.593646250235274 1.30083293228205 0.6767961131309763 0.2212873928927092
Ni 5.719505264699888 7.481610728530911 8.05708161794226 -0.03816725509834072 0.9038216940590436 -0.11905621743492399
Ni 5.4922562622466335 3.0441927871765215 4.973926154354702 -0.9118551058864812 -1.1768916188406828 -1.1878373192189091
Ni 0.5856934643459858 7.234568192756948 6.38612895985166 -0.061950473560867504 0.4951978112977729 2.418932677795505
Ni 5.137769599474105 4.72155179793612 7.269489576005345 0.4190697606849428 -0.1660053324909528 -0.6342440987013787
Ni 8.056458135255815 6.974393496178278 9.048724024150676 -0.44029961659799655 0.9063655435268198 0.42061319391266266
Ni 4.685967000067939 0.21619693235790421 10.34577856214657 -0.8286189834739599 -1.2285957320831937 1.775222034364588
Ni 7.913220475282983 7.113238643483882 4.644112888665627 1.449975427579393 0.9284826871408333 -0.05288244982132828
Ni 7.491711692577655 6.1349335030105 6.7519780727468515 -0.8621207147758313 -0.7721673282441347 1.1837500365234128
Ni 2.376367503848838 4.997526834501654 2.7913982379139446 0.031976810016912674 1.2396640740822136 -0.7184469559025434
Ni 2.1297333628476536 5.35489041156243 11.347077235871373 1.0401868350860604 -0.5350144290740786 0.4893238690154992
Ni 1.3765626474484687 3.198575086726534 4.020259016751132 -1.0715514654402707 0.38458355398261507 0.10107032238046465
Ni 3.6342506303276094 2.593270505391681 2.5212387429127876 1.0922861268844608 0.37409988084247187 0.3077733897010958
Ni 0.792774117831514 3.1653952802980556 8.236160910718151 1.708747704791438 0.968287477842597 -0.9468341930648274
Ni 3.6786204535302436 2.7529347106696407 6.941709208740771 0.8118980711748534 0.031516068330410235 1.0819158393937303
Ni 3.9247735962434875 6.981281754679157 6.247402700802131 1.2864437534399134 -0.8410898622474613 -0.8629033585781267
Ni 0.8045740041330204 7.42318304970527 11.271683930640535 -0.276858188179478 0.9911700388677254 0.09943510076988682
P 0.12855541411944255 5.396174585370731 8.07090895740463 0.6170269634921438 0.20585974548372935 -1.353006786072128
P 8.544045192196853 1.4926375173117725 8.130481956681932 -1.43322571892488 0.4986693147861412 -0.09080982099472101
P 1.8713011506328423 3.2186045814715154 10.454936132102931 -0.6082628441462685 1.0855272108940723 -0.2521768833827141
P 3.990888172236777 6.2569709365563835 3.7697051934752057 0.11648819959743163 0.6808895664740596 0.24092573594892702
P 6.911999850336978 4.019103713316136 10.50913011845076 0.5956011895182 0.06562535130929342 -0.04498787756459994
P 6.452419599369215 7.7499079433681946 10.434507318024565 -0.557873078839807 0.08010143343828141 -0.827911158773658
P 2.5674327294338366 8.534243717650146 5.894451602375253 -1.3473776128108086 0.6447897354277089 -0.35657061370945686
P 7.015441708562306 4.094257426946943 1.6231740998511648 -0.3971721892809031 -0.9563115364276434 0.4205707707105015
Ni 5.4238365246469895 2.7673828101866365 0.6374053180192543 -0.20770991131859068 0.4671897561206212 -0.2268389188385577
Ni 1.2304208468692053 0.6503006098557491 7.139610055278157 0.9124014653082545 0.32183321022827155 -0.5225335229982484
Ni 6.776185899789336 0.7530944817082664 9.31120569742358 0.9002005523666883 -0.5694597552361418 -0.7344088785484384
Ni 2.7415541096681872 1.6596346776209712 9.14515692053117 0.18456329799879828 0.2121075261656541 -0.1483930187258283
Ni 6.815582382203457 2.0881587749787096 2.510772038658421 -1.7307170099736773 -0.9682018601073261 1.3113289467173674
Ni 4.027661852665714 6.707639106038162 10.458164265895766 -0.6272532692058423 1.2984778017863121 0.5846891705913866
Ni 8.219534705746332 7.346540964013667 0.2366112257332377 -0.37521034029783124 0.19817806056875548 0.4811287347992166
Ni 7.5382505457957185 3.999473537904539 8.375670380187477 -0.46790837945420066 -0.16623698888578467 -1.043161601443668
Ni 2.876288082927813 8.584639632611125 12.294395196074133 1.0035108198212652 -0.5118822139319894 0.7462866038226308
Ni 0.04760158717122866 5.002681684078071 10.216085087926983 0.05587958477643925 -1.2020920293657105 0.16755545058689209
Ni 8.578677068928545 2.013104891181249 5.963097318415835 0.8526873372770735 1.4311055872580838 -0.25619911716822974
Ni 3.772115630178544 2.452147422797906 11.47394189563151 -1.4766845614394633 0.1297059838392863 -1.5107781606890625
Ni 0.9108110976920379 3.590561465079608 12.630888892701938 0.37345479105930524 0.6783164064302447 -0.34906710624356013
Ni 3.3910560808571675 8.627875025889372 8.080379178413414 0.3940051044068311 -0.6660874684642206 -0.6366678776515229
Ni 5.858894938369199 7.786563643084995 3.7390084272652264 -1.970677810906174 0.5439358999334245 -1.1456635140643365
Ni 3.2725217669177926 8.593878429915335 3.526589600327501 -0.005429398545687423 -0.6614165453511125 0.9612603957924866
Ni 3.449710645667686 4.3534156743133625 9.246146595031941 -1.3446486439154197 -0.17175226227705903 1.1987969035542063
Ni 7.399223889702211 6.066096295198681 11.524376834981888 -0.9415485191858559 0.2644487587715317 -0.1354940512759731
Ni 0.5423564261465137 9.216925495267605 0.33387180218656376 0.8969496495295585 -0.09537121511315833 0.09074605763632114
Ni 4.651879649699952 0.3317309060332601 1.612269051874015 0.08935560504669773 0.3116164175962698 -0.39166154387531904
Ni 6.007813823403362 5.4692227970618745 0.3477000491928746 -0.5852031341133277 1.3274479637664172 -0.06536438433842291
Ni 7.868061088852976 9.191786528143183 11.418313082315315 0.6720436860476554 -2.4137488196017203 -0.542736994529317
Ni 0.21401156655156459 4.920775843537311 5.735655916647405 0.016798559614577522 -0.716352792377676 -0.2505516890744653
Ni 8.09340424903326 -0.3070556938619281 2.423424564656361 -0.7209674083315519 0.38584776540701937 -0.10650434891184239
P 8.75127377534452 1.4678071151267842 3.6107897119473416 -1.0326578736988665 1.3237620302743978 -0.068827660296675
P 1.7119001330973407 3.296090683026862 1.7375654757066779 -0.5669130775548882 0.31298167337491256 -1.4623995122753588
P 4.8318365374653505 1.2035121690627395 8.524371454676158 -0.09156006889718425 0.5763796222844267 -2.8616972109942265
P 8.837127432022147 1.68961085394298 12.286837170145894 -1.0845100824834677 1.5367750989734563 1.874293581147469
P 6.363988517903379 7.807854623905895 1.292379779163479 -0.2840210244765044 0.1794349756332974 0.8355596764578513
P 1.791818452410574 3.3742392916580513 6.118838211243293 0.23843433698564098 -1.3275371810461138 -0.11241428663837413
P 6.959718510676404 4.017887604437194 6.053965155359254 1.1319366513965474 -0.024557120514073834 0.9194645428026229
P 2.5018808306830436 8.58687219070232 9.993225875509136 -0.9309314057916419 -0.24234781310743422 1.8360687333383154
