# total energy = -340887.0933364521 ev
CRYSTAL
PRIMVEC
9.07414676242335 0.00000000000000 0.00000000000000

0.00000000000000 9.07414676242335 0.00000000000000

0.00000000000000 0.00000000000000 13.28093101562225

PRIMCOORD
 96 1
Ni 6.369079990167146 2.10719832697664 11.536905395709132 0.96231943318462 0.3655558479272027 -0.4023200520304297
Ni 4.706687256119918 0.7686809413330067 5.64505927623006 0.4259670020254083 -1.0626911868361633 0.47834191608269877
Ni 2.793757334027624 2.05548476541674 4.834975726135982 -0.5689164811381622 -0.1939305981463112 -0.8190678494504151
Ni 4.3046753386276855 4.987196350434916 5.615323297772123 0.3627402328552785 -0.8670096674370165 -0.288167185434394
Ni 3.7994177809479583 2.7566077777850846 2.5275336687289007 -0.16475500502361948 -0.40172972674459845 0.8248029521619795
Ni 5.460322354950297 4.565475386494517 2.7101336284807895 -0.7746368728305497 0.04086742763832316 -2.0277380462542753
Ni 5.193669482516675 2.855398011984528 0.6980632101297068 1.4031911202360028 0.6189342078171857 -0.716336851538076
Ni 5.830456795383409 8.05413994245909 12.388730927647694 -0.34937435307133374 0.15569752280704152 0.21063891203992754
Ni 2.009660325010091 6.598265711226697 13.239627266972859 -0.19752474325547273 1.6934334430318707 -0.27190470082894463
Ni 0.9692640448468552 9.140750851333426 13.01888503933873 -0.3111723880803157 0.12230223517604744 0.4242996416253144
Ni 8.240867731506222 0.2859372488201976 6.781402860458204 0.6424073512384614 -0.5744392107286043 -0.03179708990593879
Ni 8.807666151530086 2.774592736376368 1.1216425592968937 0.48477275930970704 -2.3034148125311424 0.9997382401527105
Ni 7.082752547304281 1.2728123974177905 4.796487733267703 -0.0853354281437111 -0.3105208705392459 -1.3495185704132113
Ni 0.41584363917774764 7.478829972910187 1.7726726526908099 -1.3487976330867868 0.0568990271798891 -0.13973020084450774
Ni 8.02792473288784 4.016843407994238 3.8094891762761445 -0.24497779453111357 0.31124592163072845 -0.12643194107370484
Ni 8.058958314311749 3.895286139937314 12.418387053615419 -0.9969565636425153 1.0304778353284123 -0.34223337115117836
Ni 8.328387875609614 7.566713082878186 8.822974236869891 -0.02985873523264535 0.23441416008265434 -0.04265254456320396
Ni 7.058070868510997 1.0150068179339677 0.40901806609381075 1.334915475788056 -0.8720803970917046 -1.2771898389418133
Ni 2.0371549892540806 6.444340962193432 9.24119076538751 0.37122821572163167 0.22565672560499847 -1.5338553542235003
Ni 0.4625754942459145 4.960336876453989 1.1246370276799025 -0.9281155336094016 0.3010424987351654 -0.6151744836644373
Ni 6.637574914363648 2.0329899559577136 6.897398584054686 -0.675395633239024 0.7019029355009331 0.02501066311172467
Ni 3.5755676580981315 4.650082729534437 0.7603454302523043 0.23585577762518736 -0.14943457261646523 -0.46403089877666537
Ni 6.353590421895037 5.7433449878777 4.388033171678695 -0.7155601212730515 0.39510039435353894 3.104595754398808
Ni 4.632551478273913 2.775618114943883 9.671651947347646 1.6134160846669634 0.059531579706729724 1.1164393270918966
P 0.15037222063342254 5.796945971933557 12.243371265604495 0.4949391583197476 0.06856772176706902 -0.5630939609191141
P 4.303686256646631 6.111120150190865 12.40922398036341 0.3177065896544076 0.910289304061258 0.8699594940939598
P 2.219772189884538 8.460580043499528 1.4649129886757706 1.9092140471737378 -0.06094748621764988 -0.5616901385930521
P 6.6648064283557975 8.316655004036189 5.344047147638068 0.2929646068230374 -0.9680414232700619 0.9644994715550744
P 4.752393732620569 1.2057453797850097 12.674669991297213 0.24305486647678784 -0.6185164035534767 -0.2165632479441625
P 4.490677195945604 6.2457169669338 7.520154544010369 0.14107874445260218 -0.21499230391261684 0.15176836295596444
P 4.899658058038294 1.1469721321585018 3.510336340325601 0.6717325825651399 0.36084918648015274 -0.4256219599811637
P 0.4959093718367709 5.77296300242964 3.3051054589154583 -0.41838841834720203 -0.6975996801398889 0.9854087109039159
Ni 0.7960295118164917 0.30950825206778404 4.810060841774686 -0.593697544737584 0.20895792479307884 0.12874259148475248
Ni 1.783133328908787 6.89734050951635 4.732446943531084 1.3385538438715914 0.8855714895996039 -2.6219474976312713
Ni 6.372373905388455 6.1397127861752905 8.682726949029686 -0.7774812842578803 -0.4537045771499928 0.7646653634401347
Ni 8.625665992869461 2.6967910032978315 10.145037472456224 -0.8089284470235681 -0.9183893074605731 -0.114203517328313
Ni 2.47089919745959 5.981668374578735 6.645804257928953 -0.04891960851883833 -1.0041006308864642 2.2866651038766292
Ni 1.0152064491595016 9.057631668338395 8.77247933320041 -0.04935926715941822 -0.21125700523990068 0.1093166215496569
Ni 1.5461710642000281 1.1268184525261913 10.986225382317809 -0.2123489527524988 0.9400457093880842 0.6506937596169697
Ni 4.394454945238257 7.045612065208357 1.2358878800113082 -0.31797449860381366 0.14818141693565448 0.22945064542979193
Ni 6.197678434753048 8.413612260619367 7.566717619951494 -1.5302846061531066 -0.787841544446282 -0.5549466492216314
Ni 5.353764651248262 3.047089359230164 4.497773178598674 -0.040694135285252495 -0.010293668616524207 0.8904041351015569
Ni 0.9260438845187625 7.735347023574654 6.701066718230049 -0.5134446733231028 0.45575991701712476 0.6666657095651939
Ni 5.582487590830439 4.008168523830129 7.778866630741049 0.639869415307956 1.0807930386431968 0.20515732010006602
Ni 0.8712242425724875 7.623789465087656 10.865022913393537 0.05417545760113895 -0.5764603549236912 1.141031414608964
Ni 4.832754375044585 0.5067284768460476 10.52229511798225 0.1378718074795303 -0.8385179877552269 -0.6141725247624842
Ni 8.398621770411092 7.214527304449897 4.496870301010463 0.3002320870187281 1.5828497818443321 1.0442661473617563
Ni 7.508720211860584 6.245816782546567 6.605576751154546 -0.5405212178249207 0.7693185459414299 -0.081872152185459
Ni 2.2260424251956263 5.9923667934380305 2.1250553401006487 2.2026365674698 1.0686654021417272 2.226165503829676
Ni 2.505353732157421 5.4175649760995785 11.38887611973175 -0.10248648600170092 -1.1605316894254205 -0.9486550483236501
Ni 2.356519579375271 4.286871862968706 3.826913352606609 -0.20123021713151795 0.2819235185175274 0.46382932428882057
Ni 1.2323417035140967 1.1135701984680313 2.504716727065035 1.5303653387923708 0.750283897907482 -0.14070079228789314
Ni 1.4531519872478385 3.873735041726266 8.327648332660477 0.292679985703083 -0.1928543343629969 0.3948995911966425
Ni 3.9590773906420154 2.777714242811989 6.75769574501139 -0.1063822215116813 0.46260779317689366 0.4374042973280725
Ni 4.629203118172912 7.354450645255942 5.391991308694022 -0.5340736624273642 0.24407173777707641 1.001009136445334
Ni 8.325502296985988 7.7124166550781 12.762603009071595 -1.059925194055252 -0.6670315775450447 0.009285539066984008
P 0.306294189336688 5.982040414589958 7.896363218187681 0.32984399634789 -1.3829040878521925 -0.18014202900265106
P 8.908162325293183 1.7382072290170407 8.234841590739082 -0.28136636046247676 0.8113823078806995 -0.7728373577279657
P 2.4351561339424035 3.4056814851687687 10.369405729077776 -0.22605961747037193 -0.2469223198519941 -0.5485489732254036
P 4.058339480465447 6.211062801010435 3.5102165615902807 0.491998844744501 -0.3684426825566945 -0.022924470006657295
P 6.739305172066409 4.078420566924836 9.78495174198476 0.20439370246116415 0.23395444683741645 0.15203678612600266
P 6.574872561252768 7.941393670765502 9.99845552286396 -1.1717656104680272 1.6577992387680285 0.3853273741271751
P 2.6706302386062735 8.863780674198347 5.680745172623571 0.23746014599782975 0.07483889948776143 -0.04377817352721492
P 7.244934769757358 4.195268352888484 1.4095978983243072 -0.4914481144473536 0.17642704204490905 0.01500547226989674
Ni 2.5741085410606246 1.5664608560315663 0.5567370062569552 2.185513534636268 -1.3616976289779066 -0.16312981071537064
Ni 1.9337913851605877 1.5067711195969253 7.093292168597811 -1.693803938997412 -0.40006030946197557 -1.6453869811466049
Ni 6.785882766642118 1.0706041142451634 9.05787394805302 0.24103140828885586 0.10187456344931488 0.9241156684213891
Ni 2.847975360053313 1.490292469343762 9.092789449398904 0.649990562902358 0.10065123256517505 0.5785146663495585
Ni 6.798858796301823 2.255488030961879 2.3803147140442524 -0.47756210049388076 0.06689804737412995 1.8203819187306778
Ni 4.431123571710191 7.060693296882784 10.335100917799096 0.38732332151128135 0.019878484091481893 0.19440342401767163
Ni 7.093859302761259 6.201571243650959 11.087558192398825 1.0231903005280636 -0.8010338747668398 0.27311466197664575
Ni 8.09777751353148 4.04647957083941 7.691850101774799 0.31593458535564944 0.00826069734689545 1.3329971757194203
Ni 3.2824001292549605 8.737096513303847 12.14967434990015 -0.257495210271834 -0.8489684936645895 1.0875321571392431
Ni 0.12876032564005307 4.865729823844142 10.14669713387214 0.18301909344012998 2.0445720870924786 0.2926491324651476
Ni 9.097285689046723 2.675666389977697 5.884329096423059 -0.1504010502947926 -0.2500999462490273 -0.27157945627904195
Ni 3.6850744594501 3.057751481502998 12.157629654237677 -0.138287040640078 -0.29026289162115815 -0.987842260046073
Ni 1.3490261548386706 3.1282303782630856 12.703435943481988 0.20820407734618984 1.495536918259276 -1.2560563993973077
Ni 3.408440025739783 8.312725898551816 7.805826827749404 0.49748275067720776 0.030301736307334914 -0.27444572208324347
Ni 5.829322527056512 8.085482044867913 3.2882393426018273 0.9795016013908614 -0.20065634690591894 -0.284252166650704
Ni 3.4534750153909113 8.495869399685954 3.4606254429236714 -1.1503442073694574 0.17507978398839524 -0.5988911731233815
Ni 3.981182011796589 4.905692365537386 9.33289499849516 -0.8281960370039285 0.8825237039122157 -0.2816602375538117
Ni 5.5200756104112445 4.454580240710426 11.597533398903785 -0.029735065170587497 -0.02285402178003806 -0.26424975538684814
Ni 8.26746405523531 0.1108915161254445 2.8283470735100207 -1.7527881308411037 -0.48327200639446455 -0.15095409458478518
Ni 5.036895451446245 0.40341659538826136 1.4155078900147724 -0.7180119252476538 -0.30922554876659003 0.27609559898184066
Ni 6.440439079148906 5.827716403105626 0.23125462648781184 -0.08686626296594072 0.32884383721814975 0.3271443380285398
Ni 8.251293925967062 0.21257821792445245 10.742626286774708 -0.3269713027857853 0.20223243314378722 0.646183530451442
Ni 0.30250754795417417 5.228786429917415 5.604419803199324 0.4750192794673691 -1.1742863200073517 -0.19493127149668366
Ni 7.54243066653597 6.232895197766553 2.624577129704922 -0.19467056163612925 -0.948241100714683 -2.9659487593161504
P 8.833473024503654 2.0387157424718914 3.7379576785086956 0.11414463906591954 -0.05501260879045364 -0.29901004168616896
P 1.961331420137653 3.288897218231428 1.6583502017301663 -1.256814874829887 0.7743190844798148 0.19595945565088185
P 4.79983337112472 1.2365158109570784 8.082216259501111 0.4820317062294601 -0.3256824087710326 -0.3792096912652115
P 8.776659792546022 1.79246155162919 12.222547006537322 -1.1327126103306233 -0.6594609642866385 0.4599608424723498
P 7.098351005335773 7.912646774288618 1.299427776854769 -0.86426527192266 0.6578820498352927 -0.46907437473784375
P 1.9957496582490233 3.77250386208734 6.23515828993238 0.9859206175433278 -0.44681556333964334 -1.7861890748990528
P 6.802851420812501 4.065580649464359 5.908765773257734 0.2855192062885857 0.5127389055053299 -0.8304611788890213
P 2.7727597587601016 8.505723922910038 10.012015927565681 -0.2043276251099191 -0.1955622202124632 0.19654181051691313
