# total energy = -340857.35862490593 ev
CRYSTAL
PRIMVEC
9.40927536800746 0.00000000000000 0.00000000000000

0.00000000000000 9.40927536800746 0.00000000000000

0.00000000000000 0.00000000000000 13.77142560520909

PRIMCOORD
 96 1
Ni 3.4988107071050836 0.8054028954189807 12.722993104818142 -0.36418416439065665 0.3516191832414525 1.2264522033776295
Ni 1.0603594355092099 5.0406521572420155 10.881326045490246 1.2785815770830173 -1.9470830543053694 0.7316184602874949
Ni 1.3561494066224782 0.08392226528045392 10.68166781498879 -1.1165889652958834 -1.8380657091636863 0.7139313274203768
Ni 1.0313506404671497 1.7113401312552163 12.656848723855711 -0.5036994210108809 -0.3856837290253293 1.5015926375350526
Ni 3.825792425076746 6.326683646039831 0.07752584008759225 -0.5727723645491426 -2.466331221684127 -0.8047084954049496
Ni 6.445974435382432 8.546783280351875 4.994152460771578 -0.8589304899733078 1.5862302682807907 -1.5234945798144666
Ni 8.22208801622232 8.822870229467712 2.7580448267822537 0.05593614904598753 0.09892550812331996 -0.5539791431020396
Ni 2.5427342672011783 5.331935085596558 7.127649127335609 1.5349722414367628 0.1324298105283526 1.537315544857959
Ni 9.17685656689144 3.310437020195565 5.300290752607277 -1.0790973961083286 -0.43179106490635316 -0.7248253486250613
Ni 4.232442475069532 6.877135646933625 4.480437092535168 -1.2356626662323043 0.4306849763263679 2.72040557919987
Ni 0.07966927294863063 7.511123191902478 0.557257729552218 -0.17837388135863474 0.7821131266029369 -1.7870285400812127
Ni 0.9961693609789035 8.182794883528306 8.07184541653562 -1.370450178359556 -0.07597044198904336 0.4547242766637588
Ni 3.3328781412384823 8.974237237525326 3.610840358875853 3.060771558125006 -1.6286262167484984 -0.17621826846821265
Ni 4.435616951664799 6.345596288931346 11.046542565523987 0.8388566020415682 0.24083446178670137 -0.5045987928966987
Ni 6.340044816639806 1.0943175092383035 6.819637448833391 1.1238096514140388 1.0045523737119022 -0.20643078749585092
Ni 7.91371784433992 4.517948108530847 2.4517682186030187 1.1188818750951182 -0.604980573850571 -2.802267704083
Ni 0.3496684210939172 5.852870190594491 6.886882714979057 -0.7227910918038519 0.4566670022124264 -0.11230552897465175
Ni 4.677934012552952 3.9096102474039185 5.875592648962012 -1.330331198851483 0.3276112503626293 -1.3720316639140628
Ni 0.7929468970807778 4.741587758404245 3.666972330235864 -0.13807569596022026 0.5459886686973952 -0.7810098662364292
Ni 5.33984828593077 3.190045345669726 1.9445941783955554 0.5329431483673467 3.6387439788178493 0.679862667871442
Ni 7.600577169996824 6.548140344096895 3.270479592681581 0.6794983425534877 1.2162251263329826 1.0090219794474817
Ni 8.88660865879464 4.428936366364811 9.102733120669306 0.19666625190991938 0.17082563669773163 0.25120192106395445
Ni 8.683311861623459 7.950385789289291 5.179171741118497 0.7103664928872541 -0.6027863944127296 -0.23263444247441228
Ni 8.966032349663934 6.945155296417586 10.656342751136792 -0.23334715227072073 1.2096577575281102 -0.8794957157191692
P 1.2106820140340087 8.854682988480754 5.491204002858298 -0.9397870564100589 0.6182073569534902 2.0125263715108437
P 2.43372781551053 1.9150415272544257 11.16022542692463 1.656179957997051 1.023207012698612 -1.5468288836650328
P 8.385461259269771 2.4024137480762207 8.380187360592808 -0.28711740401364094 -0.3200375517804295 -0.8258853865928808
P 3.291232689776867 2.346136873880125 6.620750778887707 0.000336300293496195 -0.4551641924146549 1.2687239675626474
P 4.849389822885881 0.6168607824857018 8.293069705498445 -0.9180154690609222 0.04711238010677047 1.1401564682031784
P 8.273415611731382 5.244842835544885 5.395162591287162 -0.04892346517358026 0.16485219272311608 -0.5221936231603265
P 6.0960623140641905 1.0539234913610525 3.694006118440646 -1.2442195546633796 -0.44384336808519687 0.1193691206896525
P 1.663352828396148 5.547266345582789 12.891995917140216 0.3701830622865689 -1.0777815055103825 0.16221758331374644
Ni 2.860730127480603 3.508803357229854 0.6218138248827633 0.4544365702200109 -0.36086461309912043 -0.9935403388721148
Ni 8.343966356209283 9.112741766561696 11.49440241754263 -0.6677813112268757 2.2551369513613615 -0.8388645724613681
Ni 2.588811487220954 7.533790135547085 6.367700557926742 1.2784638205582304 0.5591084939088048 0.37686227407895745
Ni 2.1819073868012673 7.061783260915262 10.628207136821267 -0.34817930432196814 0.036881960628013896 -2.5538222627182594
Ni 2.2105774479407927 3.7759326764786674 8.995330009450655 1.17325505052936 0.4548176077085135 0.709876440624713
Ni 8.7696513696695 5.382509939099988 12.416193340944991 -0.7186109922842333 -0.2518470108471211 1.2374426409508623
Ni 6.355240795878512 9.106719830516635 9.672897552835598 -0.07436993027114289 3.234171383307817 0.19837166463680028
Ni 6.714091728513638 3.580078615888176 6.6297573369851 2.5118785712966227 0.10559854926812136 0.6379572858869077
Ni 6.882640072849811 3.38015974846727 9.653576547406029 -0.5339697898596482 0.2754893328564094 0.4391019967454695
Ni 3.9711280878142294 1.5500181101731134 4.742768622425581 0.6457019628293331 1.4107830736506477 -1.6095902831629698
Ni 5.628374296689684 5.29044959181114 3.618303795861699 -0.6589171759680266 -0.2601470460723842 -0.9755446736256426
Ni 3.670238289612802 4.3407714589551105 11.84365965331597 -2.4323504938633076 -1.446941782959392 -0.20654802980000556
Ni 1.5863285026698084 7.068595576066237 4.358725296716952 -0.11096084202129922 -0.8638526098652735 -1.6713731207977214
Ni 4.757545888923653 1.2502480157050637 1.5889743908196066 -4.045158769742943 -3.4146638536713514 2.2822122103115987
Ni 6.091508224930116 7.065697519344551 9.592169736441546 -0.8018975083187156 -2.599362156131588 -0.17571458935891676
Ni 5.488044368289656 7.7034958207169195 2.874674673134944 1.233274882726418 0.8676658129637767 -0.2939845634471195
Ni 7.484231483751259 1.9473906149464797 2.299276802174491 0.8495909577399369 -0.11304677801605047 0.18811527701611472
Ni 0.396022273800763 1.025488662098287 1.2163736845240969 -1.1351374177220321 -0.0962685301164471 0.46590908963598465
Ni 9.093029335289195 0.7743184142963889 6.947105839139681 0.05408804009365524 -0.01744442072869254 0.02174921875163351
Ni 0.6621033998067327 3.2001697256454826 7.22939255959941 0.6485036939441864 -0.310357091267872 2.3845313174975
Ni 4.901658345901985 2.925738808942035 8.148951602955073 -1.2019305640871818 -0.6761330256256807 0.40717146658546
Ni 9.058017422752217 3.1938372835230995 11.402960259625907 -1.1826154086983376 -0.3727197126654936 0.022113286959271592
Ni 5.378943823848304 5.261610163720348 7.838227230450056 -0.8086605380741622 0.01565519003875368 0.31726641679319556
Ni 6.996953355680168 3.681952837075457 4.173334350004751 -0.2647025266535506 -2.1758783255393492 2.403181071388203
P 6.120658159098231 5.170180237861217 1.269929396369831 -3.5897289823717276 -1.6697679810941306 1.9287531456479299
P 4.947180418692606 7.154050612255658 6.875466441536135 -2.0814905573853832 1.4765315808013666 0.5535847358770983
P 7.040960535184455 2.3464756077826596 11.77102945904751 -0.31329071997489916 -0.3208942433537699 -0.023572902223933597
P 3.031941296661702 5.112181466327238 4.147168096961461 0.41680281902763705 0.41895457526331714 -0.3171843986023505
P 4.263860044529616 7.760299614316957 12.50731840629184 2.329937798522336 3.9531425871449466 -0.6597407003105864
P 4.035609849871719 4.931749207577141 9.516247236825953 -0.46889156930307635 -1.2486076564287465 -0.6012607017968226
P 8.475780890670594 9.142249253182488 9.304209223114363 1.3828344109565216 -0.47736721087425527 -1.2297547853883015
P 0.5181640734896971 8.903206620018835 12.779400767937716 0.6437119289824978 1.869261160929884 0.11231709893887754
Ni 3.6646115431206994 9.126215848462516 10.421870202874835 1.2506172306596075 -0.013125995858996748 0.2629544336141923
Ni 6.358129443325127 1.2094023526244335 0.2684597907437682 1.5347637249703825 -1.619877781131907 -2.5663509913128895
Ni 3.26553595955959 7.547518267874807 8.663038637556763 1.4415504367404914 -0.49277686056110614 -0.978152800672451
Ni 5.778649828839131 4.608023098779839 12.51646233980526 1.8342123968558668 0.8612845920277813 -0.22055539982269115
Ni 1.4601783518008815 5.422621678725127 1.2417542630990088 -0.5348923016739175 -0.2487637439361071 0.24266945811291107
Ni 7.457142180823562 6.155820620036336 8.03427700396201 1.7365935233591123 -0.6556058522066063 -0.5111818454308551
Ni 0.8118952952175604 2.0363741292873048 9.656303355321432 -1.3485927161648321 0.46875478661489595 -0.6946459968282036
Ni 5.169954415259527 8.27501518849335 0.7489811183868009 0.04026476105731775 0.43854561002136727 -1.4728338202348055
Ni 7.156666390725231 3.2615652454798787 0.2166033939757493 1.6545884451402149 1.8093259180268324 -0.2941362585336354
Ni 2.5273406931859945 8.79678771897255 1.3205512962486128 0.22328282605618321 -1.6455772427805402 -0.27243177697700827
Ni 3.84884514899924 6.051556442981173 2.2208768404328585 -0.2556170194125146 -0.5795089119420277 1.2183241749538567
Ni 6.751239546491598 7.64851742648054 11.914307313327097 -0.4391549614705921 -2.7544950646844106 0.927974380045847
Ni 2.155853104131314 3.7479777202444926 5.551894767989921 -0.07550301543432159 -0.40468855226260625 -1.4900273012949565
Ni 6.458272357899452 6.318572850929141 5.7793442333393275 0.6298536829431668 -0.9810571188034393 -1.1575962609461805
Ni 7.479094019562818 6.226681870591561 0.4371991433638716 1.3886520460795633 2.354265833744739 -1.105910659646431
Ni 1.499979585348697 0.509786054967008 3.76483255467811 -2.4234369934237616 1.9236762453456546 -1.380181546714707
Ni 7.987336012490773 1.34784101673531 4.667838801329914 0.5259142665450233 -0.8270709222605498 0.2741970964075471
Ni 2.446750252207971 0.7011434230013522 8.553844941292214 1.3414447922661414 0.49885700531691507 -1.3331784384922911
Ni 5.0427410163076445 2.06968296303654 10.55979135685684 -0.5171126090929932 -0.12240636485407949 0.22782005180490442
Ni 2.8363695143233234 3.1998498102930886 3.023130451485774 -0.1524075392018601 -0.4004822274907425 0.007582440332948232
Ni 5.582061844793149 0.18733113923171768 11.948322783634119 0.6804151979408023 0.3660294451295115 0.4095091135797012
Ni 4.460335117274754 -0.08624729715035112 6.128160174111866 -0.7834259318770895 -1.903316707852696 1.486605677207917
Ni 2.182236711428731 7.598798817008517 12.651422394922609 -0.6084209669906877 1.3924112560116795 2.6895819089507937
Ni 7.416823437146874 8.36455385006333 7.080068305159581 -0.11938814685304601 -0.2015066107213562 2.0415631250628254
P 7.316181830993816 5.506251315550891 10.733077271190965 -0.6753020450839532 -0.17571793179302642 -0.3120478487067336
P 4.786742869467122 2.8068243906022503 13.326759940115867 -0.699419506957447 -0.1546485127172369 0.399183563283977
P 2.4472207159614916 1.4124450993687143 1.3257612118550963 1.3000122361529676 1.6977102160303539 -0.02289978741630895
P 0.8382582021098227 6.097981806178555 9.09672906224688 1.1918096736030959 1.1617483354413412 -2.4430971908568506
P 0.3534603589472906 6.96077469303446 2.446769070758112 -0.2537236590445437 -0.7836547600584439 3.545877532404416
P 9.340380358340017 3.3303094091442613 1.1864794766979117 -0.057725893956558645 -0.322851881300773 -0.32668436767298575
P 7.333965360876883 8.707361968703413 0.6285894438609623 0.3093785294046866 -0.7737362153931513 0.19148805014308956
P 0.4906692308064651 2.419068164950838 3.444990594629871 -0.3386829347957586 0.06288301267746589 -0.05262225418140615
