# total energy = -340875.9626377072 ev
CRYSTAL
PRIMVEC
9.19345173363143 0.00000000000000 0.00000000000000
0.00000000000000 9.19345173363143 0.00000000000000
0.00000000000000 0.00000000000000 13.45554590051004
PRIMCOORD
 96 1
Ni 8.668514832978461 0.7571405076908294 4.762536204185149 1.2523429551014624 1.1267216828545112 -0.20524396627660138
Ni 1.10586192212047 8.350154792898739 10.855181005174545 -0.9046894413759774 0.6798171593454873 0.4594188539259507
Ni 1.8880959563179154 2.052419712602676 7.2056059065384845 -1.26074763422539 -0.2234005825809701 0.18271930281152401
Ni 7.993522413252413 4.405557231408469 10.180115957179803 0.32408266838408056 -1.4755530189381814 0.5291034629062823
Ni 1.8542732473903316 8.849920022584085 3.1763292998212 1.541918590847609 0.2730542410523556 -0.47340951177808793
Ni 6.107724819867874 3.9052128142639124 6.178813185397242 0.44661810261685664 -0.9325350028333359 -0.2376162119597198
Ni 4.537253427491002 2.077848800097565 10.62266941738234 0.15964468038024765 1.4899607097230791 -0.5128520340444264
Ni 6.082727824604461 3.6732160597687833 8.748769069886139 -1.1995587214208956 -0.6817814821607097 -0.5058707176305869
Ni 3.2492784199814295 7.160807135586263 11.007726111098336 1.124854033518153 0.7003790426572389 -2.227202686844939
Ni 5.259877120648368 0.2709687157386518 12.434108534455904 0.7672979159669753 0.47704222343466873 -0.4965826074604416
Ni 4.204854986614209 5.531240235466387 5.179133792108468 -1.4472711412743529 -1.2857037899500954 1.1315409586200254
Ni 8.906781521555844 7.992915645438002 3.5401408459262242 0.0739698666192468 0.23974379982568383 0.32788815817309985
Ni 8.336042844487801 5.939834004310512 2.9647006376416623 1.0682560825184504 -1.6225977511662313 -0.275926420393828
Ni 5.893747230770426 6.701474706624896 4.603545569250997 2.117034515928264 1.3054514048906678 0.2999636638486899
Ni -0.10854248789168769 5.121855829773179 0.2913542756125372 -0.3054395993615966 0.03300602261237541 0.8182183569659263
Ni 0.6459172092736502 1.7847615588332613 11.999023834441667 0.12703229366186508 0.07141624695945765 0.04380696988262133
Ni 2.207972915933668 0.9585736318979037 9.723556273261261 -0.4082135346967292 0.7169212632866363 0.20706919241079821
Ni 2.300661296310917 4.54180418609909 3.7465485468663005 -0.6660350179597303 0.19189891242826307 -0.9820367091078892
Ni 1.5058506201420299 2.1118277977046187 4.5561689544326995 -0.3944481054815207 0.34631551164035196 0.290360593541287
Ni 0.2775971944385126 4.033801623660519 7.9935895254500675 0.41273173428205695 2.777015100163798 -2.1028659377373655
Ni 6.599583681062402 7.776713241021043 8.222320765889453 0.2513595296877413 -0.3889505727020592 -0.5467651418521036
Ni 1.3335101739456487 4.810694262400795 10.019147810777774 0.7750068545754589 0.017105549332035057 0.11698030874250176
Ni 7.639850325064278 0.5065619485519298 6.873953973942453 -0.43766320741641396 -0.028924910564466312 -0.5447684231370489
Ni 8.856199150118071 8.93803925744978 8.732716383814257 0.6946282562163908 -0.10002876848982772 0.5432779546344515
P 7.060313514687263 6.012977106302319 1.1180469230480643 1.003874116697955 -1.491490258993728 0.2832270678202993
P 4.641737006442345 5.865532527400283 12.09258007666256 -0.102482629346959 -0.4720136598718258 0.36413865586470195
P 7.620084403837231 4.85586169076753 4.881241133623058 0.5187542584614743 0.024297953315416218 -0.11729141222501734
P 3.3643436618780425 1.3875860570421554 3.7684004622916807 1.789506826418376 -1.2281907833352914 1.1262509138656798
P 0.46976607733372877 1.0476489857438838 2.5133214637749544 -1.4636742652227244 -1.1394154762720956 2.9962039586562654
P 2.823106771422833 2.262830242427523 -0.1004007670364911 0.45891363215475806 0.633980817737663 0.4312213084458122
P 2.7491546456784772 3.1434434036252608 9.32463953171183 -0.7771436984128035 -1.6795913949424557 -0.5876775637957492
P 7.328127957136148 5.584047422223669 7.94762594416321 1.8965482787806112 0.1035781764039829 0.07238966661632049
Ni 8.538041365976486 7.098098601311991 12.129945941888238 -0.13966849436863688 -0.5335522427062553 0.22280074421344206
Ni 7.326206525723845 0.742977995295357 2.3874042714521058 0.6559840614816316 0.3049240931777587 -0.39344151859387727
Ni 3.991566906396773 1.2234829435989991 8.277111899530828 0.25661897831446767 -0.3656751471138863 0.17890944214713056
Ni 6.340530598115553 1.771964274020215 4.867745146478266 -0.08703107067857915 0.04999587230215261 0.583222613348189
Ni 6.251767821628512 7.44743138028191 13.296447871642942 -0.3371086483301033 0.2761609050021373 -1.1706885753537646
Ni 2.522784283644256 5.726849308000283 7.109251177609912 1.1672641230532477 -0.3385826617724685 0.48287991316236833
Ni 0.4628829400208497 2.707057830190734 9.721632083813438 -0.14939703451031044 -2.229467057399083 0.7182446100837502
Ni 6.386286407393233 0.8999782479292034 9.058057931140407 -0.4788635929141236 -0.24990942750477607 0.5837324631050721
Ni 3.5425127564734695 7.583227855837588 4.194510514723663 0.4916885125929339 -0.10179511636163115 -0.275230422768068
Ni 4.087546542494619 0.6178799395219642 1.0243408275639154 0.5399895136911669 0.6224535338243539 0.29019887115244214
Ni 6.033414149505912 5.904852920464506 9.64868939906942 0.7182700640050469 0.534883302812853 2.3773350568593763
Ni 6.602038332675249 7.756910545987062 2.3284953907792927 -1.278085097062573 -1.06185660675001 0.731758842520101
Ni 8.079858118481807 2.827335759220247 3.410953542821766 0.7214507757258737 1.3368869976921298 -0.24914606697619024
Ni 2.6133765570262653 4.349863300806865 0.503938137427186 0.12355873329096784 -0.3238787799033906 1.7502023723917988
Ni 2.416186210794206 2.2331261998765517 2.1330003170468923 -0.16267189724234563 1.4305525429680912 -0.48343064345951575
Ni 5.280065940655156 5.619184794749145 7.4754033765262875 -1.4891348713876742 1.2834731008473639 -1.1997209580303725
Ni 3.734177838213689 3.5744140339887496 7.314192522998494 0.7675113175293621 0.28848934466050313 -0.39163763261591905
Ni 4.708720495772701 5.880407532305103 1.0208574287020884 0.02920876035347228 0.04974956061930142 -0.036999717152800794
Ni 6.273850492692404 4.878413227869831 3.1181614113581073 -0.932397191703891 -0.7212229759857838 -0.238930302785453
Ni 7.993062740665738 7.516639684931774 5.98475780620631 0.2970220647218626 -0.8944286828799175 0.19581855919764338
Ni 6.729864085577975 8.047690230866255 10.714382372530666 -0.21046716234875365 0.5684732229531564 -0.043276294190131924
Ni 4.150107981541156 3.2519904882428152 4.611821514501504 0.2722885665309246 -0.8786367101529836 0.11754569432766852
Ni 7.137271899148478 3.6438613683836856 1.1705341776850207 0.058677973457182814 1.1012536204903938 -0.05813752757268052
Ni 8.644602665019603 6.450521054655269 9.681426361347278 -0.02901129963068552 2.0459375999814373 0.17939563775492975
P 6.3863323746519 1.6727117691052393 0.46169514605688017 -0.4567626472500263 -0.7830742049646255 0.5045180602574343
P 0.7685100494496615 3.7835926412813063 1.9915553847461454 -0.31232038564182985 1.4283545068755077 0.3238458697829261
P 7.017600737933375 8.657896396226258 4.43109939835968 -1.5818287967789852 0.213033123303717 -0.5579828649447938
P 0.49471710533847535 4.164229123403827 11.931691913290614 -0.2605296262227836 -1.1752533119063113 -0.5350488818564398
P 1.7032064485052927 6.797711759371279 9.51059547992554 0.1873616866795418 1.1424293233977552 -1.7362255984967325
P 0.7010558553905507 0.20291235059099613 6.570961707780465 -1.693298460115903 2.2762529074043703 1.0879443049759974
P 4.2598134410771324 4.3611896333425495 2.555732695311983 -0.6843518139910472 -0.6172869020217499 0.20543628479306555
P 1.9217072158556285 3.9197936287132595 5.911626655701757 0.10402811945720793 -0.5236331838203305 0.3553028027406268
Ni 0.5167207127174586 6.655020195015468 7.537191646282036 -1.4774666910211265 1.150853028685076 2.227041478676726
Ni 7.647260247161486 0.11496595261789123 12.733830689836282 0.8383457238434207 1.2627908899076639 -0.1293419156316482
Ni 1.9603289065881047 5.871820848386005 12.28884280361471 -1.5839306736133367 -0.04509637811800621 0.6435972577815045
Ni 3.5672615285400786 7.7165788732321525 13.074310174786829 0.12059913644201166 0.5393143420010131 2.0617591403947264
Ni 2.9972399407072485 3.667893051215081 11.64765838329347 -0.8444747195592941 -0.2939737648138421 -0.10173495254765706
Ni 1.6046802262772641 0.5513055587937504 0.6731353424758804 -0.11320155842635989 -0.9581709582338854 -0.7646705056464572
Ni 2.2991719571300884 8.656710440952635 7.8400349785259404 -0.48717365544171576 -0.595827189486077 1.1499636841015872
Ni 0.6680862987838366 5.729726858392872 5.529960506985082 -1.3003325956068637 -2.0988462750550108 -2.3180063371920725
Ni 5.112340607228997 0.2117334675292991 3.37442244301349 -0.44775555865540956 -1.2964926530354832 0.39129567589546804
Ni 4.004161935271682 7.194528716544779 8.825546343348202 0.5178875395858049 0.5340384383140545 -0.6334673684363542
Ni 8.655984158265689 3.0366706551922733 5.889788530453976 0.5333028456996105 0.57857765837701 -1.6299901869755606
Ni 5.500285883479658 2.3643811102758763 2.5221480967842975 -0.6795759898689587 1.0254796107828728 -0.3436744744730791
Ni 1.6111708032011223 7.820547618886419 5.745679335840858 0.7506055429129589 -1.3305245458092119 -2.508055598006106
Ni 5.436124783831492 8.856465760218343 6.04974815520084 0.6690151836339769 -0.6383234109770749 0.024446048857506286
Ni 1.8096850064828072 6.4865593854506285 1.368711900633259 0.1429047419177474 0.6962889317482653 0.09045192343467003
Ni 6.7486738878247365 5.125229826559377 12.30360289037286 -0.2036802213339073 0.7126028384169405 0.09057945015146981
Ni 7.537812204274047 2.772331337498656 12.37903516184631 0.5920229852486385 -0.2979119235259837 -0.8306946350560661
Ni 8.963201734844397 2.104647711900747 1.0079617739554936 -1.4255759156891061 1.1986485509018003 -2.3025226397341765
Ni 4.941158535951037 3.5525887795733966 13.240566394625974 -0.00017920589034162686 -0.42073712108503675 -0.2591764546289988
Ni 3.024149173931233 0.8040353856382914 11.919460945104351 -0.9670407499196894 -1.7464771010214117 0.15927572707660312
Ni 3.237538382117737 0.43464984974723997 5.8126076644608125 -0.10845890153505192 0.9078567833603656 -0.6340859758569596
Ni 4.035594346748554 4.747268638891309 9.719452316407423 -0.2270860018523573 0.79807119259409 0.1796982565970131
Ni 7.834052799482945 2.5398013628029834 7.897840644990732 -0.18044387651378602 -0.7739740424355702 1.6382920219730364
Ni 8.707936354011753 7.86371087477525 1.17379049828903 0.6829230519643206 -0.1122988441064324 -1.0125526183085594
P 3.702543170798681 7.806279381796012 1.8194456941882748 0.584078276480265 -0.05803159812243554 1.17413899579621
P 6.089632106856327 3.513507416254245 10.879697182912297 -0.14238692174106446 0.810350009961443 0.6130612939761765
P 8.113524538729921 1.2109430754344912 10.223375744311834 1.3393899666196416 -0.36796214337585015 1.4604986957082202
P 1.1680280427424656 7.961124689343523 13.042393268403602 -0.27639770360329174 -1.1477985581294685 -0.3729097171891126
P 5.677802243002007 1.6246116296355142 7.163342689574365 1.0111678221458908 1.750171004933231 -2.114735178371126
P 3.857838957481134 7.444599797147989 6.562956050010925 -0.09187322926222888 -0.24789471106759242 -0.3265015622382183
P 1.4747767532827656 6.607866981074295 3.5693925706519063 -0.11897368502344671 0.17718166082274647 0.5921237724925609
P 4.729231086590161 9.21367732732388 10.257189259787687 -0.6512398619284268 -2.324462120119745 -0.1409689583476153
