# total energy = -340895.0874007479 ev
CRYSTAL
PRIMVEC
9.02918113585126 0.00000000000000 0.00000000000000
0.00000000000000 9.02918113585126 0.00000000000000
0.00000000000000 0.00000000000000 13.21511927593976
PRIMCOORD
 96 1
Ni 6.353058047733487 2.012450913218019 11.354100100218812 -0.5177011346066116 0.4982263137114516 1.0072502322590393
Ni 4.674695854785655 0.5434916764811563 5.912682325202268 -0.41395712204872576 -2.1090687241139676 0.09969992439549925
Ni 2.772735027509808 1.6156545320122784 4.687706904376459 0.20484518817628594 -0.9091122530340214 1.0654168132974426
Ni 3.206505904256383 4.274558676669022 5.029158921621872 1.0814630681270276 0.3202252423112033 -0.8807056768668704
Ni 5.270179360381154 4.3799292170747695 2.6618422401021617 -0.7548247232006291 0.5076548061142031 0.46919804479990157
Ni 7.2980792020168455 5.868371620228729 2.706496053947631 0.37993551368764245 0.15507145918726842 -1.2756253226681709
Ni 4.973308923534489 4.482780616026087 11.439640753663198 0.0908833545451338 1.5472880826896385 0.7481465398495051
Ni 5.7469291379273315 7.8740325894548775 12.495754240250772 -1.0599964136128197 -0.138127118023446 0.4477869261139772
Ni 1.7341173846363924 6.506165867241651 0.37540173720476194 0.8990679814241419 0.2675317685722296 -0.12619231425907299
Ni 2.4810563696462884 1.458971156891375 0.15804587850969737 0.6567780181378366 -0.3039295904749733 1.3556665922924782
Ni 0.5896037030323263 -0.23129691391241458 4.761208951006536 0.6091089941966478 1.2743911931507537 -0.598298276734389
Ni 8.813338272266355 2.321655211092469 1.2582660105838201 -0.2099691396664126 -0.04307394837133872 1.3822944792926515
Ni 6.775569535972267 0.8424433395114995 4.585791831478276 0.23539092217362687 -0.9364963014739289 0.032440637027208646
Ni 0.7808525882458845 7.365301453372525 2.5746754311884468 -0.6096597244937951 -0.7009639686264315 0.5756892810856215
Ni 7.527619037337746 3.640430277077242 3.7590935775160093 1.1165195455105288 0.07322218981994486 0.9969624771797863
Ni 7.679137721018026 4.052395682094606 12.673616461950571 0.3239505136815905 -0.9185577147176375 -0.1279072400676507
Ni 8.060232356742567 9.162180674029512 6.7833472723480615 -0.5308752100947245 -1.1752371139563953 -0.05651516147790913
Ni 6.719633760666903 0.8134641836047088 0.515886761898252 0.28574006405014013 -0.6426624046720609 -1.1294514230808486
Ni 1.5885218435873192 6.443720052550464 9.266388255943037 0.7845016814397715 0.4400839010427646 -0.5755301297999379
Ni 9.34791092391351 4.8070184999995575 1.354272387540142 -1.1418438832079303 -0.5106475701939398 -0.17028673347512607
Ni 6.4511149516586315 1.9464837179991332 6.869112752395369 0.6560866484977668 0.20065171892022865 0.7670117521851242
Ni 3.502148372508773 4.366900109122285 0.5259073467947644 0.051582242952665995 -0.27580660698651205 -0.05088058889995109
Ni 6.040178873257054 5.697783306613836 4.825513874032731 0.4028036765350676 -1.7347145611688448 0.9175449571824069
Ni 5.348200512021776 3.0304549362331374 9.18206293023975 -0.03443478463910199 -0.1499829889207675 -0.08092135823641548
P 0.23358400541925056 5.534490571117868 12.19915377591123 0.7160514590871733 0.478074521353925 1.5431108113834973
P 3.8558845902873493 6.23198576184654 12.682364835266691 0.34743805528056937 0.20781995453389374 -0.46293483749900916
P 2.2838680892760115 8.386420543777533 1.4511121578880193 0.1548292612694753 0.36176887008094466 -0.8407005972288425
P 6.39920619100802 7.838015187083109 5.746263687299405 -0.10351004217020882 0.4605182576377166 -0.15892091484034565
P 4.704266422037483 1.0488838214887828 12.692091068867812 0.003983667238096365 0.18651245130536911 -0.8999007617380825
P 4.026861158678372 6.20726386470593 8.222684475502307 -0.3077453646766377 1.1988488398380643 -0.9637255695035275
P 4.704591472547732 0.9447412496773093 3.584772600541757 0.5826641697415579 -1.082137211375917 1.4717321025301942
P 0.31270852295855206 5.294513002745634 3.6538485427239413 -0.5233138528076987 0.8530511483743953 -0.3690661750733063
Ni 1.617035996680837 1.120963772136519 2.6653175718075746 -0.49849267999896085 0.28066316374786504 -0.7491947786083614
Ni 1.7423158808393415 6.372895158039523 4.975465994837226 0.36019818315971514 0.3651197888310486 -1.4297254190811053
Ni 5.928099651487 5.681494664378021 9.236416793061903 -0.030630580401663377 0.08309265485612143 0.13878274932957388
Ni 8.400370628175722 2.285926742507589 10.31519352355851 0.5564646285280546 0.16630049513386844 -0.7407214510300275
Ni 2.3083010526297354 5.376615344126051 7.011479458375968 -0.3604293253339147 -0.593431692670707 1.0994294227974615
Ni 0.5738703554181861 9.096628821129281 8.983215086431036 -0.33809466639245644 -0.37410810837258796 0.6917455353519572
Ni 1.5156112083022795 1.3254747181682405 11.160603851894116 -0.37220703469513317 -1.4038567788444598 0.03620627471722797
Ni 4.193160611394145 6.708202817723143 1.7307178980500373 -0.8398583038332053 0.8402560534922562 -0.20756284421776514
Ni 5.78121293757777 7.847432622699493 7.944255237603774 -1.4535690584679224 0.02173816300803998 -0.26327402173714015
Ni 5.1502898971842805 2.77460406794374 4.880356215538341 0.2007522490538349 0.504643530091705 -0.9439707554741034
Ni 0.6912659588669824 7.52240017081208 6.7803071471591485 0.08033668937753906 -0.37810385979554234 1.3435096452149702
Ni 5.096701708897381 4.6975938573965355 6.935558494198787 -0.3831720183470691 0.026710676521966903 0.5898038661101326
Ni 8.069550471369707 7.091933974253038 9.236984728536754 0.7024168990228742 0.48003395907314095 -0.5535667381549692
Ni 4.723308964429576 0.506308606862912 10.451084501040478 -0.5617317904642648 -1.2350877675654406 0.02310264745573441
Ni 8.164122111490514 6.984188759286304 4.587470356196479 -0.16022035037805954 0.6655321101813829 0.6011169771301068
Ni 7.255894869131185 6.2635788656065845 7.021007952916686 0.13747585759269226 -0.3714945820091409 -0.4279459801286501
Ni 2.264735255075516 5.251967502626365 2.639522105065057 0.9705389928809348 -0.5606205596779571 0.47339408515912024
Ni 2.27772824630464 5.237340229665155 11.46726101785353 -0.3019629536669058 0.16974937291441733 -0.008561773527082029
Ni 1.0901923238329383 3.285113952651622 4.157410472775249 0.2553223709902313 0.3234391212628107 -1.5055248827099232
Ni 3.817962030758288 2.5690547661153897 2.6462614856442213 -1.4851820573875132 1.2312773926804148 -1.0465711413458492
Ni 1.2008178474877131 3.4089943137798877 8.283751534279187 -0.8558587930265197 0.27332472110492284 -0.24415529862981822
Ni 3.99425678666422 2.558409361904732 6.988048734095512 -1.3479918493560399 0.47257775990541195 0.3766563287157384
Ni 4.0886749307107415 6.828056164196656 5.939614565812574 0.21120326918382978 0.85464009012807 0.24390435896127668
Ni 0.6155156462076832 7.498201966160203 11.265822702061747 0.5545710110497675 0.05823522949280939 0.1203062877919412
P 0.14778963199325446 5.612421430950088 7.8524104100967245 0.4208906159437654 -0.2630706474770824 0.866572837009914
P 8.441995151849287 1.8242015218795924 8.083648634333677 0.3364360477431109 -0.07234338675941734 -0.08001658703395897
P 1.8314338957326346 3.3682727081903483 10.390796660570112 0.4416874980844587 -0.6865274814861273 -0.4269530200877614
P 4.109460105005003 5.918907945391623 3.82404589280845 -1.0017179895869006 0.28670242796340945 -0.046003463313307874
P 6.7855106640773855 4.058689021140263 10.535489283535162 1.1349348147929226 -0.675571753805572 -1.069280410017907
P 6.253132103374413 7.618253954612202 10.367538393643706 -0.9276059409628347 0.6765534009925509 -1.085470389514208
P 2.5281796644515664 8.471303872856746 5.885525257989041 -0.3710011873124901 0.4496157517925998 -0.4361498560956812
P 7.092195820497406 3.920867604794647 1.5973514795310022 0.3948913636665264 0.7033476383672597 -0.8851243747598563
Ni 5.512134319357403 2.9695711698273146 0.3617649653817285 -0.811967490960208 0.27472880054130105 -0.4663806299557645
Ni 1.4543030703969644 1.1255144792800065 7.057401872129492 0.43211656656657194 0.2233712720049314 -0.6326775255452072
Ni 6.933336412794001 0.44028543072281706 9.137303474978449 0.4433273476807269 0.9646442246630548 0.4072691685055889
Ni 2.8955770328414445 1.7020547634726553 9.144875346031085 0.3142993637450716 0.04549875576274745 0.05686097485310208
Ni 6.324038260512916 2.0624183999879766 2.4718086826297014 0.10268806048954572 -0.8916560052307869 0.4274800962358251
Ni 3.8945023967411094 6.942356564453414 10.481016235525916 0.7826067784099038 0.15998663710069866 -0.4157417247529744
Ni 8.242757247428273 7.041551145164428 0.5662443092805087 -1.0498968632849726 -0.7384753353083282 -0.5616896243724198
Ni 7.549821793023927 3.9646771902315523 8.12073057712651 0.21162827253639035 -0.3449535982958188 -0.09069566401435993
Ni 3.0380665356814704 8.377806705255932 12.34647569633696 0.3319345603283315 -0.3255659377978264 0.10880394357929649
Ni 8.964811810042432 4.632132296304705 10.128609113167025 0.311524886323728 0.7367028167889377 0.0974268120906064
Ni 8.667941373195767 2.205783733369507 5.636776743348586 -0.37039492118705886 0.2327748247070185 0.7750266520698007
Ni 3.6555451258038247 2.6994000207252764 11.547965642039877 -0.4211510686940037 -0.758081796685346 -0.06275574307098225
Ni 1.1966553951203567 3.2186591816673626 12.570339788581679 -0.905278481110228 1.6011796905017714 -0.02743649894439791
Ni 3.186713939854549 8.458970011828962 8.101541762004805 0.49996592211037766 -0.698775702725861 -0.3389719267910872
Ni 5.601947581175395 7.5755188416952866 3.61562982606332 -0.18366495455424497 2.164246654837692 -0.24509837926937786
Ni 2.9959905529658934 8.13898487203125 3.56637745041591 0.8965832673290752 0.24080746520350785 0.5419818615308473
Ni 3.5121707632414534 4.618010657470549 9.451214684824924 -0.549387409966299 -1.2957503755528201 -0.2734694742129032
Ni 7.372922082001699 6.092891231002449 11.36607279401299 -0.7248711142613322 -0.035086302180171836 0.8188891577807058
Ni 0.5276897070926302 8.865978396565028 0.12610063669688368 0.16527668185504438 0.9816052779974257 0.19782067722933674
Ni 4.274007896637767 0.35083694781077074 1.493176402668504 0.4611445783678058 -0.9595272151514636 0.3364753856214786
Ni 5.743353582314591 5.528639661933385 0.4629965292903044 1.3919834244456413 0.20891035938459504 -0.6178823695139035
Ni 7.7165546464200325 8.91251479461569 11.409286453514436 0.7674357270964203 0.3766131341826288 0.33844047976764935
Ni -0.18974281784940408 4.840282002215048 5.797618056246425 0.05777037404124889 -0.7649479276775599 0.12813838224185028
Ni 7.869003335726856 8.860100399838023 2.3843511340929306 0.5997905450091993 -0.1648089981900065 0.6692658661922022
P 8.617820390351525 1.5550506702125027 3.4736468602684316 -0.06526616819766178 0.12621982506289875 0.6935946727455539
P 1.9858960923668358 3.1983525539576343 1.5037351267430952 -0.6547720434514014 -0.29203720991276155 0.6982334570691459
P 4.989651740855347 1.059366700444316 8.241344180626774 -0.9970702064022442 -0.5697063240293091 0.2073443004490558
P 8.577830148410046 1.690497411997132 12.480979791641865 -0.5948817948536722 -0.9565966717682299 -1.0394782390548098
P 6.302485605847234 7.615391704285842 1.509589647599915 -0.017268300162144454 -0.1740441436350293 -0.6759126820847585
P 1.9182855862350245 3.1021376029239027 6.229805214673619 -0.25304848735439 -0.09714193386033593 0.0240387861167586
P 6.760698475128372 3.8333567840909186 5.902056785189459 1.1790189495963308 0.7499054315221408 -0.1937627051098792
P 2.3483906155604566 8.538345540595621 10.151391542263152 -0.19436202925677495 0.2601992394665583 0.5477167071320954
