# total energy = -340869.1028330081 ev
CRYSTAL
PRIMVEC
9.21479565982995 0.00000000000000 0.00000000000000

0.00000000000000 9.21479565982995 0.00000000000000

0.00000000000000 0.00000000000000 13.48678489397920

PRIMCOORD
 96 1
Ni 8.072483434564782 6.094638143648191 7.656016141514992 0.5525719783418678 -0.5594918453901525 -2.0976028895662133
Ni 1.7778750123164317 2.5069772819666962 6.80613278192897 -0.1579292403510377 0.37661519106515784 -1.757244881060877
Ni 2.123217905782086 7.463680321042119 10.174390282638994 0.7770506244783649 0.643634281667027 0.8820675902114035
Ni 6.0389162748543495 5.485448008711713 13.14395030207069 0.44553772506848427 -0.8438699960957595 -0.7403039038766347
Ni 7.264954039843509 2.932590259616765 4.946264518657089 -0.8365829755160431 0.6205874271498926 0.5801241769285235
Ni 5.488516535635535 4.223785844060408 9.182329077810566 2.3744793325781366 1.2474709717211419 -0.7586196714666871
Ni 1.5846960380491752 1.1706476288357313 12.815911873200365 -0.271473526828797 -0.21169949209395797 1.105902946336947
Ni 0.9727230348514534 7.942379735953859 -0.039788565778887 -0.923667782250693 0.500116588755629 0.9158297742635132
Ni 8.544843070126404 1.2301752081987574 7.078485279708166 0.09108955701866893 -0.6273491713537583 -1.8163622560483235
Ni 7.224408939348568 7.699284214099991 13.163655220911231 2.0117506696870837 -0.4758358618313934 0.17374512433737171
Ni 5.242748723067227 7.565660463582462 11.890353847979208 0.9790922817675847 1.462178140293172 0.673310468575221
Ni 4.910979223471811 9.570670971830664 5.022518794933392 -0.46273172034926763 -0.8028274763321529 -0.5122961615409564
Ni 1.8657657324347818 6.827039310111453 2.9046620572122044 -1.4284378106179334 0.44775298755224824 1.1066012579555522
Ni 8.929689792187924 2.016823876165136 11.49660747635905 0.9767587485384017 -0.9079585990455524 -0.9184224746913537
Ni 6.565523411919088 3.6335413288097467 1.4503286535293864 0.13332198332531878 0.9041130000472171 -1.6093095186977573
Ni 4.459638536598589 2.9780652757400676 3.0671106097429663 -0.08720282036975303 0.20129578026213074 0.1915965506964958
Ni 0.3237599992885521 4.48111822506534 4.731433539245978 -1.8085859545370142 2.3931619965893045 0.20125721371471147
Ni 8.474700046270156 3.714226078794678 6.7129527691551445 1.6084559124482105 2.344286353934524 1.4942729639451877
Ni 2.6455954516815567 5.170983895191183 4.762993292583506 1.2109546219626628 0.4006624618223487 0.001890017933861261
Ni 8.747356632303063 1.716670340160206 2.219641526595508 -0.5688740579360009 -0.27283132640827207 0.5416923553148865
Ni 7.296542359047295 0.6476176754101147 4.22357574672148 -0.3922909499292018 -1.461818185850592 0.13367936666473748
Ni 3.110067222237799 8.411320682360111 12.14053370466501 -0.5810844839592638 1.3402433157588725 1.1918042742864572
Ni 4.712713682051553 1.0649539236818757 12.63644267177774 -1.9428849570636215 -0.15876947686414594 -0.41801612260944787
Ni 2.9246471058379835 1.8378356870711083 11.0350217797744 0.6640079602273725 0.5238812952753945 -0.20424355003654504
P 4.4452173815361835 5.224825945689349 2.0594321693875344 4.35342426858911 0.6628861879181036 0.3215796994565687
P 4.846392721342484 2.130995193240661 9.639948726383166 -0.1968104907972675 -0.5550813750272828 0.5024377806896378
P 6.467708356975045 4.644496550468816 6.990483982043012 -0.26111326664039547 -0.374897951263735 1.186095396827138
P 6.371469032072963 1.1596635925198293 6.287674288584159 1.030946804545031 0.08761059733113298 1.1496523235087557
P 3.4186799405732646 6.322685904341096 8.689090558453165 0.07108611731354854 -1.1380615333473627 -0.49825973805254836
P 0.535763879419698 4.336759237712219 2.477859449454432 0.5064420167530246 -1.790387943471749 -0.11339773359756598
P 6.689600634229173 2.2946223181244463 3.0188683905108844 -0.839224012683316 -0.2537218592723308 -0.5159707821790662
P 8.624210104345249 0.7656850080513808 13.298643682652237 0.4628224802908609 -1.1006206148920852 0.3197871263325202
Ni 6.807292003211304 8.060863577354755 5.9468226864778755 -0.005369234731713334 0.6672526924169153 1.6321658544706408
Ni 0.4025907324053965 9.703824767774272 4.093333826177051 1.1713663181470795 -0.45888046492397744 0.42780894033015354
Ni 9.223641770776242 8.372194660382494 6.367340803658934 -1.7302038177826848 -0.3743716464466198 -0.2443481313669147
Ni 8.138977399376484 0.5203982078116725 9.36021978475256 0.16350853421102807 -0.5139648074926308 0.2222178751267786
Ni 3.0437114793596027 4.532509139942677 7.239692599276048 -0.7972414976039431 1.2414584469784748 -1.4939847432808078
Ni 5.616095380261092 0.3316275917436839 8.313577502821492 2.41402778429472 1.2839623817789565 -0.29247686855334143
Ni 5.419626723976404 0.45419450906033176 2.41296148723494 0.8658189895630249 0.7329173816045764 1.2895995254600758
Ni 3.370016605183769 0.5523044374625203 1.3811955712672863 0.09168399606955824 -0.8698144838756632 -1.9435855826750723
Ni 6.516583632662582 0.5683427891469394 0.4105670594482193 1.5654336432504137 1.0564845438048194 0.24220923064704097
Ni 8.065212960862393 4.108352099992199 11.876044191943166 -1.3384062625501336 0.624993269527072 0.9022409798354849
Ni 7.384193494480902 2.647125107745684 8.310894154352372 -2.25059175519284 0.6897531875122767 -1.6136909355949047
Ni 4.341366635495734 2.3185439274164605 7.416652611865771 1.7185091550535756 0.4964034015701 -1.4267244274712525
Ni 0.10454185570797679 8.768274218240226 11.36281878100087 0.14636441833157374 0.5279189556798779 0.6941325475268949
Ni 4.863246582434586 6.414916793171519 6.812161101188924 0.1570532655039876 -0.02826439416233197 -0.34739100409271784
Ni 4.160093177101084 9.05894572960668 10.18136219696501 -0.4321060250436106 1.0860110925090265 0.6159640694452683
Ni 4.141018550277328 6.026310434518649 10.705499768817784 -1.8914502954324137 -1.7909232471499286 0.2841485511933042
Ni 2.9665559960768446 6.954627369532576 0.9697226974148279 1.34586066194565 1.0587967368777635 -0.2743292511100372
Ni 6.3105408037837485 4.710621923457837 3.5912472601161842 -1.6040477560781858 -0.10350927083926045 -0.6575472922036933
Ni 3.719662808179227 5.051090190068531 13.30143576570905 0.47931379307766486 -0.7539600612074886 0.4149158864175694
Ni 7.003696155927021 2.5961396438732964 10.316054863768315 -1.3072041259157166 0.7669371901934469 3.2435307130355304
Ni 5.5081809093755805 7.279955727026637 9.220901290574606 0.7890844157144474 -0.7652801142059981 0.4557246929038151
Ni 6.399592588143545 6.65204112749795 1.7182571279568488 -1.6544853439034473 -0.16238727612239132 -1.252200258876011
Ni 7.423439308800891 5.721991810917421 5.352135718284349 0.2355035364920912 0.26004471616656505 -0.718860132180562
Ni 0.45260679978413215 2.3426314030286823 8.846036035071295 0.28442005968713596 -0.4962193105837518 -0.05364632457054632
P 2.3427419805754868 6.514749888344742 12.409392873444743 -1.322779097535838 -0.9652461199131118 -0.882626548038667
P 6.234058000577384 5.760896677801431 10.95593579682035 0.27755444291555426 -1.458500948551901 0.1194357122615298
P 0.11805443192747236 2.344677087644563 5.349708541131993 0.9256472745745671 -1.0616853712794685 -1.250544468440143
P 8.633277463183209 7.597313286355216 4.133105805323917 -0.6961683470100011 -0.14536708741531093 0.8450480755642609
P 2.9740107656905734 2.885161706833252 13.202240334389064 -0.38612647298970276 -0.4330177382246026 -0.6103323250807875
P 6.105373380483783 2.6202363342810853 13.0152463309064 1.3310770758785724 0.943278100282453 -0.22079862618174875
P 3.885243469723223 7.433455791582255 5.020428879298789 -0.02747249438865591 -0.9391018574175762 1.2185581453415335
P 1.4698981148750918 0.5000749761885835 10.030702132403153 -0.4025236834008036 -0.10669898142115171 0.5759435631882726
Ni 1.2828193352732107 5.4908110197317255 9.189005197198881 -0.1355621855097472 -0.6777805885314327 -0.8470627920014445
Ni 2.1843580743693427 4.464771177729426 11.53798467289369 -0.578529578747894 -0.44479441914455653 -1.268565330497596
Ni 8.246735218737355 5.741610110679633 2.711329195858979 0.851177071280134 1.0401575245100216 0.5788921042936352
Ni 7.683941579480883 7.288709782815317 10.783925050929678 -1.5984581778055502 1.2016238314800403 -1.946099093125545
Ni 7.882179476514439 5.110691487796093 9.598463716740387 -0.10332132319817044 -1.0170083400870678 1.2385775258862541
Ni 1.5578164793801434 7.224372080166302 5.283353719733353 -0.8580743126205996 -3.5287005064044967 -0.5369000761325656
Ni 3.7842953842863887 8.342891610479333 8.048818918069088 -2.037652991375142 -0.19729925750822794 -2.010803475282466
Ni 4.176440224436998 7.830853065206072 3.0128400712509324 -1.8220683052941653 -0.20849229801056993 -1.4626923609254292
Ni 6.1687988183716636 7.278573507691583 3.8221009260592504 1.365171703569436 0.16728291365179576 1.6877808727317836
Ni 1.9181149860510902 2.387691753351468 1.6608572448902508 -0.20624849628171577 -0.1270338363237619 -0.2692924600170782
Ni 8.399792973105756 8.423364420166221 2.0232604108687076 0.2723407599250987 -0.09551648244177098 0.16343808598440884
Ni 3.352167546170428 4.022331983373957 9.331088130046947 -1.8315729023504908 -1.3205967451725387 1.9845021183837757
Ni 4.862251384513346 4.178292398345971 5.6630060615337365 0.03231362453104112 -0.18898585254652614 -0.6971967882745155
Ni 0.24955970094414115 7.6414890163035665 8.893388105051603 -0.16358669574713117 0.8365778333097206 -0.31778937917620104
Ni 8.939706274969287 2.953876437376609 0.34432834447372396 -0.45625896814073036 0.13036135803509807 -0.28611441667042337
Ni 1.8112786462469224 3.037132115324742 4.103705078587745 1.5185560048622684 -2.0992265412125652 -0.7119790887900126
Ni 2.6618779954485023 1.6222831891670983 8.635196905099821 -0.030843467743417848 -1.8402814858680823 1.1451577780725117
Ni 2.472532376137131 -0.11063744297556839 5.583461181760447 1.482830526436201 2.1933188896133 1.3233663374978757
Ni 1.325161320903722 4.657194538760185 0.24981863669957474 -2.079350114003612 0.6326425585422137 -1.2225793506857847
Ni 0.026146060941896285 6.121351835997016 11.828813757264342 2.2466834212773694 -0.08876759375371165 0.9796314421005063
Ni 4.6414925271139635 3.5169833796823604 11.656142310531514 0.642408379679726 0.1762882024741996 -0.37809588937574234
Ni 2.567297333748487 4.659829970292356 1.9900963616229599 0.03373852990302577 -0.23677006190934063 2.176977215030483
Ni 6.3267772735728585 0.5014664103192054 10.847488710751065 0.12289230335156257 -0.9795234557677324 0.8029267209141785
Ni 3.0321653405141116 0.9620430867892634 3.672923522104128 -0.05265722118439964 0.1478659425777647 -1.2654049304917432
P 3.6958057024561817 2.3611070681405812 5.247033603005897 -0.6888715562382716 0.2006892570263834 -0.09804207707710211
P 1.594141203505383 9.050772205938722 2.3002120131154076 -0.7280091456696817 -0.5119405779737506 -0.3424370025215522
P 0.38669705301137985 3.840533281631984 10.228754812045812 -0.2518264420218308 0.8929140460076043 2.0727359511212042
P 7.379678244653056 7.871665394772456 8.403669637600805 -0.6012406471921645 2.080449003494746 -0.18494973480393953
P 0.9401026585441605 5.466318093114555 6.956483229359776 0.16619250880109443 0.04376326112887947 -1.2391123153438015
P 8.193086678946095 5.646172472991883 0.43135748120655665 -0.2586059268375095 0.2226287374119521 -0.6982051749343717
P 1.709141852181941 -0.5289080715178264 7.532639243668002 0.2965860056257085 0.47850878067786623 0.9597357316178439
P 5.034752357528183 8.117470066523031 0.55313745498178 -0.15510154109425545 0.48735414688363804 0.05576645623734267
