# total energy = -340866.290252943 ev
CRYSTAL
PRIMVEC
9.25818694582288 0.00000000000000 0.00000000000000

0.00000000000000 9.25818694582288 0.00000000000000

0.00000000000000 0.00000000000000 13.55029242708885

PRIMCOORD
 96 1
Ni 8.845919970881843 6.065186460741027 4.861221266073084 0.5086989311080014 -0.5116513288681058 -0.6866017863674885
Ni 6.494127524480262 3.801633795015422 8.850184291832356 -0.22863997660303848 -0.3694006755945896 0.26640048318126375
Ni 6.785852998103176 5.954245605443553 10.497655530090489 -1.8196738369200598 -1.503232744241637 -0.002779876737982309
Ni 6.493155414841087 3.423686825491199 -0.012003239497052036 1.2428658688489627 -0.9994623607835045 -0.7079589118870259
Ni 4.386260532015303 6.6630061142725685 7.33381083369467 -0.6155604062489464 -0.415631167317039 -1.4782341653147704
Ni 0.9639439182059883 4.173266680978528 9.101473707740405 2.893006819740785 1.9529683094415529 0.4546594848640944
Ni 5.745677167811784 0.4632417209028507 1.0478045764121566 0.1956054147455728 0.13127744209146425 -1.6852074555776526
Ni 3.103048033743106 2.5701653041084582 10.126932723913391 -2.1058147359530444 0.14619189730945148 1.6282613772099117
Ni 3.256409902056771 1.0187986764165808 4.078976675072067 0.164380138182704 -0.846900041171335 0.5461275082681046
Ni 1.8612751806608856 3.030963789451515 6.763710192160177 -0.9925327235432068 -0.16852912735407102 -0.23289180990085695
Ni 1.798078795927467 6.003378804063573 6.764617494490074 0.5606439567167248 -0.7433591457631908 -2.2233054086730615
Ni 6.086674712860316 7.66345506397634 8.56623754696025 0.9051159873904346 -0.9744468125757735 -0.6906299336902751
Ni 1.4585533026182582 8.484202603238323 4.587858480624834 2.951568322224762 1.2994928733143878 0.6836419324082161
Ni 4.249961502415919 6.14573268798696 3.24804605588505 -0.6133477148683436 -0.22699164236633812 0.4840999016123986
Ni 1.8048743052146528 5.394338227839838 1.8337339258550003 2.2963026269663938 -1.0429407436821134 1.0505941464623132
Ni 7.67244476359195 2.394796725201277 4.620311203655313 0.5615548985667683 1.2752908221468875 -1.4215973906573325
Ni 5.288609731845751 8.195189778418058 5.639536682494428 0.2740765116692828 0.41477961795002105 -0.4460200640215415
Ni 2.237259414532679 6.624843867294668 10.91514051318672 -0.4733874002909009 0.60232745249844 -1.167904327740408
Ni 7.5323776518673835 1.052433669932038 9.016798329074739 -0.7984614860539732 1.122390916689641 -1.5866789257824352
Ni 6.179034386768986 5.808929101667442 1.7108324187208575 -0.7437404403620094 -0.4093597324860305 -1.4648142923644387
Ni 2.468241922987713 5.935516293062113 13.252077272664298 2.103041286972965 -0.9342974940503973 -0.49315686960834426
Ni 6.551028342026642 6.298326126776325 3.9856967373716436 -0.004104766196992931 -0.7593570638533439 2.1164727298875223
Ni 0.5261853571300837 1.15018160869785 7.680292002926852 0.9452053992121529 -0.50792065818108 1.6425232864455648
Ni 4.70478845711833 3.0356947230288336 11.742534504924548 0.7510148625362356 -0.3753874893056438 0.00545742357014544
P 7.629764521338645 4.410285527383486 3.1365811872011253 -0.1028063312349649 -0.34589025117747524 0.5497118831852532
P 5.057590190642558 2.317620478037817 9.43223632701648 0.9765471467482277 -0.7600726018631297 0.8564357485759122
P 0.4408665344651528 5.056442175449628 0.23951485363087882 0.4280071723838887 -1.7921830876989584 -0.346947488797396
P 3.417474581987519 7.333030368527218 1.3967502750343237 -0.9046475323944484 0.05145163091207268 0.01481572485659384
P 6.592375405346221 4.104422802150854 11.437923486579692 0.5331912598224107 -0.5280243709094906 0.5091172495923425
P 0.9464922356360361 6.667431527677575 8.38473171586441 -1.9101931232575553 0.8063288046171919 2.801227949964576
P 9.501492195167422 7.596157302384307 3.378724440132593 -2.629352274735775 -1.8846679824032575 -2.8291187628375725
P 5.643855626748477 7.406170046141342 -0.1239745310120512 0.7030835860725956 -1.274871989441914 1.8619718263573224
Ni 4.968461624010765 5.317393435352373 12.755147786579865 1.0464112187292174 -0.09538587040117766 -0.34888378658816044
Ni 0.9636198816595966 7.307505546858592 1.0437041253722459 -0.23020320732510033 2.9613590830629386 2.424696833972792
Ni 8.710602309108674 8.24028640748874 8.6447617861567 -1.0455038764235993 0.06413205459321858 0.08421057051064851
Ni 1.9207682905783994 6.031856987397882 4.051334506027448 -0.4445637911909892 0.09218279008284769 1.1147753091259123
Ni 4.784038538178697 8.401202956426852 2.8544101626032448 -0.32758502511038423 0.3185385986373998 0.41360153848152
Ni 7.427852720188466 2.464233127999496 2.069427925694569 -1.6949743051564294 0.6542801914166474 0.6895791238282576
Ni 1.7611108550776957 1.1900103293429083 0.3172030785376376 0.9358334710789497 0.09492718559720426 -2.5548090521115614
Ni 8.229722816076372 0.6655895826626032 11.027377514669762 -1.8602178197806931 -1.442069542468755 0.13396141668153058
Ni 7.741075704117709 5.565235102406813 13.214976939739858 -1.4903756857733106 -0.04087334117559412 -0.8836490757659105
Ni 2.687281370161453 0.4283003971960832 6.4585029465699595 0.6394850353853438 0.25275486737337116 -0.1350003994690062
Ni 7.613470112148663 4.347450211944619 6.311916219531993 3.6118399553381533 -0.026304699332799854 -1.3348524837606042
Ni 3.4158451410685204 4.785890175586649 5.597205473892521 1.3086372588178172 -1.038012967363193 -0.5201187429091688
Ni 7.628551698836437 8.915152693565187 4.8350696651418685 0.07247785545475259 0.3351736360909195 -0.07979830037556579
Ni 5.65227131876762 4.037088007810661 3.8695703715131993 -0.4264740235688139 -0.008435789472179019 -0.3465656799779451
Ni 5.187982496910573 1.4310009379879252 7.44635983608095 -0.32715822198561073 -0.769464841711307 1.0704163233945632
Ni 6.062473811938377 8.960527068247062 12.058974708850108 0.7238506434166179 0.05273512561018659 0.5347727453769178
Ni 2.616632144861026 8.119393001123523 8.257738090058693 -1.6625138706348788 0.5938209576893257 -0.4639691923007945
Ni 7.1734377403357925 7.847202302154506 2.607916487581793 0.7121174141400897 2.4434615161748043 -0.19191459615754689
Ni 7.785977911260558 1.8841243862750194 6.861962702119656 -1.163187896101345 0.32400502106860973 -0.9688122399978154
Ni 4.366133233390859 5.808114381207943 9.336842745214879 0.4539154076092182 -1.334716215293056 2.075040430884665
Ni 9.36558200942371 2.573396411385335 12.981641000139316 -1.0385253882232373 1.1310933295596457 0.14179042580764611
Ni 0.5386098441374451 4.535456216161075 11.538345189762587 1.356696061998257 1.459886516045518 1.021629640909163
Ni 2.3252121914104222 8.212113744326743 12.863590783014011 -0.44957641391423214 1.1667424462218228 0.9065334365632516
Ni 4.7277209864158225 2.167026807649041 2.589528802302121 0.5715384921420416 -0.5905101481485379 0.05765338884741039
P 6.980524896988262 9.05765470848121 7.00281861138001 -0.10517328880524467 0.5672200672723456 -0.03167059163040352
P 3.9612449395809275 7.850785220538895 9.789192209065448 0.630559707871256 0.5608653286989115 0.277414060682948
P 3.480124733685591 4.157916606866601 3.0260513954082175 0.7942705879010773 0.6102197107623233 0.2840043123059561
P 6.184098615079736 5.436425946122599 7.397240524741491 -1.3955266617122095 1.3122581433998564 0.72462685946101
P 3.4831706772216733 7.038777409842448 5.452203748475762 -1.170679833603016 0.2985711543765374 -1.5587269206541994
P 0.916950286610858 1.4987801253060262 3.387451207236273 0.44405496987537074 -0.6771784361710594 -3.4628805225858943
P 1.350630616295747 1.553042359546074 11.36626974798545 0.07122444266362572 -0.2382556453159316 0.08869765974772466
P 3.758351770604533 2.363429987510562 5.748861058334759 0.2584786572310258 0.4831424227951356 0.6689609333572738
Ni 2.4808886064840285 0.13435203286492098 2.050918032345972 -0.08192228869710408 -1.6517491759192071 1.0801358646751722
Ni 0.5705255923196182 1.4276494742795311 5.352568991191246 -0.8071075917647454 -0.4777392495016933 1.0876532560981396
Ni 8.88764661987005 1.0639323382354229 1.2365262384867866 0.9063891976759035 -1.2928686831296508 1.0608176239625344
Ni 8.166406074911437 5.4744585784819435 8.385097414252481 0.8443821598454877 -0.11418423405460335 0.181589560082455
Ni 8.865519552845019 2.7449135844839745 10.640597308890902 -0.9840907634234407 0.26809689704708023 -1.5260016625070363
Ni 5.647021926716075 1.4428051264636224 5.207283039432366 0.09118648760784942 -0.8761797639720588 -1.656189471078748
Ni 2.7001224755856037 3.409271828270289 12.934458501528576 -1.637955207458908 0.8413063491336413 -0.6732927279634082
Ni 7.682591736587529 7.010734361299007 6.623098699037673 -2.145151328769138 -0.5912966486055752 -0.1861499257596278
Ni 0.4587515001885659 6.79199117611054 12.505470221035438 -1.8017565903200068 1.1129842786637607 -1.6619726534194281
Ni 2.122985611900891 3.037333422134872 4.321757817090574 -0.47823830062529893 1.6906291408138563 0.020834420246847986
Ni 3.8056055572554803 0.4439624722112494 11.896818488667375 -0.22068369787043932 1.0662138552774412 -1.4677656616832786
Ni 4.128401506583838 7.338529731628838 11.870028998649117 1.8475265974662698 -0.07879299903950301 -0.13094525556302608
Ni 0.9349472763974523 -0.6682327950624554 10.427288679494774 1.0257151238324462 0.8789347010093767 0.19423784497408483
Ni 5.477143452723475 0.14781065936462368 9.866767484090321 -0.8108341486867132 1.737160451606176 0.23783115618400333
Ni 0.2197393661139462 9.281239925491475 12.593628529665464 1.2780560435968507 -1.3295701523157426 2.2676214569816175
Ni 8.994856425790502 6.448299498633438 10.338317502042656 1.2619830492943878 0.2768471324358845 -0.2391907555356913
Ni 8.526123674154366 5.933062873496577 1.958979605947611 0.7851945937417381 0.18136561699710702 0.6290836375463617
Ni 0.2550436107526724 8.235481408415104 6.4246003914490535 1.2864378399026424 0.6346968699680811 0.6792355758104045
Ni 2.4926002130893283 2.7358498193720466 1.8271078413906425 -0.23185102734116847 -0.5941035219267511 0.22627019081928126
Ni 3.4674317592540773 3.754454073860793 8.044374837359031 2.0274377414050373 0.7737315874074611 1.0629567817927241
Ni 0.4424126517007931 3.613053783202501 2.4065999878582702 -2.2077864871018558 -0.5652827410403167 0.3030682709159425
Ni 7.894567187049931 8.15066715694384 0.44829622956456217 -0.8198489505908139 -0.48117732864896484 -1.1165167172970514
Ni 5.614331268278675 3.651049382813686 6.200410614825094 -2.4813261524310617 -0.9549138847491684 0.7323838776986096
Ni 4.493220366885678 3.82199254831586 0.9626561043887574 -0.6304278102790821 0.5161343043401241 0.3133945925426151
P 2.7102601903941435 1.5085289962588961 8.388864570558962 -0.7512285212089385 -1.1192297453528401 -1.6758021031033528
P 7.424529031041191 1.030612123079318 13.11677812726521 0.5111851878649648 1.019077821021587 0.7368784231348535
P 7.261316451717218 7.927600398407804 10.468698698486222 0.8566681763016925 2.303917206088858 -0.22275600701843576
P 6.287651437119479 0.755863387031215 3.1387624160676935 1.19643303130772 -0.33282236224992356 1.1258909594230997
P 3.880689454147954 1.7306791942779962 -0.014161322896020668 1.1786695366767121 0.22124214147707058 1.9344414542819586
P 0.5154162339654321 4.08973931750579 5.473315192382532 -0.6405132195395421 0.7960950427043257 -0.27215409783558936
P 2.752690461597375 4.715213175725103 10.435039633684463 0.3330846147723748 -1.8319364563374967 0.062374962692795806
P 8.680096582812658 3.178030090578142 8.422346803988262 -2.550426349662833 -1.9706711260379546 -0.9463479974570284
