# total energy = -381168.6808142403 ev
CRYSTAL
PRIMVEC
9.21014576024995 0.00000000000000 0.00000000000000
0.00000000000000 9.21014576024995 0.00000000000000
0.00000000000000 0.00000000000000 13.47997929592366
PRIMCOORD
 96 1
Ni 3.8370940554944 2.559048189251432 1.303056016855751 0.04248799396088166 0.6192301417910496 -0.720317947673011
Ni 6.2864494096148285 1.481055897473664 1.5874966301626228 -0.7217238268816022 -1.5718811986479704 -0.6535618251933841
Ni 4.814972063655542 7.102284114560615 11.892401679065484 -0.10561500432835359 -0.18505874957797808 -1.2602156729813199
Ni 1.152861566066595 1.2204179846800218 10.831244612588804 1.0199303988298691 0.442283994017877 -0.8373491642581062
Ni 8.98867852371484 7.488953660933825 13.466755431332896 1.0782311914532914 0.8743907903924361 0.4350951895789217
Ni 3.6465269310867092 7.377078021275026 8.951650053995218 1.5077751121966807 -0.6728492126680864 -0.6765680562805703
Ni 6.277027430577127 4.940902385632555 11.283093438973653 0.7161651018469021 0.45803071532917244 2.2195909359359516
Ni 4.189317656998597 6.430993436025069 3.573947299015646 -0.0675063703820902 0.16624290242305562 0.7309623147607346
Ni 3.770329709410047 3.0829304860681095 9.08857913195153 0.1253381937888938 0.7448910090266849 -0.2846504305303872
Ni 2.2338563653382932 3.700203660149975 12.981678241338843 1.6623218092287306 -0.5151783681847579 -1.151519201514165
Ni 8.18016588459014 5.495813663268406 9.835154462346381 0.4252388656101322 0.27463264128306897 0.10818302216584594
Ni 4.809335454495159 3.505224875958257 12.64635065209727 0.05366226541014629 0.5124591694813819 0.3555095194347942
Ni 8.626977682298822 3.9901114159365916 5.06189422749225 -0.24399537601318627 1.0471306133937452 -1.093770167629155
Ni 0.2820183449912167 2.3132017704309544 12.80649206022828 2.380331420483539 -0.971202851717179 -0.40351124412505346
Ni 4.363039424944944 4.773655350104099 6.951638366632801 2.456567971649776 1.9541546164401702 2.003656065604407
Ni 3.1924483284310625 1.3339882911452114 5.138675528025678 -1.962625887135975 -1.2075756781881009 0.9206572775591434
Ni 6.480829534336897 2.476746327393275 10.222555294287131 -1.179723431862523 -1.559529876171469 1.4267403683108524
Ni 2.8214544500169594 4.384849049931528 2.8384121702556833 0.5486690437430357 -0.49005509075456893 -0.9739297637300387
Ni 2.0217743406059987 7.937782480547938 6.827070225202882 0.0984447118321595 0.14180585242661384 -0.2803566882510397
Ni 8.924050931429848 6.574469085535631 5.7621388410237095 -0.2449063178632298 1.0620499537077386 -0.7928796210908216
Ni 4.68288936435968 1.9818575691989653 3.293415471538295 0.9157922361573584 0.09546300349601625 1.203526704929708
Ni 0.14730983316001806 1.5355523295030638 8.489098117307622 1.068383095014618 -4.160176555442435 2.91859726661538
Ni 1.8175762005816924 6.565065526789303 10.625149182552995 0.5573861119010594 -1.2145670219042695 -1.7742828103797703
Ni 7.308057189497382 7.318059407713357 11.890892136187402 -1.4715930058491689 -0.05806733645637741 0.020558283767325884
P 3.4673067061652816 2.7763892071709475 11.14707984949862 -0.954499422919569 -0.06869319160133977 0.8317472446902966
Ni 0.5862128787673563 6.401207824873628 8.058237370914087 -0.913180252455808 0.615078067295889 1.8639202083329447
P 2.739207849032924 1.2185575352512676 3.0624351488710464 -1.8849600597223792 0.558970939889676 -0.6843759823607634
Ni 2.015096984982995 8.130652141377356 4.301744063369473 1.1533575402744844 -0.371174993886193 -0.8042179289217762
P 6.443233719642962 3.882094827320604 5.444186191620476 0.6975328314576955 0.820694843530877 -1.4845475091273077
P 8.07852271678949 3.9190735622535153 12.53168986438275 -0.8790270036128667 2.577493895303587 0.8365894032739464
P 0.8687110723488606 9.201552620976209 12.533725306579555 1.2656774674268396 0.6885259999733948 2.225493674573632
Ni 1.7106187787196987 4.069539712340435 10.570002514238102 0.7255290595603053 0.023338160505308195 0.6036382008900636
Ni 3.506772180433657 6.9989278596622 1.4210867968771073 -0.22350265537647315 -1.8051252496819232 -0.43644219052511934
Ni 6.189024488538778 7.900859006489148 1.3363700348198444 0.8065697169834045 1.3226155753747801 0.2810339168237225
Ni 7.239248191070537 8.581765077121819 5.161389589318715 -0.11044764983030655 0.27929919352080285 0.4277233225948827
Ni 2.2476623737229593 8.861246947990864 1.0897149652080569 -3.7933508396638733 1.0074662049245875 -0.21370109590501907
Ni 0.1958528270174042 2.843485118500029 6.872093101378734 1.1061037494938433 -0.05160821109459499 -4.038987093714592
Ni 7.230507762813666 1.8580547908756273 12.608498795353238 -0.8297073314421323 1.9817867763351416 -1.7183633735043307
Ni 6.078088283740042 4.338991734556442 9.218472579617616 -0.7418056852331418 1.6994307982658863 -3.351792153847795
Ni 2.8893700643121756 1.3275872398928146 12.902752818889507 -1.3483152941337295 0.47593870595784493 -1.1798782122728324
Ni 1.0584391524844747 4.96969330104981 0.8115363299537098 0.3926020534117174 1.4854121711204482 1.3411668560144063
Ni 8.0400519382553 5.598681780445415 0.758000516119454 -0.792876278656712 -0.19598748067533986 -2.048708992078988
Ni 3.173908305163329 0.7153971452155511 9.086705788318813 -0.588337051756619 1.756935320240258 1.0184725833374202
Ni 5.553856001387262 9.020527207500148 10.011620853707425 0.8259548063782356 -1.17043583591301 -1.282416120337759
Ni 0.4472851991969878 0.5592557033563625 3.035314032866826 -1.2249139123562323 -1.9502699366737832 -0.6933954122505542
Ni 2.186470165779182 7.246082119170217 12.711916758227758 0.47325807380188817 -0.017529010022698847 0.7995752879434423
Ni 8.56576705406367 0.5174840086079868 0.7328080046220707 -0.28758920144373695 -0.5082721279832279 0.5168246455389292
Ni 1.086447205518344 2.268661505889096 4.314267098459954 -0.0033159517471104184 1.8344175708881376 0.29909308831827847
Ni 1.3151811736525576 5.714876978431372 4.036188853793594 -1.6463460026257646 0.05377102307386869 -0.6413791670842631
Ni 0.03715372770096303 8.21171063356778 10.949854710773867 1.269137400950982 -2.0679871235823097 0.49191014168543673
Ni 1.3742642582340345 2.052020459041785 1.4207358903264362 0.341990659012753 0.9905421754757392 0.24279235684402053
Ni 6.550937163305595 7.210015188660309 7.375395327658029 -0.9833184040337904 -0.14255481477749643 -0.09105047625061738
Ni 8.700760159396594 3.062502382934561 10.758452226152373 -0.310309268749072 -0.021031109638686363 -1.3739689901460919
Ni 2.9153058345664915 5.817385899926592 5.629158152523375 0.8096193024430056 1.8802220308167619 -0.4869455985913098
Ni 4.546459476299599 8.48323493856334 4.858157515766857 -0.4941066351161232 -2.1566156206549953 -0.7452756460596133
Ni 0.3664339352845178 3.7895328631672376 8.763105477580373 1.3700987085574081 2.9291974107287295 0.680172485802377
P 7.302595573105049 9.191476721594737 3.097605011191051 -0.09429392288857953 1.106043071459237 -0.41654365182897934
Ni 0.4065082001827975 0.10208341276448536 5.423710195729355 0.2897640976078687 1.1586771527151853 -0.08211614987546503
P 1.28907041063019 7.24292303919961 2.377005975691538 1.492681965308984 0.05805473805088712 -0.040372747390091765
Ni 8.833469148599166 8.421176976924993 7.288274717576485 -0.4238617827569474 0.24482995609933966 1.2584125583343102
P 3.6056154639454903 5.099814239314363 0.5442081673331018 -0.32052426160886094 -1.9836510832373901 -0.37873300873910903
P 6.538420575317096 0.07346841112984927 12.99703155419891 -1.3522727361195808 -3.483286339935756 0.4375819605565173
P 5.8409730830307485 5.985600000752172 2.2483660288534386 0.9401644943541357 -0.5095147421410773 1.4265418791468012
Ni 8.126664148294926 2.8615093736092967 1.0191348557656201 3.5086158198394797 0.039968569973137615 2.6121940177889336
Ni 5.3984900537949105 1.1394608040921526 5.321531918464295 3.621481592192976 2.0715743267129354 0.3726744612498549
Ni 4.024198165123816 8.954775977441354 2.394637878594543 2.382799679518374 0.13621575993334603 1.7386033547002897
Ni 4.244071973107229 8.813326559981912 0.030272827858278475 2.066722655047589 -0.21992290844501478 -0.989424002710896
Ni 2.5893864091440872 5.046763800157808 8.35911072615553 -0.7402098015009315 1.651463526357988 1.176070665601284
Ni 6.830557186359943 0.4459884106842719 7.634561459170905 -0.4525617217948012 0.3391097379205321 0.04346809848596384
Ni 3.338383086840026 8.747345076280945 11.011997405752533 -1.0998389995310542 -0.4395439693788946 1.3566793498277088
Ni 5.348147397470304 4.209211571682306 3.46713171339723 0.2826827652810551 0.45104348537806194 0.5340767477511577
Ni 5.741945596605177 5.865582592306151 0.15291144376679192 -1.279096826156539 0.19434994507191689 -1.5893886114041142
Ni 4.005105533114868 5.1995232765207655 10.14863190196035 0.33517209342902277 0.635566417057228 1.21240061038057
Ni 0.21909462965830165 5.6327961600697 12.056115702708443 -0.3459069633480236 -0.8415809429512666 -0.2716517042778741
Ni 6.359449024329214 3.899004654801756 1.0826526254953404 -3.3168333783844233 0.18388658364674781 1.1937125470527636
Ni 4.175428757302749 0.4098128004552579 7.173600114643436 0.1948222567226451 -1.0212506603031895 -1.7862340692043754
Ni 5.635218428385356 2.8468284013843745 7.026439485843546 -0.6272486412201519 -0.4916399187431856 0.19377941728042755
Ni 1.6398756496986036 8.355471797594635 9.267229248854939 -2.510044089191045 0.41876868450475624 -0.8623973654759858
Ni 8.003994217891076 5.047417720501577 2.8624874910812457 -0.7174218570721387 -0.808734328734891 1.8900163911993642
Ni 7.82700284822588 1.7952323871452682 5.785243412493872 -1.2061152915924906 -0.741658103911684 -0.4985582431295737
Ni 8.007788797914081 0.6668808607806569 10.229403958619912 -0.7496251812775606 1.5979298161059061 0.07620132705292684
Ni 2.4086004594558865 3.1497132524438367 7.171537963024138 -0.08419000168535823 -2.7144624742425574 1.2602591246247459
Ni 1.1113698597471011 4.915206079166097 6.577664085074416 -0.7317454727836623 -0.30639399285506586 -1.4844251246168305
Ni 7.2388153142232525 2.492154901127462 3.4744510161746116 0.3554534693858782 -0.1020545406706049 0.39114758035337793
Ni 3.5249530080196014 3.5470481475224798 5.440020442726291 0.9912605416990026 -0.1736152836277268 -4.384507877367791
Ni 5.008762739053649 1.134247861633366 11.68100857323057 -0.4114232998832785 0.9725768492465703 1.144056831698849
Ni 7.753404574041846 5.0686286860185135 7.19152858423756 -0.13846856052326476 -0.6443505910077613 0.13431262937336222
Ni 6.465669634536256 6.2136524181055535 5.192623035372138 -0.40343282547863424 -0.9402228583958968 -0.527775231013162
P 5.767835316131059 6.633911365798896 9.653889585082462 0.3566662587470567 -0.0019458108724611648 0.5260093973619908
Ni 7.73403563766229 7.81591383281885 9.355065487256354 -0.9953984751267759 -1.11171518214335 -0.8438283442245468
P 4.134001522003063 7.4461817443638525 6.653677259457558 0.9496212688916612 -1.7072880895267757 0.3909290365846687
Ni 8.44839295742979 7.396714051879501 2.456551240945605 -0.8711977373764352 0.5708075275132879 0.08823768939217061
P 0.6230617506460828 3.8717242032771524 2.614212356843132 -0.344062196829801 -0.7898881425626655 1.205922201745078
P 5.1588973238958395 1.5816491086660085 8.667006817483236 1.6301956181181474 -1.1770263446463343 1.4302134144611174
P 1.7544590721893525 0.9242841704090591 7.253320372665554 0.5008285272209891 -0.33948511898207984 -0.6233909580369587
Ni 7.649136514720427 2.8027486441268614 8.262890492135327 -2.569717593792278 0.4778919730294737 0.06097396858021111
