# total energy = -340876.0271753544 ev
CRYSTAL
PRIMVEC
9.20054218608944 0.00000000000000 0.00000000000000
0.00000000000000 9.20054218608944 0.00000000000000
0.00000000000000 0.00000000000000 13.46592349439525
PRIMCOORD
 96 1
Ni 2.383768473137649 7.684256025669351 2.614099446315944 0.6596530256927865 0.9104363711620836 0.07579689252565656
Ni 8.112099638073715 1.0646867409451881 2.3283655682988176 0.9025204587491167 -0.7827929262787808 -0.4263963762533431
Ni 6.80264167300041 5.472629696699387 10.719764225189719 -0.5887420005045215 0.3220599815270969 -0.4648834765849478
Ni 8.979259938979565 6.457464932073685 11.5641311029015 -0.3748881810717221 -0.4098852659721974 0.7626622169671768
Ni 2.440038989103954 0.4022863463397476 4.998927821912606 -0.36315700867772294 0.6107933238776061 1.138118354727227
Ni 6.951009616177752 5.885531628605177 8.086852430280528 0.8024644365657793 1.9553496651895357 -0.3982510241673786
Ni 4.812831215422145 1.1406004144634971 9.595319042738197 -0.04778549491439512 0.31309557324495757 1.038454682886302
Ni 6.747318812878535 4.4113471563604 4.512862258545786 2.179016614058015 0.19800399688473638 -1.3913172516165524
Ni 5.468793070610775 4.868126473917485 6.261829203452115 -0.30004336804668974 0.12646690807669833 -0.10028742146785309
Ni 1.2573460941718753 5.113780950094779 3.9760695058754636 -0.19111909683944503 -0.7211072763435259 -1.3577900663933844
Ni 0.36902270614606253 1.0614481500982065 6.2791335831822375 0.7548429780330742 0.4943951128908195 0.40543880016506956
Ni 4.777326323153675 4.23258062182389 12.843676265242687 1.5352625189836722 -0.11832473858553814 -1.122328181772506
Ni 4.36077177600285 1.1164029885329247 13.005361993224023 1.0151247499111098 0.6972366403735153 0.8941137227426602
Ni 0.9867397476053363 5.6675063805911945 6.1275739719230256 -0.6445951029183995 -0.029644819449626367 1.5436517714886318
Ni 3.050531764844336 3.515260350844011 6.685871151828149 -0.8251335960285209 -0.46848893454801893 1.227706130389389
Ni 7.68939912874737 8.593287994031487 11.400789277327958 -0.18066653404755334 -1.5287771683696445 -0.8057623905907607
Ni 4.102604562462218 8.046444569084906 5.596074291168239 -1.497254415171015 -1.6549401720526788 -0.7348511082921797
Ni 3.336466214680964 4.387977779225931 4.525829502692763 0.5106704530120754 -2.0426149633661077 0.4675183431046335
Ni 7.258574540677032 1.2384297794520056 9.738232904511873 1.0090296927569653 0.7242687047906431 -0.33260356137089814
Ni 6.756188135539018 3.700586871954095 8.995788713004004 -0.6777011414437489 -1.8077650012976156 -0.07061329144218806
Ni 3.336116594078164 5.815000272261539 6.513372946678141 -0.6360474704587046 1.4549001185745203 0.4312555041178573
Ni 4.260789484144474 0.3369275348091009 3.606093623559665 1.0408455517159818 0.13688090432117073 -0.28461674907897433
Ni 6.823977730313337 1.6500252343683894 4.242950552913756 -0.9068723079599091 1.51443966870105 0.5004778287497896
Ni 3.1121661969009535 2.4949570253699562 11.569665229022123 -0.06373970425080634 0.04801175199258828 0.09535476005292609
P 5.178994393058998 3.226666944317674 3.86959439140142 -1.4735552717818623 -2.2750262340861203 0.6860453996433862
P 1.9821740075697567 6.876595631034608 11.687008023917915 0.8688873440757036 -0.7152222783176586 -0.2678091906033323
P 0.3210796009059029 8.418753708897281 2.6612034621093863 -0.6472096577231111 0.5312942999100141 -0.5625997948915149
P 6.551154053081677 8.939734409778904 3.4760936427883276 -1.0433922293972353 -1.653200820764069 -0.8003029101380862
P 4.932567071338673 2.682546879856056 7.787558793200102 0.04633410717984923 0.14306337898279875 0.5944259382631762
P 3.6477021555096343 6.323302626020602 4.043386192781785 0.26991415276147707 2.6097296154088414 -0.5145150235691462
P 4.951234971419713 7.025331595899107 7.436166165977294 0.32779148469423547 -0.12299797569149139 0.328562301421989
P 7.504854653722494 0.8897513121719818 7.060331378401956 1.0004915733789672 -0.7083749163785219 0.33711224787452904
Ni 2.8951162063579368 5.891189962045216 9.958494804329552 -1.2044600153772547 -0.5650390004606268 -1.3860632023064645
Ni 0.2969097766018671 0.23384374018220863 8.471332047287184 0.05401913452893277 0.19037270559172373 0.569238126143639
Ni 0.8042985165225632 5.327776360634393 13.3481502734011 0.6740776857585488 -0.5961997423341474 -0.24064805680750814
Ni 0.9280494890459745 3.5112397139118205 1.9229878397869509 0.4295120390641893 -0.0767271176494098 -0.5313794034246526
Ni 8.3409079215214 8.109541887347975 0.6868775170182523 -0.557075522639176 0.792238645072713 0.4302738569308784
Ni 4.829465795681642 9.1203410527512 7.59359572314666 0.16111149473376124 0.5595571514104493 -0.004945002710101161
Ni 3.153881455140199 8.214317661681571 9.070767611436935 -0.8978413081058925 -0.027863816289803625 -0.013370507769635038
Ni 0.580086823947471 1.8374310780109104 11.30885745987614 -0.017437992970789323 1.0630457419621047 -1.6230998876136304
Ni 7.534241185441981 4.085942380576185 12.576566124704138 -0.6980894752921138 1.1771255892283599 -0.21612590329642778
Ni 6.081006347738615 6.754752850959106 4.266799278295747 -1.012572158692585 0.7269231116943544 1.351149678258731
Ni 5.071090434384567 7.545833868587425 2.3716992019073357 0.08940265623454925 -0.0632319113764524 -0.321822154484678
Ni 6.130891687432746 8.94849332593324 5.713335201238636 2.001925713176862 0.5353718124134973 -0.5299223592631519
Ni 4.979186218559287 4.9352536296549205 2.645353688097752 -1.118759490584641 1.219596871018693 -0.8864922016416603
Ni 7.0922287380820705 5.935959800287865 2.1266464411885426 -1.4512339825768426 -0.16945883825719205 -0.5113834199186998
Ni 1.7973903184482294 1.3032015963916368 0.236869798504857 1.3007748253506048 -0.11285780193369598 1.001550610771101
Ni 0.5878115991608963 7.113150770996946 8.191872939036084 1.7936871830483108 -0.7518741252127373 0.8714810729448087
Ni 8.769349569167394 3.0125243251031972 4.972225088346712 0.7783845127984401 0.7730435602015009 -0.5714819278724933
Ni 6.958940483535986 0.8059454135725908 12.937332264298835 0.14764122816146832 0.6188755866651083 1.2891256711474506
Ni 8.432269305358123 9.038980658262966 4.616616772697522 -0.08358116445676574 -0.03326827513482657 -1.1766879874703091
Ni 6.831963800924644 3.2511955897666875 2.3939313920284895 -0.13921675154319893 -0.741923955978561 -1.7431997158217203
Ni 1.026725303914944 1.5896604771324632 3.442402177383322 -0.9446808941672505 -1.6110406424562513 -1.4032481987261833
Ni 8.600160799039145 4.029405048886691 7.515196983185823 0.3870654398642044 -0.24148700776903576 -1.4909762954717871
Ni 2.4927120930782984 5.568664955963004 1.657951501455533 0.29628904321058 0.011958972134089082 0.7406471461486663
Ni 0.9241116569933947 2.5605936932744062 8.57826442870752 0.2530412882655384 0.3711040314389415 0.8830687777824081
P 1.4025214492131308 3.2514900071164132 12.926505066262674 0.603180801637671 1.349480003865792 0.20061880879976418
P 5.551082719859078 9.096272434411132 11.416275629923524 0.350468614576777 0.4111687606703112 0.48506457951851295
P 8.211980723968123 7.217300908462375 9.700729654482139 -0.35636595389781855 0.9316024637167375 0.3603542491216052
P 1.7145670377535474 2.62920213630265 5.022600816938979 1.4472464586840044 0.8284734590350312 1.583563520081905
P 9.233848141612595 0.5387920304858025 12.799400496115046 -1.8975155277898872 -2.55984918563863 0.8166373856320517
P 1.5839653415237087 4.710465983139428 8.20129981455261 0.6196865126021779 0.2518138436163405 -0.2963700329601605
P 3.6071645666692915 0.6829249640981861 1.526496914965708 -0.603999183773908 0.07248376899202356 1.0030061122707048
P 2.292664704481935 0.8761621113737098 10.14010982672466 -0.10672083579802265 0.6385329558847196 -1.4846105011547592
Ni 3.248269817353789 3.4118278556685375 9.413245833342582 -1.0459805589497018 -0.3225554331062767 -1.8514750405910567
Ni 3.422574088933522 8.814533431808094 11.542262334196414 -1.097712954326987 -1.2427419416765886 -0.5137452352826573
Ni 8.332563029765113 6.32759927921816 4.177506176340845 0.8223169525153321 0.20412553640144201 0.6582281203208018
Ni 4.528037632815705 6.491414932713918 11.423829275052421 0.09851850249288839 -0.29130315996021444 1.7670472118632794
Ni 0.1602200816122338 6.140957080576491 2.0162794973728135 1.229779725088966 1.2910938506174152 -0.5706380918149592
Ni 3.593648970208451 7.8649454735212565 0.6023521360204693 -0.19515418614076716 1.6738506358039367 -1.7366596007103574
Ni 3.0069579970849474 1.3720952562274262 8.032598673159844 -0.8930246034435394 -0.35902370323563976 -0.5593077544038045
Ni 3.143613650068519 3.553635812272306 0.7968957602854002 -0.39238505230490484 -1.0169404629636098 -0.4587670792745647
Ni 5.8283594595053385 0.8817891629703402 1.5751355811945944 -0.43236030714626184 -0.907977625208946 1.1086483702925682
Ni 8.412883762987128 7.580289899047499 6.454850137986434 -0.7378523570123485 0.3725297081418745 -0.8119605489816727
Ni 4.90641913046617 5.050711233458248 8.451860019819708 -2.190479620392292 -0.21157582203190015 1.6545113120453763
Ni 7.125405893179274 8.476247896973383 8.408055318451629 0.9775827871015939 0.12622445304858906 -1.9533514038125845
Ni 1.3012602819918837 4.185529049120868 10.914521302033203 -0.46437362682806477 0.2270147822947897 0.10914255786563783
Ni 5.535119779178644 7.805224754237855 9.675481526634734 -1.2604540142443712 -1.106532866611462 0.9137898610153488
Ni 6.0509665775244255 2.48132182186079 11.309853878594117 -0.7955332566635848 1.0617481061966039 0.6350228858489321
Ni 6.952279290998445 2.767532287962785 6.3875472518933805 -1.034582087304773 0.7637515933766137 0.9488514806051723
Ni 3.232150467456313 2.507580169239441 2.927733968490661 -0.09882266399686851 -0.17652808639914758 0.3449070613285995
Ni 8.640569580288982 2.529035833600694 0.22987370623200254 0.5909230673162403 -1.4328621649378743 0.8033339836549261
Ni 5.9551613318152805 7.55083896353276 13.329554137549055 0.5079034317898994 -0.13996957054882347 -0.12159698157890671
Ni 8.95259676774504 5.287689598360816 9.339102344139498 0.18796178215738596 -1.7689719396898178 1.7310278563458767
Ni 1.4173987259164524 7.975600394307186 -0.03659055624558428 -0.7478490632137442 -0.16488407440231603 0.10412350738449165
Ni 1.1606575964135537 7.57540441115049 4.508283148703335 -0.05348717328486272 -0.6203331450472414 0.2679709129921772
Ni 0.7613595861735207 8.553928074590047 10.867161511167186 1.3546633478389445 0.3903240560108181 -0.6871244916401779
Ni 4.7179736255574305 1.9794966497956896 5.723906624202222 -0.6731009236675763 -0.7209193287024358 -0.5197850137188338
P 6.05340472120184 2.6030909975988608 0.3138682159460615 0.4287049697818617 1.2817951989243086 -0.8720647133624205
P 4.628949179434153 4.378712833251753 10.592281512758538 1.2819327529434374 0.8177105640915723 1.4953636259062053
P 1.553410340947499 8.033729419793634 6.506006992609692 0.7020384326375328 1.0225094724109551 0.7789565832518263
P 7.779012409570098 5.503626323300184 6.119346847106631 -0.12944116021367386 -0.4750830428257689 -0.0039109050186319745
P 8.244329830269225 3.3733971909871676 10.550793507911111 -0.08241465495249033 -0.10593690644414659 -0.3119115802391854
P 7.932394648234955 6.083564098464357 13.61930037201041 -0.4528643406368846 -0.5056475458761872 -0.8577961192585485
P 4.264009673907097 5.938848770532046 0.5532598830621618 1.4959120422105077 -0.9076639506232691 0.04468140206777466
P 8.534018101314853 4.328790691388908 3.0781885946341836 0.3407241335955035 0.5215624173342307 0.418768170284124
