# total energy = -340855.2376145426 ev
CRYSTAL
PRIMVEC
9.36150990842604 0.00000000000000 0.00000000000000

0.00000000000000 9.36150990842604 0.00000000000000

0.00000000000000 0.00000000000000 13.70151602690096

PRIMCOORD
 96 1
Ni 7.621570347593777 5.866380847434275 2.9997002072940386 -1.0240032833476622 3.017442042099436 0.7128296097157659
Ni 4.4875895777559345 3.4001659437006375 0.38772565751830035 -1.7912271515435925 2.92853792276786 -1.9222251147214247
Ni 0.4462716045823971 0.6704292156844252 1.3360522321615225 -0.8507142727111027 0.5832249273410343 3.407792580472815
Ni 4.629828359906575 7.16448526287039 12.042070664307028 0.07038472037114975 -1.1534832672190716 -1.047738165070757
Ni 4.541071884089132 4.975333607559179 3.1186428719389614 -0.23709324957671427 0.7801809425772305 0.038507154936262715
Ni 3.446018619426176 3.027240833410201 7.5393959494208085 1.493415501040899 0.3612484788011004 0.2627695712968958
Ni 2.5922582736741546 8.444765363365423 8.138125360413135 -0.9060670384497944 1.0434001998170352 0.3753748909001535
Ni 7.030962046481383 6.683472158719792 12.661831643548636 -0.38792521676133834 0.5030751571633206 0.4007653059488001
Ni 5.216420573251257 2.6972850537813042 2.1852685009847614 1.9887421246070522 1.0415446346655353 3.378870498121826
Ni 3.6706106045897933 6.301971905316944 9.093559193408913 0.34938412326334667 0.08150499865402737 -0.19138777711979943
Ni 0.09653495443327526 1.737486884847744 12.164603468017026 2.0981896153076187 0.26977557030108373 -1.6543315919344026
Ni 6.553993114628342 1.9669187706545022 4.1509843176109396 1.2616955999609563 -2.1520843084435453 0.3413064884615348
Ni 1.272247924959607 7.954456279836413 3.8920936322996638 0.08714599898988862 0.17878294387159532 -0.6536569560103518
Ni 3.7286894123074825 0.6676469749278653 6.746653925510163 0.28997209985361677 1.3144021863260524 -0.5575542620478074
Ni 2.427608036707888 5.074481359418955 1.9512326245855531 -1.0965287042108987 -0.21296935994531707 -2.169802808769231
Ni 2.143252172035933 4.578143463483402 6.428271780630038 -0.7594737919368663 -2.142541916170749 -1.032216415286074
Ni 0.48832257111803357 4.338357747674102 10.650161110738487 -0.7509675542380679 -0.8581385901996318 1.0918896627769905
Ni 5.136426470745187 7.105797957006079 6.933186691979992 0.30930062497889954 1.0707240844429688 -1.2907981737538672
Ni 8.145992773373473 4.291831043232305 4.410024787081384 1.5646090904665895 -2.019825476275418 -0.014154694233827236
Ni 7.928618512379801 8.270978292689861 3.5707654202388883 0.40220640927070084 0.5552646946826824 0.5433468601991738
Ni 7.650825066181428 7.504916572131153 8.27978466509799 -0.19394165388990472 -1.171297926802989 -2.0474910605114864
Ni 9.076564308249228 6.420881804677048 1.0989270574794585 -2.138609156775246 -2.6304905021052765 1.3642581906162312
Ni 1.6163489461200042 7.374903921972663 1.2030598133865693 1.9367397633978323 1.3114096793566319 0.3872487595196041
Ni 5.3139487838900195 4.937887567766987 7.6136177448929105 -0.4666811919153188 -0.9894864805177154 0.5864822579360673
P 5.454689724448972 0.030842430674838644 4.8169190723693065 -1.424857806576159 -0.034067116887038104 -0.5351761514629235
P 7.808538424276191 5.239272019034441 11.153170954814012 -0.19662460003870655 -0.39315072682633584 0.520837109132432
P 2.733635796909574 7.70380185097743 12.741779874655961 -1.1926933617596298 2.370246011223079 0.31204244939009484
P 5.59822975648239 7.129960014181989 9.041918296082498 1.2471097317269813 0.21112202232393318 0.4361894510843649
P 0.44849121859107927 5.984738417707445 7.73919210318503 0.33072485629094656 -0.12175767552648709 1.565414102866388
P 3.685420513327605 5.979055981168979 5.450257985639566 1.7480195058078671 0.056724706385553915 -0.2633179876011981
P 7.072686296319833 2.813629899415644 0.8735786623120387 0.2088964754275241 -0.6249598451859754 -0.5785493762422358
P 4.6081377413569475 4.947829491331814 12.67632794170319 -0.2327596551983669 1.390924387053508 -0.4785566031966661
Ni 4.550761046885362 1.2979639927868947 10.53794562714223 5.427312609692673 -2.243993276039716 1.967594801105476
Ni 9.09281588951904 6.532873548185546 9.970510807755234 0.061492045867210215 0.05927189828743985 -0.8031789461343006
Ni 1.381290792834469 -0.0979719462103006 6.114657452766454 -1.4148474735280083 1.2291063531710251 0.2850453519759607
Ni 5.338316794284788 3.419993621770603 11.434586369211287 0.9858329429255281 -0.12897039122484238 -0.5174296261127799
Ni 2.286361574611741 9.445201846983458 11.327016066851252 -0.4960552742020618 -0.5220455276182364 -1.8810692093084056
Ni 3.48201362517642 7.29411409112101 2.9237118948947387 0.38990213798205103 -0.3287314800100016 0.3068853306691876
Ni 6.9280135215827 4.034155481912285 9.267883614755494 0.41928547624017465 3.1039555497116478 1.1494597478819752
Ni 1.9578193829849997 7.002063065271759 10.84925795970959 0.10704170947255115 0.33281850559518167 -0.6753753215240498
Ni 7.0510518468298935 9.061042924755364 9.805366283063712 -1.6939204099706182 0.3672489193589094 1.60238450944315
Ni 4.6129214729404 2.7778689314141007 5.138301581187781 -1.0547912152627963 0.18606585068625373 0.5582425463640838
Ni 2.789383588650199 3.05597130744076 3.2816642061742676 0.46743272536936276 0.8905386037968921 -1.0873606645583853
Ni 2.4802665301656575 6.5987411321800105 7.09526157755955 -0.659780038188954 -0.12460208695381766 0.9041829340532042
Ni 6.807240681742934 3.185581412671483 6.59382727560828 -0.5924906689136763 -0.20431271271158363 0.02232668852165832
Ni 0.6646756316703549 4.520420393143739 13.033430227879435 -3.1633056095351906 -1.8563645074728738 0.16170593378465054
Ni 7.893587742154205 3.430731273681014 12.50171518585021 -1.0854433929310146 0.16404718032331747 -0.1435148646979206
Ni -0.1461547017619084 0.9324101354295511 9.679066407750616 1.8611004794959627 1.7021487114176814 0.31509949104886376
Ni 1.9971283632568528 4.534986902622901 9.026257426090408 -0.4298599093219113 0.08586558961556824 -2.7158107607403354
Ni 4.191372679979803 6.284859065131913 0.6069085622339356 1.6011475517122555 0.5140241999756567 1.5347102460246278
Ni 7.327544043145489 0.7835246812157971 1.815464518111004 -0.35469370840171816 0.07378654696384711 2.0453249060981036
Ni 2.9181043504358586 0.9823874924381997 4.038385012106814 0.45415143487942433 -2.2875559911220154 0.5192389114073767
Ni 4.034239735501819 8.608779017655221 9.857295514896526 0.8092130681435226 -2.1960087777406376 1.0357311133075517
Ni 2.6142110145023274 1.3336313456889572 8.91820687827004 -0.6568852331396623 -2.770328432172242 -1.9488203487114504
Ni 2.958855003239711 2.406937822742598 10.599273814962888 -2.8605710678095835 5.056519681736247 1.1053882114840574
Ni 0.08926106120364202 6.756847673692592 12.626002336524474 0.24251467770260166 0.04380337033819553 -1.8249661956672507
P 1.8436744921884516 3.0473212722487637 12.060019487330418 -1.4419281317948844 1.0177336482888666 1.9750530571557339
P 2.5531739696410547 9.051494184608355 2.090070370172067 -1.1168941552411282 0.6627563472084586 1.3881619938170224
P 7.165777151243221 7.454785686359356 5.71812261438704 1.729095158099538 1.1858146323619254 0.7663985440811575
P 8.372335360897376 8.225013278844946 0.3315097902802726 -0.3852890646900719 0.9209953776248526 -0.304954689305378
P 4.8809695872828565 0.6772603094935157 8.590700069643551 0.12886960398092 0.20657554060383132 -2.2861526830165855
P 8.510511247730562 2.851600183764926 8.202220810574433 -1.1033896929967901 -1.2502971283160274 0.8808913105151152
P 5.922774583361316 8.907411184997951 12.006227315017941 0.8605955363805566 1.2231791890533128 -3.568126830720919
P 3.3529371260127356 1.7437871810427803 1.4532377413891966 -0.9470648210183948 1.1629883784960293 0.26692987332217255
Ni 9.046223654507605 4.248730651431492 6.82965775346453 1.5332658002686175 0.14438595444896424 -1.162829484320662
Ni 3.150166820538018 4.946331649740126 10.882702890149986 0.6265032784136952 -0.7476526309322221 3.0343789270640897
Ni 6.177182977709466 0.8055916324653356 6.647043715058954 -0.09021409639225109 -0.12652578633909178 0.3274814096529844
Ni 5.258491198957785 1.5521664339161878 13.249489196725406 1.529082358314889 -1.3912275201162234 -0.7644211086398125
Ni 1.3864770693456878 2.6549054982464915 0.5095881771160192 0.5529211341511704 0.4617798979589596 1.0513644489694345
Ni 6.581918498803369 4.7599065406347005 1.5608080437492307 -1.6174966824942403 -0.8429238301324062 -1.804380143985783
Ni 2.202557337556816 5.80828331669669 13.320271573442598 2.2035454524373144 -0.2249591853173416 -0.7171650038663262
Ni 5.794437643483526 7.115749242080852 4.158451057945503 -1.7077411179037945 -0.04088105448507798 -0.3979129241016695
Ni 8.925123161819657 8.659771162342238 11.294502606650687 -0.10261452693913295 -0.08461011994191234 0.05029694848233919
Ni 0.917438272569638 9.113167812146095 13.215153050537957 0.5613250419441494 -1.7151980884024718 -1.5700909395167668
Ni 4.911263433474739 0.5614453253222358 2.3901339123858523 -0.33677311936755544 -3.142735498693323 0.8602504943363121
Ni 2.2571536635738316 5.308743784358905 4.103535504439258 -1.279150819322926 0.343560317492718 0.9088286603553316
Ni 7.3799684988545575 5.3858358187810795 6.085076017481617 -2.5064409452208185 2.682813222768392 1.02880173317757
Ni 8.672156440003507 1.9488697794746659 5.684265777508931 -0.5769673764670966 -1.1271063198874394 1.0187106674901552
Ni 5.554455335965319 8.624412739268463 0.22709431677273062 0.3963124123837691 0.2588933761709412 0.8175444708273533
Ni 1.1010352695197587 2.5000380391759345 7.620317777562729 0.45476181476991356 -0.7934280373951239 -0.3681794015929788
Ni 8.297677319061693 0.5002912615866127 7.752441448214503 0.6155686337790625 -0.4863727568069752 -1.9198072493085518
Ni 0.39776494078658686 6.756005137797268 5.756883946326933 -0.9832014188399519 -0.09718358573154877 -0.4494267757102453
Ni 6.627705643959271 1.9897702164376871 8.822036086573743 -1.1835330354166003 -2.3775643992613635 0.3639864465575538
Ni 3.237884168751227 8.16720595491575 5.616388277328619 1.4084816792109807 -0.8710671253358417 -2.614880049261529
Ni 7.810607317974709 0.9444452926187615 13.372131530101798 -1.4601089164689691 -0.7449403742073816 -1.2842824841225364
Ni 0.5740159608804745 2.9384749960828103 4.159656820426811 2.2808598100487623 0.2928900448313601 -0.8446063600411517
Ni 2.870781917648476 1.2122968152523084 13.143659199064716 0.7413559992902329 0.6741054536726906 -0.31934309681656614
Ni 9.080533588467201 3.760836837469079 1.8601722811698964 -0.23066034946717695 0.2517855614815664 -0.09495341084944937
P 6.144970021978232 3.993882266115784 4.041974215020896 -0.8926795613992949 0.9318649733495049 -0.039345334566841916
P 2.1978859440927403 2.213594557785565 5.716327076779004 0.12341732261709712 -0.052273869703051916 -0.384333385645022
P 0.28371834584449324 5.638783817577334 3.115258686092742 2.019732145230664 0.06183451680829351 0.20017426506317784
P 5.451797017875025 7.718124961197944 1.9963382518172377 0.3729431415302093 -1.8755732191908407 2.7132831092224756
P 7.565991063032217 1.6913159177839718 10.843173914394354 -0.41987297331252854 0.37808380519088436 1.6373764521373024
P 4.410197975015422 3.9465411103085053 9.468583154229703 0.29291447031139234 0.0008402365131082303 -1.3895352200154651
P 0.6732030310820317 8.348323087880633 9.162929854425938 -0.1932788234949252 0.43735158971326615 0.32260017030128313
P 8.642237054209545 1.299003120391128 3.564065387569071 0.043598196305924916 -1.0192806810610122 -0.5325505409146183
