# total energy = -340861.1515670489 ev
CRYSTAL
PRIMVEC
9.36311308931501 0.00000000000000 0.00000000000000

0.00000000000000 9.36311308931501 0.00000000000000

0.00000000000000 0.00000000000000 13.70386244418876

PRIMCOORD
 96 1
Ni 5.952954777297369 0.5013797108417121 2.641981119257833 -0.0920228674662157 -0.9632144341950637 -0.4147629057794728
Ni 6.858096257281441 5.254138851542889 9.673748138477565 -0.06661008382006593 0.6765120062316543 -0.05324291848454057
Ni 4.7191774002401194 9.167479946429498 4.771081816190009 -0.6719135882276944 0.4258453888458795 -0.40803998523334245
Ni 5.577156880920577 7.11706123181775 10.681721877693684 -0.43216207509252663 1.080244108118262 -0.16010285096358878
Ni 7.364659387383523 2.4636503360661344 9.593608319490157 -1.1399543794947014 0.21186789935102224 -0.8865387386088796
Ni 8.671178787984505 3.5267756187601336 0.6417477530811554 -0.4295524053838215 1.673997445794446 -1.6853069572699944
Ni 6.028402740447762 3.7994762798119086 0.32591591279727744 0.28332656951264107 0.6999702372545945 -0.16601176024885603
Ni 7.551004058842834 6.818359206448695 5.927728678722066 1.7781062978909183 2.312002039979521 -0.7699528370913192
Ni 6.646808253254168 9.27342356805356 9.896024691717212 -1.3162310120046752 -0.1555219164611257 1.4461835646371286
Ni 4.816750398997907 2.2737289555073636 10.175131594564407 -0.49748583600100127 0.6388898250035061 -0.9858725379142117
Ni 8.385547668120285 5.818603471359792 3.707031457948819 0.4795755313794837 0.7547470758851582 -0.9379294343760299
Ni 7.531481968601017 7.992634001497909 12.1465687072453 0.7457482148206576 1.972310204303274 -1.5550373876177541
Ni 0.6572727304576343 5.875662280920291 5.557053341372277 -0.28151728421804423 2.016882334486694 0.03928645630444847
Ni 1.0045402857428933 7.778359164479201 9.262686886576201 -2.008023084323851 0.7290306449556606 -0.20723991366070763
Ni 5.274260181005559 6.809136540315271 5.547213646103631 -1.6184150805434514 -0.7557199813213888 0.5247145898099672
Ni 0.2899756042153981 6.713791962410027 12.040377899442635 -1.3107437636378587 -1.8336678372063064 -1.6415460101339598
Ni 1.5261873906073582 5.3238097740797565 10.400053227177347 -1.1241035285053738 0.011744799240753966 -1.987003544649391
Ni 5.683540568847454 1.3168469140478531 12.03411491327345 1.867064153278565 -0.3213200180372789 1.0776889457965761
Ni 4.6853297473748095 4.744748061367412 7.135915732115088 3.00617084006099 1.7524821695649109 0.33005045593174126
Ni -0.0892548093233356 3.613131608352598 2.8556791885264707 0.6941358899610045 0.41503955647962715 1.8823547608890485
Ni 2.9877599396037877 6.23778066945857 11.876534660726316 0.3378712375277407 -0.3631693499728971 1.9005314317980753
Ni 4.089873224104468 5.122783741709573 2.8232968628184 -1.1733866910112178 -0.7723858720128439 3.4254205779672233
Ni 2.5421974895618713 5.211255794800669 7.80570600810955 -1.8773899606846054 0.14148549297271762 0.5653069094100328
Ni 6.625675707606311 1.6174683775461998 5.493782106451852 1.4335136824789443 -0.4637578476209368 -1.2390020150181822
P 3.8547935503868063 4.292341175849827 12.032361202241177 -0.7136415640941001 -0.7737506135708545 -1.1187160389412152
P 2.0284903043736953 1.1684134864202553 11.842438885371124 2.844341493324598 0.4781848216795441 -1.968309310673997
P 6.5637106269250864 5.889538414128143 7.463041359089461 -0.4777521050174998 -0.45456024028206876 1.2148866100272173
P 8.013232849714695 7.373769696163038 9.832013770883547 -0.09021383928193497 0.23843793653006679 0.5995272640454836
P 3.0798555173584745 1.277568655743572 4.864171756526797 -0.15971101484180883 0.20915512840554948 -0.21160744660078395
P 0.7503224094092715 8.383553325088386 2.7403340653140096 1.3249840756069566 2.6111987437551996 -0.11552583568416232
P 2.8242050847625033 6.67110553103715 6.190418299540482 1.415834520031626 -0.2172322489867291 0.7150566992740718
P 5.048038012021115 2.4027901026983565 1.5751358718381383 -1.0791243926915224 -1.2014441113690661 0.33283933153078804
Ni 1.6125340170869964 6.00065983714488 2.8283126823591873 0.8402966769222043 -1.0762007912868239 1.441557378719027
Ni 5.6329984858137205 5.211386878380232 11.952837476077708 1.1536593877856196 0.15680952492429767 0.5042246973867316
Ni 3.504107522608843 4.576932990190383 0.5120583410195506 0.15480457867912695 -1.8027966015487469 -0.06584209530578984
Ni 7.60158359432787 6.049385476290406 13.303078868330102 -0.06129509936505572 -1.8365832110808886 1.4110139587145312
Ni 2.327903926317512 3.073020444995632 9.982359146150177 0.3619560463910863 -0.07158234022367671 0.7105487841013892
Ni 4.135022154150533 5.064133202968685 9.773210613403602 0.24877582812096508 -0.7165044874641919 0.49457123345736764
Ni 3.0051097876700177 2.9750167430478576 2.920307138495355 -0.8923589448350825 -0.3099611413810339 0.4699572915634293
Ni 7.062483647156092 2.6505193418436908 2.402314456566805 0.9676812117171656 -0.47089522999666644 -0.2997482054037741
Ni 0.6314492652840448 1.9019571976456717 13.07293636400549 -0.7583473916419068 -0.4193353556415036 3.8429746733385874
Ni 0.40403236310302715 7.046500813562432 1.335298800493681 -3.94319704589646 1.5230330667970158 -1.844675244060404
Ni 7.962849939599002 4.03800157904947 7.87788437226117 0.6076717475294889 0.16407546245809163 0.8153896292678797
Ni 0.023990167682295543 2.574987110677865 11.135827231877872 -0.19343231835365396 1.139259924530838 -3.6645889649054113
Ni 0.92854083524706 1.372744697617951 3.8993928657099963 2.8702641267276308 -0.966514187992258 -0.6835992520957388
Ni 8.568961685265116 8.21749851912261 7.756454162023214 -1.5371671922055528 1.8776828093346758 -0.05690005562115362
Ni 7.701693996661453 4.584685647610155 5.724418046822384 0.983215817017655 -1.0934904316052072 0.40519505958537955
Ni 3.298362481374449 3.3443821809133154 6.233365961761199 -1.6578576028097898 -1.3968780335337814 -3.7448415792095764
Ni 6.136986759888703 7.0111831519834675 3.2821024996411445 -0.32602539393274815 -0.06411662797425087 -0.26204914819110353
Ni 8.645776662888077 0.6301084675273886 9.31957154223814 2.155365807408294 0.02901335651321455 0.26027765811297754
Ni 6.225561807220886 8.813423198034242 7.65031766027494 -1.1428766953478189 -0.0997343771778605 -1.3310480224128496
Ni 3.3380339904174154 8.916997952113375 6.73173449551813 -0.044064337309066046 -0.05150459563719517 0.275574436371048
Ni 9.04332507035923 6.170553519369239 8.07601439383433 0.3530651716593597 -2.955556617448549 0.5938042455187774
Ni 2.8974620795116564 7.212995685831021 9.968970831120549 2.1501552097416323 0.9906622459933713 -0.6774607432981686
Ni 9.35954547982538 8.189568353563214 4.565496884184936 -0.5400864442803472 -1.3554691315696914 1.3580651744316417
Ni 6.990584303766681 7.883881446026102 1.1293533886448153 0.816044232132743 0.623031774925327 0.8698214258541987
P 0.9834077400950357 0.4107494602442647 7.91200730064356 0.2876750762893239 -0.3762318395838101 -0.6243481797439053
P 1.5968039875396325 3.332481664511709 1.4479501561461556 -1.3893452154918458 0.1845599555646886 -2.200345200332462
P 6.585713942065745 2.6045558209817794 7.32337086875554 -0.6898593740728377 -1.140210204259249 1.076924813937042
P 8.779725354974145 4.559283522513728 12.131111144281167 0.28500987075233497 -0.03967443577148651 0.3390045798012355
P 5.766010866617205 7.5859003803446345 13.210852206995852 -1.5308782738730475 -0.24295922143918802 -1.3890598230409432
P 3.912039622203821 7.763630988004199 2.076930368578034 0.109144871858483 0.27249811143856945 0.910946992249915
P 8.123155794289728 1.0024991271468664 11.963074167330166 -1.4926768231026617 -0.5250825146723473 0.16598244967281736
P 6.668783479056349 8.55314738770232 4.757569908071079 2.0643320433282253 -0.11458532614776396 -0.025315853056969304
Ni 5.02647476318327 2.5219263502939886 3.8151960099351645 -0.010844656023987775 -1.2765475773721242 0.9903645122472943
Ni 0.6650281968112545 9.13642250118628 11.422388108845695 -2.076359663916721 -1.5049774948468855 0.11195251651060721
Ni 1.6316628565901306 4.048282276932211 12.35427812955055 -0.313114342298035 -0.49148668099477294 0.1340660605801949
Ni 2.259618744478865 0.5509854825928641 9.689000649270813 0.9322377833078912 -0.05497507068429887 -0.11380936721368787
Ni 8.93464741979003 0.555083717076722 6.1703559576886144 0.1780319246381837 0.6292147638075873 0.18193563056796408
Ni 1.2363054175202182 7.934170725013539 6.574524085927616 -1.1636182987705443 0.9730838707899758 0.9044585563120939
Ni 4.599797711711016 0.5565790061950041 0.4089067996401448 0.47785469203363506 0.17450514243184787 0.11623597437730948
Ni 0.6963796437972034 3.7841769534545318 6.317507575170358 -1.5513841071358832 -0.2819381738055467 -0.8546454894447088
Ni 4.64971246618542 1.4175565556022873 6.611689089667112 0.009998505973608586 1.0589592305975568 1.2544808273800718
Ni 9.21929541280754 1.4596905633184414 1.6555631383892981 0.9033768932121409 -0.9195671298187582 0.6195304466402879
Ni 3.0851456761050584 7.418207029634342 4.205166850196387 -0.31450736599081963 0.3654380914024158 -0.6878716542188476
Ni 3.3941939411466358 2.3890356899572383 12.798091550116604 1.1319268812045344 -0.7741262517427183 0.7395839949914748
Ni 1.7436269597611906 2.5462423543026222 7.709929790703036 -0.315511895995934 -1.9322079369657497 2.1787931851932996
Ni 4.9754270720569425 6.1486625615824915 1.2485055535322511 2.809044874905833 1.6784873632449997 -3.029383787842344
Ni 8.097248061100707 0.6204466714024331 3.7381535086705355 -1.1883595102709663 -0.6678836411326949 -0.933968907066385
Ni 1.9807946076390088 0.42202545702039007 0.7452447933238336 -0.16648330056863586 -0.9075400234508951 -0.5960408481587799
Ni 7.088925077776185 3.113225651469669 11.776207970486459 0.44597404127495455 1.2794151287279063 0.7449509157303428
Ni 3.430241925526012 0.4608027887884905 2.571460962387664 -0.10228645417575287 0.08298595407492805 1.3519122674563686
Ni 4.076296710507041 9.31377858433281 11.440888683478219 -1.4321139739179398 -0.7084476785979864 -0.4659342864469653
Ni 6.6266026557760656 4.264616998772597 3.891581220679422 -0.7172238821287197 1.096159750907254 -1.2982386891923128
Ni 7.281084242300325 1.4374250810186602 0.38014893490694585 -0.7110378079226658 -0.8766826717504064 -1.230595536122042
Ni 1.5550725936749883 5.63333555787545 0.30900332210001324 0.44903056871309116 -1.1620373274366698 -0.6141015623152327
Ni 4.273923932921455 7.0202466451988546 8.01303154278894 0.745521186411516 -0.729189539131028 -0.7404741109059119
Ni 3.565183107571615 7.799079733162723 13.47617192620704 1.1007255159010656 0.4652845686781083 1.196594753696565
P 0.2639424053145103 3.9794633976624927 9.218245807859768 0.7146414661135242 -0.6842196592885571 -0.418402302304273
P 1.474194025085624 4.3908598490030215 4.367119676433175 0.6514589199177684 -0.9627038131072323 -1.4258376539909252
P 4.4718320487206435 8.698593982338483 9.302003533643068 0.5040465199376545 0.9479647071248447 0.35926281582963937
P 8.771317279656566 2.308119668916571 4.866858033596522 -1.456113422156331 2.4864570458997246 1.2229688728147194
P 3.8677052829736005 3.0674306666386224 8.232032879162118 -0.028508648962654128 -0.6827495025009338 2.273850211500148
P 7.107847928797151 5.274821967775108 1.8393601068487055 0.16964472901575298 0.13444092742111038 0.1285692991316818
P 4.759448148503936 4.401496345173143 4.884878280541081 -0.29851073345224716 1.0546575178984094 -0.14533726261864002
P 1.485504665379205 7.794491807878075 13.18378719306156 0.7620952887201132 1.581183964106135 1.427019075893536
