# total energy = -340886.6813614066 ev
CRYSTAL
PRIMVEC
9.10149942685287 0.00000000000000 0.00000000000000
0.00000000000000 9.10149942685287 0.00000000000000
0.00000000000000 0.00000000000000 13.32096440485840
PRIMCOORD
 96 1
Ni 6.2584457303364225 1.9195152945686937 11.40102671845114 0.46545966080339196 -0.11258346522638676 0.5144204069728109
Ni 4.624590091413425 0.3632608586013562 5.896484565828808 -0.3319415023068671 -0.3386369120491716 -0.6668428585730064
Ni 2.866690119131758 1.7542502710800505 4.813344264181696 0.7361253470189129 -0.8440474022138883 0.403422283955673
Ni 3.166675534606242 4.2297579521932 4.541716389938822 -0.8251256256087208 -0.17065928632319638 -0.03984489991107977
Ni 5.3026517859780204 4.547136332745711 2.8191693712168497 -0.4303856999183942 -0.04089853798657472 0.11106008660332486
Ni 7.322684038328879 6.141036389935304 2.6199402829549623 0.45039839559489525 0.8761196001580848 0.5322548640510705
Ni 5.387960138503576 4.364842404149277 11.169642033318157 -1.5324505034561737 -0.723902836810792 2.553047075115132
Ni 5.970938470341778 8.163516945586002 12.703843536588447 -1.4523141030148987 -0.11781257483581 -0.27138559510068105
Ni 1.5763341636257053 6.626455751249507 0.3348341459754018 0.31829614360929054 -0.5970212097941783 -0.814416723831649
Ni 2.9027047516873568 1.3893347599139716 0.6591050919144054 -2.4571870932910134 0.7540832170489142 -1.0546469763754482
Ni 0.1953090725323711 -0.01593763534700755 4.856290598570589 1.2780825259594117 0.6614479128096802 0.023714312897804322
Ni 9.096839288281585 2.1698611331014956 1.3169914930784457 0.006106627118370128 0.4928928173136802 0.3604190409212696
Ni 6.841924644633697 0.7143948795941504 4.513075792080354 0.17442081024815767 -0.3217779315103039 0.1832083266328006
Ni 0.32104264415293565 7.604257120808676 2.307457598852201 1.714316714238783 -1.5504214861122976 0.5769650624742515
Ni 7.537260984785993 3.856004885249642 3.9957429337752606 0.3937945310579218 -1.3423133109140237 -0.8240534755904647
Ni 7.697283544703237 3.561707906810096 12.694932258666995 0.41422760210129306 0.9661426635854522 -0.3527550966181086
Ni 7.884546891893392 8.404333514397877 7.2430477401396 -0.0817597949773108 0.8085659214778267 0.5584502914995156
Ni 7.0718922263325386 1.106969846998911 0.22739185740942072 -0.6299691254751085 -0.44227088139175447 0.6797801354599647
Ni 2.0579946057472216 6.32148271418279 9.452489473205157 -0.21687075188225233 0.20921580644015583 -1.0105798108529047
Ni 0.08364550861150334 5.081703790041776 1.5429007162590802 0.3476820529705754 -1.5485144988975716 -0.042947450095803454
Ni 6.536487431104929 1.6396623954482619 6.748506856271135 -1.3390752635927003 0.044810985667103474 1.5171506398743098
Ni 3.4628565233917596 4.809878413265049 0.6836008670117363 -0.05475909801875085 -1.2328609351174509 0.20619398889469648
Ni 6.408183596094499 5.6297050602395515 4.697824395026104 -2.3517368966752983 2.110737627175958 0.7916963994159978
Ni 5.432812326836654 2.563956050881992 9.276239850264568 -0.3825009604219735 0.7716973305862516 -0.43630309384409377
P -0.01774337279937823 5.384838324258802 12.668822787751594 0.6093517063350732 0.748798314500891 -1.3807343338943834
P 4.467980593717143 6.081148524831478 12.578693371070186 -0.06241918566716992 0.2141420400971796 0.3931029043075359
P 2.0434322069377804 8.51479841086674 1.3030297932198942 1.3669002562247685 0.5635714147761649 0.6570469555285071
P 6.349333301905845 7.924766417105216 5.764127833199725 -0.8713579171033832 -0.06998259983672463 -0.8187372055838739
P 4.629677829497473 1.1960280172178985 12.756608568374604 1.2301103689555073 -0.684045595604538 -0.19824516636126505
P 4.262141086545695 6.096284318094042 8.144437472695857 -0.5233655319812407 0.22323320376517036 0.5356397213629033
P 4.982870609621952 1.5163370805308087 3.679703383763294 -1.6574814504172939 -3.051262075972674 1.3276683073073394
P 0.16119574317133006 5.898545145260345 3.7567248212163524 0.5177013917169278 -0.38825328952471844 0.451597558109319
Ni 1.686626131608709 1.0870557666270007 2.996364639930128 -0.9444281547264961 0.39260231052203354 -1.7230204126603679
Ni 1.9117335127048989 6.572001481201454 5.14572828655741 -1.0171592638426352 0.06264158609062115 -0.818291633406023
Ni 6.032391793317618 5.552005561091929 9.495129997219053 0.891471914244439 0.8557325518613004 -3.5740424248744063
Ni 8.978547102452644 1.9409766298141073 9.884621376675913 0.20829612283936383 2.0551213233632346 1.0147606817034718
Ni 2.3930571993539465 5.35666918406179 7.148695227803456 -0.049842891664056095 -0.13570333907330176 -0.1912653926093222
Ni 0.585772492109763 8.983716754029997 9.034997331287517 0.5136786437107799 0.3790261144994956 2.072867334492746
Ni 1.5664590369330533 0.9587701346150816 11.647891233518562 0.8854902427397072 0.5476094921302698 -1.1563827002540537
Ni 3.8182609678354225 7.11536098677872 1.3411678055518945 0.8677200632404798 -0.3378694377555278 0.05066744444788048
Ni 5.545761932602381 7.891409422332341 7.84666099109078 1.319682203778069 -0.009176524292945486 1.2262933092022623
Ni 5.070490742958507 3.0304715982416894 5.067201461127425 1.6081882606091207 -0.5753838340300607 0.07420229434502705
Ni 1.0624544141383014 7.801249970703389 7.326903493383916 -0.22474629797558715 -2.4781302712015836 -2.109175424895161
Ni 4.727072973034865 4.724897714712705 6.50637148021708 0.35340224328380426 0.43577498925476565 0.8560788794571257
Ni 8.204755838714487 7.1269380938322255 9.49363826149101 -0.08465537135755097 -0.030914430190669338 -1.0342594138580317
Ni 4.48801299357938 0.4238049418015326 10.526798590124269 0.23207908419157453 -0.8303411083713893 -0.01785142635912409
Ni 8.264188628855518 7.107014911961058 5.320273198687369 0.9076341258265982 -0.984503425480827 -0.8312978158577038
Ni 6.982278864658941 5.97233099972793 7.079386400819847 -0.11923927998000755 0.8390057260249228 0.8482012764812619
Ni 2.2936779289787674 5.715550401221206 2.707473041898661 -0.7011647717833279 -0.25538664856926335 0.1873927970277934
Ni 2.5769256873216504 5.280880999757906 11.628869100073729 -0.3851281136321754 0.3413216579701864 0.40702722769811184
Ni 0.7361074162190268 3.727009336295763 3.6915453444451463 1.6780793291733036 -0.281992681192566 -0.12866777238275906
Ni 3.81353728972161 2.7201377781132465 2.458810070578275 -1.0200622964220432 0.8761558527126588 -0.5505786020609227
Ni 1.3194352456286549 3.475726043339603 8.251964405204918 -0.591174264095098 0.12993969711664718 -0.12941339229953194
Ni 3.83915801012697 2.5700176493864215 7.228514466127779 -0.43788226540575553 -0.0630403641909366 -0.01817692801934289
Ni 4.135493724399837 6.979648531373986 6.061078808822292 0.44810368602344763 0.661533530544951 -1.337805652851657
Ni 0.8336791288419837 7.387277378548006 11.214147454529584 -0.19442990638023291 -0.3632801645191485 0.9870508744930291
P 0.08629768549467277 5.802424211618778 8.048087181273042 1.1243629528143475 0.7434522196976293 0.7077902475196456
P 8.447128763899121 1.3468307583889159 7.851376477855262 0.42327659967743875 0.5190463357805964 -0.38045616207780286
P 1.9437980945834366 3.5452797006531953 10.416727788573183 0.7209576381395391 -1.6487494698609348 -0.123237088285491
P 4.095802086144856 6.023354004556509 3.9999523771811147 -0.1025268523213331 0.48705641313756115 -0.14308986134536003
P 7.226271856711125 3.64249281420547 10.355984382539303 0.1594176519711061 0.4522668162622017 -0.915419683309288
P 6.313637221824203 7.798901783895367 10.393269584391025 -0.6068438523115549 0.8108534319604228 -0.6714613311816243
P 2.277540970798056 8.697492805430434 5.7362472105291245 0.9728977229210986 0.20004545279479743 -0.3570917763202496
P 7.242900295851656 3.957422891458142 1.616832194714761 -0.3018493109071769 0.9967794146347027 -0.08495079111078273
Ni 5.524946803804137 3.226281253233135 0.35059703253669605 -1.0759997310196114 -0.5691982740446392 -0.2408090078654046
Ni 1.4463829572499567 1.256989859233921 7.062056236086686 0.010277984887240363 -0.15983648467607955 -0.5482838924894751
Ni 6.986028682352372 0.6834142862769903 9.366250037305722 -1.0919236013387195 -1.3460604366612816 -0.7677329466218649
Ni 2.6260009713094665 1.6313800311253925 9.293184111429278 -0.013189502107080508 -0.26020335323161636 0.48751175550742487
Ni 6.415300968512613 2.1976207058319925 2.430796566018538 1.6750626538341669 -0.558297053751103 -0.6140969343295424
Ni 4.281381655972669 6.737785290147683 10.54837824486001 -0.11921793982376885 1.1357603960180118 -0.36050414443590817
Ni 7.930554970631969 6.987193674257127 0.2708087393098434 0.83871236315422 0.8326188486619724 0.4066287067081126
Ni 7.925949612008483 4.035641176063352 8.155347439853905 -0.5405268742518755 -1.506108266017219 0.8943363802764275
Ni 3.3336061324587147 8.29493349334195 12.579851991925462 -0.3075874989425348 0.1747663665130345 -0.7981236430985803
Ni 0.23215285167018235 4.8062196105641775 10.369251638004629 -1.3109787624668003 0.21871474706952654 0.29756353904762944
Ni 8.441340210372367 2.553043353274167 5.962237437053137 1.8778478741576305 -0.17603931968818715 -0.7325857092967706
Ni 3.5629093047118747 2.8905997576770086 11.900616203956854 -0.17763443208944893 -0.044206262203569026 -0.3359467668115182
Ni 1.1890107612915992 3.3830636794152786 12.619135883013781 -0.5130505232084777 0.11627582647630942 0.050285635628429526
Ni 3.229557792965259 8.180591358190071 8.028878467093463 -0.18622243086877605 0.8966465164668429 1.0272451873237276
Ni 5.035586493312128 7.84041372200153 3.404199180987331 2.9564541895621534 -0.43592282768653956 1.4068050628395063
Ni 2.8541755576548944 8.1746207746782 3.43522346150092 -1.721365136445132 0.03168190448431318 0.7136369361084096
Ni 3.5531707005080615 4.2521294373642045 9.137341870120268 1.0661590907801057 -0.06497203399601069 0.2646382490745184
Ni 7.190411949642876 6.180391272717818 11.442788037636916 0.7481159437218858 -1.339680758387183 1.684294713955396
Ni 0.41840502229300675 8.870867264756084 13.273994215375382 -0.6810916551825367 0.11588219058231655 1.296122414180258
Ni 4.473896568233478 0.30974950387621414 1.8264242500294166 1.30491532988154 0.4676906070164398 -0.22999777618251357
Ni 5.984117441264322 5.647635013773677 0.8082231455731552 -0.7799994226940438 0.5206159942605615 -1.7180777239431122
Ni 8.00737162435177 8.878594437624344 11.429093921856486 -0.10308683858986117 -0.0032745569862137154 -0.3069285252022972
Ni 0.11641909728207583 4.83676424206698 6.160932267308703 0.44928510792605847 0.08076863470863509 -1.4085266735163033
Ni 7.895013616037677 9.055846135633008 2.394416963342778 -0.6158504266855394 2.34229554875674 0.326602863702773
P 8.778705483290835 1.7369665239930954 3.6689536029921497 -1.2139687261986383 0.08523386956884031 0.050617822156867665
P 1.9306191236608925 3.3646240419228244 1.4542366409578733 -0.27040034836927623 0.20961921252616156 0.6657172296089954
P 4.840996439220973 0.818754490362158 8.104607491652185 -0.4520482724934925 0.6346271930724103 0.6436939312603689
P 8.689474384585985 1.6824576449495066 12.273443648426088 0.7534638382973605 -0.5663307226888569 0.15475547060874636
P 6.325441866359106 7.962965409482232 1.5585525645294527 -0.8722524038931946 -0.666502187404136 -0.061990325659867444
P 1.943397628616177 3.2363930189064405 6.048370385411277 -1.0366749652780596 1.031444570117056 0.7799356593356439
P 6.821819432777414 4.064984409664376 6.121489099983407 0.05820051960013202 -1.3223553797348582 0.4315270126116891
P 2.5120866066226144 8.403887540934337 10.29212280286035 -0.011304626379541821 0.4646577337273869 -0.06005685608258044
