# total energy = -340892.5878660211 ev
CRYSTAL
PRIMVEC
9.01146296794049 0.00000000000000 0.00000000000000
0.00000000000000 9.01146296794049 0.00000000000000
0.00000000000000 0.00000000000000 13.18918694622057
PRIMCOORD
 96 1
Ni 6.466517660268344 1.9118269176940397 11.568881864642929 0.06455191573945657 -0.5356299511708904 -0.829389028870765
Ni 4.532342314510477 0.40553745931434204 6.085688731158924 -0.14152663062329818 -0.3512805689551111 -0.2286374054998772
Ni 2.516099575858549 1.4738878422723198 4.790747816291063 1.0541458683693135 -0.6654737461396216 -0.6603793623358498
Ni 3.3156145898419602 4.331053267066242 4.907194841405409 0.46932788550954657 -0.9123078771531836 0.30109469212933954
Ni 5.098892988854349 4.505425074741666 2.682206069735529 0.7991222595664237 0.28585704924397864 -0.22438351531952969
Ni 7.271574723953067 5.883683272411836 2.460152809410378 -0.36368768437021237 0.21412918458137317 0.10250114128972025
Ni 5.051474670922149 4.722808594977029 11.478878977493624 -0.2032529039885016 -0.9777823047069097 -1.0716386258374384
Ni 5.496055194522514 8.000304696629478 12.359309719408774 0.726244340459775 -1.6086991388072682 2.2734722593354397
Ni 1.9341663342949376 6.4560553518078185 0.29397284481490765 0.005634829688274167 -0.278667730584391 -0.48985788714209827
Ni 2.975612093532205 1.7070504340962955 0.6570050357859194 -0.3793552157041402 -0.5078561234917317 0.06083204368570814
Ni 0.7253452672002924 -0.216458042992558 4.388108443454675 -0.3600012366575606 -0.30335803424221947 0.36955314201205386
Ni 8.66256611874186 2.375755052202887 1.2896601975914892 -0.3386762499275393 -0.38090687646197624 0.9843640716894853
Ni 6.822803870090734 1.1920903850207334 4.774036959435594 -0.18844926331676579 -1.4195932157431101 0.48318253200445177
Ni 0.8641443249636372 7.194815082724164 2.260363269397522 -1.1700802523458043 0.6726232127002093 1.0433742316751062
Ni 7.344089966142428 3.68458893946833 3.9104225084921804 0.007932367473199243 -0.038399168603488715 -0.14230336088832266
Ni 7.592896457611083 3.7961868963806014 12.618952495049507 1.5846690944412578 -0.09693058918047823 -0.24724910706379358
Ni 8.045343988348431 8.921988113540833 6.476826773859077 -1.397005303140265 0.35563601771032943 0.04646009123475224
Ni 6.918766938821255 0.6375979492221058 0.5129712192071401 0.4788430240888334 0.4530522882779746 -1.2171340113004974
Ni 1.9084656420215365 6.619712530060706 9.13133611228244 -0.7924787861079772 -0.884134242932445 -0.3682609055631916
Ni 0.25825050461820737 4.802749282619855 1.4620611983243494 -0.5241057525813747 -0.11850548713777656 -1.0093834765519583
Ni 6.238689854498313 2.1891186434811445 7.318152272393995 -0.005165860471655619 -0.09849124879937876 -0.49562050065748836
Ni 3.504026256760708 4.409885544768806 0.8049651467628476 -0.36347916790383206 -0.50908819612662 -1.110995787478822
Ni 5.99994916712131 5.5737430164331 4.692383192689973 -0.022802342606496214 0.5135128075568769 0.687224507553152
Ni 4.998541337677423 2.9293562543178404 9.720272161688149 0.9920619545543754 -2.378056251296117 -0.5864426629473836
P 0.1431533966506196 5.5055352535237825 12.395342955076524 0.8442615751072234 -0.863791674720351 -0.14505058461615666
P 3.984868907187218 6.111285791608641 12.582312787926638 -0.6111324523845797 0.9863309656078691 0.24721593983301293
P 2.4156307756635464 8.303017759339186 1.3536983566035754 0.6911027595616356 1.3889461802812142 -1.0215810470594149
P 6.148376973024251 7.926843250832575 5.754969843958586 0.8092956005549997 -0.14157239625956908 -0.5662258216798763
P 4.686366238892304 1.1512504350266755 12.672724795492918 0.815972241244227 -1.1498274156340391 -0.5724985420624656
P 4.0788404426104385 6.160524425052493 8.241197321353917 -0.8136016841295215 0.3736887614469822 -0.36644519251069146
P 4.696206756410731 0.8452175493739373 3.710988921265018 -0.0702988455255628 1.0818723877503045 0.5966391438644111
P 0.14635066369781552 5.606004053718785 3.5086139925378426 0.40041435036728457 0.15187609217842232 0.5447859066385456
Ni 1.529876061449964 0.9984250352144004 2.5062887961677873 -0.06114237583727534 0.7714366207256972 0.38277426868801817
Ni 1.9288766055556363 6.298111441051892 4.76009622628449 -0.6122956194547455 1.1992237066789797 -0.28588661693033346
Ni 5.936841892229785 5.427333778226245 9.138392087755818 -0.6927824612569036 1.264143033060184 0.7918429522961911
Ni 8.527376151881565 2.23849244886893 10.009920405443447 0.511221697529855 0.11648974225932843 -0.04482152719006474
Ni 2.3343293571184462 5.264803032839478 6.970181840562451 -0.03045368850416691 0.21968071052722166 0.07982426851749477
Ni 0.510098364825387 8.914067037626275 8.748229085344578 0.680990353717982 -0.7498941186682311 1.6622575316496986
Ni 1.4999760274516662 1.090260853923457 11.266744634414382 -0.5557544898349074 0.7918637782317974 0.5805728344301679
Ni 4.116165922062202 6.711647474861981 1.5501779862826235 0.1471969415351981 0.13588897272154662 -0.18532948674086147
Ni 5.5791138483387614 8.032962238284037 7.972124950904318 0.2686296296220987 -1.0759992167989791 0.37361419945530494
Ni 4.967451790572502 2.5636710886605423 5.109583287326978 0.10837225535851659 1.2660543911502842 -0.5189280650351773
Ni 0.6397363693751484 7.39175159357371 6.700185795162634 1.2297005351115984 0.3356312924536284 -0.47379620569354536
Ni 4.857007300915138 4.470794022705663 7.06295485141612 0.6647229840165261 0.20247000307589 -0.45751315226280564
Ni 8.036107238846245 7.0757826688954975 8.930305693824266 0.08542001743771742 -0.05106545121724754 0.9603332559925267
Ni 5.093576225726261 0.16209999745876327 10.526989136844385 -1.3755013676302181 2.1757184029227177 -1.7550579007118872
Ni 8.010055099518615 7.193012790138371 4.534244634334781 -0.9345309502174421 0.8023605639980633 -0.00042268935971540104
Ni 7.025705969399254 6.302941585181816 6.9301655382801 -0.04021282477345978 -0.8439018777749596 -0.3737237284499757
Ni 2.3545150340793226 5.054268224430127 2.7335777164546657 0.198073159559775 0.6865030560060951 0.14154848500016912
Ni 2.2439443839409527 5.096036355105868 11.474975211752795 0.8589081213758046 0.8295654065476294 0.015215788508489925
Ni 0.7626049629726736 3.533061190317825 3.8892275476832605 1.2201152054160085 -0.5787743477688484 -0.18431955741910835
Ni 3.7537068601334718 2.735717938900294 2.8874295218945494 -0.953999600465015 -1.0421321317378889 -0.1596012287368219
Ni 1.2680930633636034 3.5161827202518783 8.228575866375612 -0.9471514671949302 -0.23658417115077962 -0.31612741809274586
Ni 3.5026294800067186 2.5469638363902454 7.099620691781483 0.05191082993667834 -0.30002896986898653 0.21616241296131805
Ni 4.103558885424584 6.816522880429247 5.943851909242226 0.4948964780072703 0.36133332520542283 0.146490916607109
Ni 0.6640420871871463 7.330942241729072 11.205163901343024 0.5388541145351429 -0.3483543964472517 0.07515128852185766
P 0.2573538640567756 5.701741835876082 7.786276144042567 0.10348458824891209 -2.269120410124647 1.6099736346443176
P 8.333845974019166 1.5434563360839104 7.857365772796567 0.3242970983877318 1.3532798372278565 0.30725814062757406
P 1.983314853109499 3.1695838330781227 10.506598899675021 -1.8937216079650931 0.2603817877910096 -1.4733853218629012
P 4.052743245968164 6.084485700857907 3.8400583025039623 -0.44016643345424195 -0.1304819427733624 -0.8544624268996253
P 6.862301112108376 3.722509175473404 10.41684653119514 0.43288866884590615 1.0613094759972883 -0.10746131350847297
P 6.360777154259897 7.483749618615489 10.32726538051091 0.009965852963460255 -0.41019765500629357 -0.838814435949723
P 2.385126973649008 8.354040662442971 5.631532627050244 0.6112471235855731 0.37156143069133424 1.0888837860711311
P 6.9210738733310695 3.7081899608792823 1.5465112220168287 0.31433535918932964 2.0799900615804563 0.45109722143413283
Ni 5.400831065752167 3.113694739992697 0.16824491403002279 -0.644897978870799 -0.4626507305996871 1.1181159434633712
Ni 1.2420138896471857 1.0823037321571833 6.924045853805042 1.0523399255088264 0.329022271777543 -1.1647045898561879
Ni 7.109855010229905 0.3862141793557678 9.153915233797248 -0.9305768506657005 0.5219732796194043 -0.44547601859261343
Ni 2.5036006767760783 1.5951641103702972 9.12015108449501 1.0485092389088266 -1.1228249189032662 -0.06718883914167138
Ni 6.318567461900637 1.9510448043608843 2.586280849149309 -0.24463866602413994 -0.34178522787016624 -0.5906358750931248
Ni 3.9311155308159567 6.998851809870946 10.426540161867827 0.8946166305210077 -0.9004116399362299 -0.3083632007662947
Ni 8.324465041110116 7.1865425597553765 0.21245785459839153 -0.37722917050007293 0.7375960180271683 0.39436865839383695
Ni 7.6137399713657725 3.9902938078704535 8.394561606649344 1.1830290991969883 -0.25167448982499885 -1.5061563456463352
Ni 3.0539847866253917 8.420734499580222 12.218396572442295 0.05050957871377753 0.16908962784323134 1.3770062343105187
Ni 0.2513459217220363 4.65799815359193 10.242814455672137 -0.6132078468563698 0.3349262959668038 -0.24858890892113963
Ni 8.596403957917419 2.6705109931463213 5.875268368328771 -0.6305730776076947 -0.4650914788306958 0.7576884179016693
Ni 3.554941022309346 2.8613467435929603 11.789840232222211 0.6811471910108204 -0.3665395519967107 0.10883171149343836
Ni 1.2660925185933736 3.2053863752948906 12.8033369391853 -0.5544247152798902 0.35885143932383357 -0.27766577168243795
Ni 3.213199313654301 8.19848478936322 7.834733483650478 -1.4296416011180475 0.8841584113021612 0.3301550998304056
Ni 5.596623120809736 7.695708238167615 3.3901880501642965 1.3122072355572625 0.2630243676201793 1.0673919347459424
Ni 3.2816323631368425 8.150129279286409 3.348563201749126 -1.5988608125606076 0.6236398408229711 1.5537351238665629
Ni 3.4291139654322427 4.2988462985581295 9.22252580909949 -1.3265591334035607 1.3399957185244404 -0.4164207530978699
Ni 7.1881646230825895 5.8040850203603105 11.35665470349552 0.8419907767951758 0.635834326006634 -0.1682229089675619
Ni 0.6978792293391075 9.43491157199445 0.30185336914628536 0.08490219726103443 -1.5346017454712217 -0.0146606873359683
Ni 4.777454106178257 0.19455838578259332 1.5898248185848871 -0.8124207764475427 -0.10288989208770667 -0.5819897693823526
Ni 6.034201737714297 5.569011998395394 0.3528393252520623 -0.004849871893133582 0.7678013379659551 0.3843562684631574
Ni 7.932989068550127 8.840082926979493 11.248873101133663 0.014293790914852802 -0.28710043473277647 0.8891754049007783
Ni -0.25763051596869474 5.188719251330248 5.613977396118331 0.47387128190585487 -0.8174421409215341 0.7987972721268372
Ni 7.997916658953302 8.966495728946978 2.5506432167041413 0.21951204615984132 -0.6576071989073513 -0.009520023675293282
P 8.670388068564199 1.621639788455589 3.731247591075619 -0.42880627124641635 0.11606525312740011 0.05263690946942547
P 1.7501342383596652 3.173620968470298 1.8700416652387333 0.9238379892799702 -0.6923381746306334 -1.0222667602725297
P 4.664828842492083 0.9707057752449116 8.402593523557929 -0.23414110892692575 1.051145390980093 -0.01463317653214254
P 8.574506103000038 1.6922265775781524 12.191227011711472 -0.5080641257374799 0.23812451905470602 1.023085142408767
P 6.47376287646323 7.703088626306435 1.378072561533833 -0.004697919696301587 -0.8393613095921286 -0.6039984124429598
P 1.7447724179169328 3.1042417153802155 5.930689766488182 -0.01613032990295932 0.9332685385652509 0.9655058013324018
P 6.8090163318094215 4.11852692534959 6.091201944178863 -0.5181906726485205 -0.5701711794808696 0.4679765136879747
P 2.3248673210430355 8.52507822883468 10.14897358646139 -0.21885512930213277 -0.3975509127765605 -1.088907697330531
