# total energy = -340874.3651345047 ev
CRYSTAL
PRIMVEC
9.19356220293797 0.00000000000000 0.00000000000000

0.00000000000000 9.19356220293797 0.00000000000000

0.00000000000000 0.00000000000000 13.45570758350740

PRIMCOORD
 96 1
Ni 7.56660518641988 6.685880302182367 10.055207815877557 0.9971116011631407 -1.2532760084386931 -0.38696619528217874
Ni 7.981198073323309 3.849657129337878 11.570091758757895 -2.150001714882904 0.2048811836205439 1.359029852337756
Ni 7.2571682654646805 8.426423909915453 11.805634503117055 1.3284900318776862 0.565435207457781 -1.4875783255338315
Ni 6.690192082915863 1.5527834842359067 12.67013642726432 0.4455698638580004 -0.14045756592883551 -0.388320395317228
Ni 4.576831135513896 0.8238323624612007 0.5062508646364845 0.019927592161862455 -0.6195083351531008 0.5851843650602502
Ni 5.521993698133218 4.372053728141024 2.5254614595573153 0.11278966769992187 -1.982760710212637 1.5224566254682554
Ni 8.338156517970273 0.5520053856481262 0.8241256370995771 -0.1827391003058659 -0.2642572115860159 0.3938297551712314
Ni 4.8149535934632866 2.006807559979341 3.906932103307181 1.2544507454730847 0.9384153728735128 0.7646424806219992
Ni 3.4312764947538503 7.399833965725621 0.6214572329255627 0.4709273687861825 -0.9076626650716885 -0.7247770118856293
Ni 1.0506954646231468 2.2612945588788853 1.4342168689146486 0.9942826163547779 -0.02048295044470021 0.2491177848414161
Ni 3.520150661812912 5.758231475804642 8.719298628330371 0.19420004975761393 0.17772904868578424 1.709341886732011
Ni 4.46564419267617 1.9751541248718256 7.753946083474739 -0.27827203780786913 0.09399387514965749 0.681824162473187
Ni 1.1217341207590081 4.0984257324672 11.762885357631596 0.08249435915049018 0.04049821722436252 -1.7156704000532002
Ni 4.437098181636718 6.244580116705794 3.935417436835245 1.560753207055609 0.17339056921143042 0.28002193061944036
Ni 1.6003969435509873 6.029046241405013 0.14920324243490463 -0.8521137241617907 0.970211177227871 1.342779966137797
Ni 7.65879822948063 1.6181772931001985 8.210955308907225 0.7002756843101552 -0.0940596953905864 -0.7865374809228777
Ni 3.084449355796251 8.57156267844358 11.921877905237132 -0.8853873986132559 0.1320729414095661 -0.845350694406344
Ni 7.81601733891241 5.208925320057058 5.542688406941529 0.28369243749249207 0.9706642056048896 -1.022355206221278
Ni 0.03906068827804249 8.675541868413374 7.302977947850311 -0.3883736171526666 0.12990087345891177 0.3280187702136932
Ni 5.192854973101515 8.605698375380614 4.49802759663281 -0.9887624578674972 0.3081863088687983 0.438031132278794
Ni 2.8157031417204776 0.8007601984339512 3.6897029351124626 -0.1717329790033494 -0.8606302462732339 0.37158277084757296
Ni 2.406580424404318 3.8004715708641026 0.11140850768991611 0.5582348330546 -1.0243452400681132 0.7176671403137254
Ni 0.35280847061050374 0.2542571598412557 3.19819302831838 -1.0070517430949883 0.15180024463516437 -1.251074372801684
Ni 7.2719974815054655 3.9175056193446927 0.7242679211230163 -0.7610843309570957 -0.5584878296056704 -1.1554812714857068
P 7.0452842344095234 8.725701944494293 7.372073084909283 -0.2688713133192595 -0.2576983274215755 -1.5404067821887728
P 5.569506028262651 7.436001439937926 10.576078283333668 0.028877345155982524 0.2081498270694867 0.7768590772928492
P 0.1375605150982339 2.899254236189574 7.0262342539023255 0.3900461197590831 -0.37613079522957155 0.656372812279618
P 3.9706627967456956 5.3666316882924106 13.104594763653756 -0.24905659258617752 1.492643398761565 0.37728727743151796
P 5.5762724901386695 3.895634134557943 8.375451122924424 -0.29895630563009806 -1.380471824261616 -0.9675549705519466
P 0.1399572767980681 4.418683476286629 0.26244954323489694 0.6578193149181574 -0.8059634508579732 0.1587764188426814
P 7.252010676996682 7.909901997442164 0.3013456667472047 -0.8962814198179404 -1.2771492155118649 1.9680072060525462
P 8.626236793629289 0.8522983895083688 11.23304013462743 -0.12443033726264376 0.25984879810567507 -0.6902481248708241
Ni 0.33006635547095664 8.263670275960083 9.916601073385994 0.37825298377889693 0.7390772305583851 0.2408393468827078
Ni 1.72369180797936 4.19346877985073 9.14731135816916 -0.14834108244197033 -0.17193609615309097 0.4106360280952928
Ni 2.5212976951773576 5.866669543505236 11.509944715916218 1.203749105353159 1.7221850612432663 -1.4205640642968116
Ni 3.8261859647054393 3.851523422491182 10.866116787769302 -0.8185243182421194 -0.05166991757046585 0.28637075565560355
Ni 7.2610111745192665 3.272696738097001 6.654641496736005 -1.14370279079354 0.21061808610432112 -1.1750787340016602
Ni 4.386506008126216 9.02490643057448 9.559352112169352 -0.7963866058028156 -0.060365388461934746 0.40415119170189756
Ni 8.70571513998551 1.249331572358545 5.347069626363345 1.1118229113658078 2.699886119090279 1.132827795752249
Ni 2.2885258905049266 5.578451364411247 4.603116449576021 -0.4703432141479384 -0.7037425598128331 0.1768618155894825
Ni 2.407692845446435 8.73924406180866 7.846601562720766 0.7048211375889926 -0.8899889019410092 0.14305977943837297
Ni 0.23533956663163202 3.9853265286645128 4.527684190001914 0.38638101220267007 -1.670865842144 -0.735817585970507
Ni 2.2267543451992644 9.209099451887019 1.1752323793225115 -0.19395528073665952 1.488674643921804 0.2804117098586913
Ni 7.704609750578727 4.300389909766618 8.693611815176029 0.16012341978887906 0.20946623188806507 0.2915129619781754
Ni 5.849707421003532 6.148755616524084 1.2059545065658412 -0.09526502855259722 1.36673082052644 -0.19831638591883266
Ni 1.0687700081669675 4.852812683144597 6.439457896160056 -0.7375068007474718 -1.390474701110599 1.3786365708250903
Ni 7.949241250658853 4.796492920301542 2.789597102123818 -1.187208941606291 -0.47369670400120356 2.359174069679634
Ni 1.8371495607129782 2.069535235767484 5.8390097918745445 0.2715493743720549 -0.25052880625632984 -0.26283179199339896
Ni 7.007415951165883 8.940527915495545 9.409778369172487 0.09538509907022928 0.49186823270390767 1.9135939214089883
Ni 1.0091681435715503 8.461607672958282 5.083983888615106 1.1186288785440477 1.6425042602821713 0.2633064176369723
Ni 5.1063159708746655 4.42451219480483 5.686369076483874 -0.446462807985915 -0.6863593313393793 0.0793316451517924
Ni 0.1338647030409521 2.285390885749869 12.808501379066563 -0.48573203789918284 -1.0744699246386462 -0.34642221242154536
Ni 1.2435120474026757 6.3954464745664765 8.22188185773827 0.20439807333653828 1.0705456498835755 0.9868714114923712
Ni 5.19562223536331 7.7995332816519465 12.685166982320165 -0.1382376754593813 0.7830806327225288 0.3727271688646613
Ni 4.486440030670129 1.5765764235499498 11.476467278042124 -0.9850556984398713 -0.3616991931852738 0.1116406416971432
Ni 5.686484915369252 7.053843440940193 8.499177165426147 0.46258131081433235 -1.4620472711422627 -0.1635347594632732
P 3.775676533255922 0.8008089243143083 5.8521023439909 -0.20176963457475575 0.18019885038251549 -0.37477556675325774
P 6.680198680661472 3.45891234312248 4.449802765422683 0.7885388276236226 0.12692327888782656 -0.5138192830537022
P 1.0503461092545479 2.2527997072845363 3.57266520920694 0.7167181461368947 0.07903905361203807 0.7584144974344164
P 3.507196932487763 3.8986496230026906 3.9455634522243397 0.7561084750090591 0.6806221717452858 -0.509338107353897
P 5.841424021342808 3.5315506791040305 11.982160093445083 0.22834147152601317 0.35460860488707957 -2.0039692259694517
P 6.334281704374696 1.9371479381932115 1.2951467708815747 -0.24493280022579103 0.20589574092798735 0.443277725389714
P 2.884333084525474 2.2361869401514314 9.564989604591057 1.753591857689322 0.7080900381482514 -2.0970511308278015
P 7.16634506319133 0.7545092250564059 3.964037915729583 -1.2643104118759838 1.3522053732167552 -1.8279489324446585
Ni 4.744549293128302 3.4737691398502593 0.29233321759358954 0.6040873726123402 -0.7567918742293289 0.7285531910986098
Ni 0.5863690829309814 8.346807660124258 12.796888990485588 0.2734946710238838 0.9316238038729762 0.036403992550330846
Ni 0.05972689704312632 2.734983664449498 9.911608969039962 -1.2272227629950672 -1.0293105544931886 0.36880957897781
Ni 8.179889342432697 6.468470940165951 7.582385936161979 -1.2682940791140802 0.3002876228470119 0.6276641314910159
Ni 9.033244991609195 6.831451168140078 3.8171422574398965 0.1776092352784683 -0.737855185225826 -0.866788552565146
Ni 6.607091473001012 2.2164943296372583 10.290063801130549 -0.03892135965554588 0.12978183138254423 -0.4978658450482393
Ni 9.01360754246901 6.359205451855519 11.994095176063896 -0.3859956038387933 -1.0147239149282654 -0.38963988545959993
Ni 6.311113927299198 8.43918457443164 2.5207515975748636 0.8450231358635962 -0.03210613650592535 -1.6235619148517137
Ni 2.988174371060294 3.966921016876756 7.189868631129059 1.6092627246202218 -0.24975901796984082 -0.4237075165672703
Ni 5.62091642882066 5.146841193632123 10.088767076456401 0.4779588217116672 -0.12579430748970594 0.34284220837977086
Ni 6.357063351832268 5.855784365704684 12.284280777496837 0.32490567850600816 -1.134591572520891 0.18413880886686998
Ni 1.0824592224786405 1.3380954166696284 8.392392100232767 0.47907802291777496 0.9536339895954802 -0.2089599816756079
Ni 1.1596759525013014 5.026616979022487 2.5905868164015255 -0.10364528219649245 -0.3058013535763895 -1.3891940346259624
Ni 3.403355645952943 2.6705827603170134 2.115492934506653 -0.5054156323710393 0.19431189274512986 0.26716204393763665
Ni 8.167468839722778 2.3110409246548844 2.4529886076977325 -1.3728485033884033 -0.08864443791228604 1.5551260906768185
Ni 7.778195023480427 8.421008901702173 5.162712959641305 -1.0889478065398472 -2.888931364119831 1.364885796897901
Ni 3.0421957433204625 7.592218451075568 5.5536416171033345 1.52224579500903 0.2522241916808817 0.8085160420764979
Ni 2.383844744758403 7.4702474596229385 3.1238235445497993 -0.7856221681974599 -0.052574174552290104 -0.801794149971632
Ni 1.777805115862844 1.4396934739955507 11.061197744951093 -0.7720948231349865 -1.1177295066582298 1.2325991968156322
Ni 6.121726543269336 1.2794129083073658 5.899278189738999 0.14065554087225454 -0.3867774763101403 0.391911455102596
Ni 3.4805723759756035 5.433698725501044 1.9260365987593042 -0.476782799125695 -0.9892563667847802 -0.18880510399428777
Ni 8.326158919127604 6.134974466589095 1.0766406168790048 0.7700536243352416 1.8885441775292122 -0.7371239634867564
Ni 6.160587731244783 6.655192191119665 6.094063114213712 -0.4215202791079644 1.2629605827163086 -0.5272378704524532
Ni 4.885835959039513 8.583734954970549 7.1386163598431525 -1.0335937552495746 1.18869066835814 -1.4089156814246058
P 0.4986652563567254 6.807483551141735 6.098517395163346 -0.18303092051467187 -0.3558579039131484 -0.11348360844315294
P 0.5555798426826316 7.939854623518343 1.657433804255903 -0.3148567789104384 -1.430040636328679 -0.4175358405389196
P 6.735369248213083 6.678874807685729 3.894713858968555 0.01927556040016035 -0.6360878367783367 -0.14257281249962545
P 4.213823326852775 6.133218496183769 6.795724065563454 -0.6985641009356873 0.6725779612845707 -0.6488081125584826
P 2.4439430617197235 7.506166707652292 9.859925519680708 0.44540711302789104 0.5902018728794997 0.12479929056628829
P 2.642937718386052 1.548848639558005 13.090519419724158 -0.040259618850995174 0.4699974007727454 0.138474988281168
P 4.128608197601668 8.43775957227025 2.2877527119128436 0.3854685276907297 0.9954735513390855 1.3213169111680148
P 9.061561163590357 4.9927478953930695 10.219636516889738 1.0830057300237994 1.6434689381882857 -1.229895938951856
