# total energy = -340891.3214600529 ev
CRYSTAL
PRIMVEC
9.06397312987442 0.00000000000000 0.00000000000000

0.00000000000000 9.06397312987442 0.00000000000000

0.00000000000000 0.00000000000000 13.26604087601302

PRIMCOORD
 96 1
Ni 6.400932542214033 2.1392698867604754 11.409511907841333 0.6917578766471312 -0.12817052103136634 -0.24148006579050024
Ni 4.548238295591453 0.4075470518321235 6.006240017150532 -0.18375185784109646 -0.38964888432066447 -0.40754247677163363
Ni 2.8399059498600474 1.699141476923491 4.826092580732332 -0.16643264983635853 -0.7241221519104497 0.6045951654866942
Ni 3.285028608921056 4.159756404953182 4.764432183960656 -0.08604453839559374 -0.15377896562809001 0.617763327437536
Ni 5.116658181865536 4.43724087998818 2.7017619345726493 0.1636568868634343 0.6856149969741869 -0.3763354550412099
Ni 7.085162813851746 6.243155961011503 2.5390409559986047 0.618568854057967 -0.6586137857949947 -0.4512784842070034
Ni 5.257775180357072 4.465756139622991 11.620892826450179 0.4326127894767001 1.2002503481712814 -0.8391162834608581
Ni 5.723690593900679 7.717846269995762 12.355168013225109 -0.177346725645701 0.7500013336700567 0.03464715776022421
Ni 1.957011513989725 6.384227639637123 0.6180233859172706 -1.2077649113807716 0.7769372388289523 -1.357911679572913
Ni 2.916632482857083 1.5112634407790655 0.25165577705173114 -0.26526996912124634 0.7250801449483448 0.8446629243107001
Ni 0.3771419537885845 8.91591318139744 4.618413388771565 -0.07362148214089256 1.0671448517321427 -0.3077391940290506
Ni 8.48161290631735 2.2694647975660778 1.608865210414669 0.9052319441430086 0.6547579023840143 -0.33968926457308596
Ni 6.977736603682712 0.5854411215150916 4.98415739628209 -1.0331893207223044 0.5758072947207244 -1.0906773876364444
Ni 0.6646910646463715 7.507335492812519 2.4938298577600677 -0.012268275844391776 0.06869062049817848 0.010452305681575548
Ni 7.594440275104488 4.091685966346243 3.877026608636981 1.187661198652361 -0.5471371804795416 -0.03656957159391766
Ni 7.837001261464048 3.916905371451755 12.47748089295047 0.013380535071964052 -0.4194410279814325 0.23328518868453374
Ni 8.004911364685558 8.702556316634627 6.939041595765684 0.1976458422143693 0.05503934826333102 0.42592329327166645
Ni 7.091045332447738 0.5903193518823692 0.3762147093319281 -1.0781291186577882 0.7017543257382107 -0.8519216627556425
Ni 1.9227134394639385 6.228689859810881 9.213000311236064 -0.036518406641008076 0.7213163070305384 -0.47176143465170367
Ni 9.01225415236324 4.811836763709563 1.347126669593782 0.8133659139696314 0.33249248971433054 0.9561143328151727
Ni 6.25779427770261 1.8916421393914236 7.109138835716336 0.6056554884304086 0.21407416297372167 -0.11721942133650134
Ni 3.317948959522974 4.27409842666111 0.7010901681560581 -0.16920455615454086 0.16118708516670305 -0.06829775593513399
Ni 5.886561128032249 5.401774522320912 4.928732106663239 -0.39642245559907213 2.0899628565224524 -0.4730958371924111
Ni 5.411282630190245 3.1962379276169846 9.16932827564406 -0.20306727034025673 -1.2921022372772715 0.6160882537279583
P 0.30910051989583215 5.526077850557339 12.54735324942626 0.3245410960777378 0.6310245633228165 -0.2240130193539884
P 3.966195257622798 6.03047889423744 12.736752220270851 1.0005321968089156 0.6312999284713903 0.31331694522714426
P 2.1836652274125106 8.644274969065702 1.2749393743669668 2.335059178909301 -1.1723898743155874 0.7866297835263678
P 6.162151232671928 7.769945987853644 5.82956233266877 0.5397923100786962 -0.3505609171802672 -0.8944042573998854
P 4.970311270847209 1.2321837064637986 12.6721070571299 -0.8030712169118427 -1.2981769827164416 0.4969824140020215
P 3.8610803606155177 6.159867111429724 8.269015602507299 0.7400161974328868 0.5413653109927709 -0.39477540691395235
P 4.844322043598679 1.0839424250501515 3.8302637581894547 -0.1312095649680063 -0.5921011467847416 0.3619755867751121
P 0.2011322841304343 5.769989368921218 3.7395116330885076 0.537426638059997 -1.6758509540634172 -1.1316851975073736
Ni 1.6863431467886043 1.180437483560068 2.6524783931828346 -1.4235516861702258 -0.016013344709120806 0.2750915831973585
Ni 1.9774960933840904 6.546663103055892 4.8114207273404475 -0.71607691300847 0.2983886060520861 -0.8857275555614939
Ni 6.0826783158003375 5.770487887446302 8.999324394617195 -0.273363030542026 0.4418289087583294 1.3618056153106806
Ni 8.523869149298116 2.41718036853509 10.055221073843434 -0.13208785380790156 -0.7839298680967015 0.43156866448290193
Ni 2.495502160812395 5.138701764647437 6.855053913851468 -0.6398323914224335 -0.009871493477441063 0.9347248113958031
Ni 0.8019150866556598 0.0432741271692556 8.91670265346171 -0.44381560017105504 -0.7199700774152891 1.3601575381842963
Ni 1.4221555204135772 1.079392310512111 11.365760109285315 0.5816071892319532 0.31998690104815214 -0.6164399806404222
Ni 4.016880995664077 6.642569003308891 1.643012822985612 1.625967696079729 1.0081663163154058 0.44098918646585344
Ni 5.322075006119739 7.828789301759935 7.7562430731950585 1.229654255254695 0.1921935608505464 1.8073348557387325
Ni 5.29305216398666 2.993168672417269 4.884330421229976 0.5375657347410225 -0.837928433800344 0.7572672712038507
Ni 1.0949460884947353 7.283972001655289 6.933456375490105 -0.7498388399502635 0.5825849797641902 0.25801508733104594
Ni 5.081734693190099 4.725130796237661 7.14307344491747 -0.3301047062084444 -0.19386477790538223 -0.5366481080227598
Ni 8.174235447723673 7.335201578087569 9.08526173716315 0.09617571329232469 -0.35734580131258453 -0.4148811765248919
Ni 4.692908371570861 0.20141236090179973 10.74439211726339 -0.39515695862308714 0.7316254022660303 -1.7264505213878394
Ni 8.00937990346495 7.134235164666388 4.647438950096598 -1.1329702348673842 0.3797465376052879 0.7185713972955495
Ni 7.3102031400478955 6.2531988432986525 6.929065786880092 0.25466622546347106 -0.6595949187613414 0.01687183605467417
Ni 2.291599020079812 5.313835854496076 2.768317783260651 -1.5166289630428849 -1.2147004621583404 -0.7050443093433921
Ni 2.4118870081960155 5.192840876471571 11.58305798958825 -0.6555423459585227 -0.19144279872745093 -0.7238871530815081
Ni 1.0938584117127335 3.2850648648137892 4.124014439499288 -1.1751288705133052 0.41981178105728983 -2.550534593105924
Ni 3.655844815824982 2.6373352131854157 2.7379117788197935 -0.255651729305192 0.08380896419685566 -0.7069831782373179
Ni 1.1268331461537515 3.550702726898152 8.381139669977262 0.14344313091972072 -1.6381686090212948 -2.0810534698479644
Ni 3.6883572876336492 2.8934196475345306 7.158966215497152 -0.2816054730564763 -1.075395007556077 -1.0257534332695497
Ni 3.8740146503481547 6.955412037732128 6.053480538984821 1.0926877331982536 0.40939135705491425 -0.4322752036316233
Ni 0.5866982945956218 7.0087535199161275 10.972819650238156 0.6034510245799221 0.8259980009113452 1.0511042533295123
P 0.22893964745962586 5.470715102353453 7.958032495381286 -0.6226317112734309 1.7345865202314128 1.0625680309947378
P 8.43756199664628 1.533189191909583 8.031805079517868 -0.5379436869057317 0.16292078002835814 0.06601873009297017
P 2.0484035555974174 3.109885455099234 10.42714761746232 -2.7002247333766207 -0.45443014246210767 0.27488255251034593
P 4.000583971880418 5.924729519107326 3.878751482733772 0.30713575611709687 2.076323154251831 -0.05086799049446078
P 7.014327863423886 4.253749806864495 10.397498454782273 0.3429512231538094 -0.3796231246535462 -0.16819616949468452
P 6.2265054422736945 7.704902916289942 10.039567592155793 0.6663371225811815 0.09444201843066961 1.0642351342845155
P 2.2779849323584243 8.678509595779206 5.482045068832638 1.0199967332914306 -0.46175367270671447 0.9765116655246022
P 6.990634637522616 4.134304768254343 1.6369762168455027 -0.7165458822250885 -0.5483150028377267 -0.6204827832512282
Ni 5.210098681412665 3.0367210635632533 0.4653353192598733 1.3931555903768718 -0.0898384582203872 0.4676936923402332
Ni 1.2416736863867632 1.067518505641926 6.850583562277442 0.9764293902234409 0.31305494981500925 -0.33101179140374604
Ni 6.7757278333454485 0.5891899808237242 9.270946291797205 -0.43482779485014794 0.3279892025273384 -0.4601246217437237
Ni 2.6844225538729054 1.6404522505613166 8.904007652621114 0.35096895125196326 -0.5788350258034548 1.2204581905777239
Ni 6.292409591289814 2.2064792479149964 2.7198699401983406 0.9936670942579662 -0.26276494331120553 -0.25891857298192184
Ni 4.234026601217531 6.654741919294127 10.512754124987081 -0.4337697858992788 0.5893860618464237 -0.00898806243122323
Ni 8.169649077292899 7.333597254834115 0.4687116492706702 0.20916489859756238 -1.0746866686351428 -0.4113024580346981
Ni 7.405646777668545 3.9432452775225624 8.15375993230249 2.358315064113448 -0.47913510140795545 0.9671718761809148
Ni 3.4401494459808637 8.44982555236335 12.583039018246417 -1.1779408860408036 -1.084786733183622 0.23822839162242196
Ni 0.3299666925612162 4.618991670260663 10.172572334648233 -1.3234774091544432 1.3759397407192175 1.954994338732646
Ni 8.558575102617153 2.4153041260861374 5.8947649301604965 -0.8449395750108545 0.34882773653924437 0.3471223238123634
Ni 3.7394418404949956 2.9063720652135343 11.525350391521831 0.10425309098382045 -1.6510629484854595 0.7333161597048918
Ni 1.3231588053050565 3.376783209456082 12.799328078334046 -1.1173785510767145 -0.521686858727237 -0.29852204630615686
Ni 3.0164540195252885 8.320872405883867 8.172067345338215 -0.2769196375450328 0.3222412442999676 0.10683139323395796
Ni 5.5440426454067335 7.7186892195018135 3.621257600554647 -0.1280440227558311 0.2016958439140268 0.6154979284421271
Ni 3.2955337538405556 8.510989243404579 3.3885980985005753 -1.0554026235945502 -0.28395211891178196 0.5512833414374312
Ni 3.3394215119943236 4.274488177507994 9.255027235695291 1.1917315120669927 0.20317628511429522 -0.10707873335807366
Ni 7.421898481586286 6.375127410561042 11.448514184449278 0.2032786150201144 -1.4213119982064297 -0.8224113120013514
Ni 0.5360406548712116 0.05179970034551218 0.16814032814036803 -0.5192525382541315 0.20623924031033514 -0.0717206655737539
Ni 4.843397518333978 0.36568690447947005 1.6728215115936869 -0.508834171134285 0.360891609682314 -0.654631404108479
Ni 6.1732545998215285 5.652891899365554 0.15099038448015636 -0.4304895724861102 -0.16870216259682558 1.9438205815040135
Ni 8.129260012787903 8.895773032984042 11.309525406861193 -0.2483140579931982 0.1560911587010344 -0.18337724811049708
Ni 0.14546408003026942 4.8914093842861694 5.887907128049976 -0.7842754243615783 0.3021982096061634 -0.7132641261500232
Ni 7.6671061481153835 8.886002069892395 2.6154130876441717 0.31912635282006974 0.43169516275843717 0.26879597999663385
P 8.47546753249904 1.7581932622129994 3.7632438340744656 -0.26738033059602984 -0.7013601756235855 -0.36940247536680254
P 1.6782127628431418 3.1485795566189436 1.7672753633427136 0.25956983341267553 0.5853252615134887 -0.5198860580730724
P 4.63403786574502 0.8684301474643364 8.234563440437396 0.3519909647585744 1.4092049305302503 0.38797920992772533
P 8.607629325485428 1.7405819623177554 12.4638033574168 -0.23718940883494632 0.4170835834928494 -0.7310168221477539
P 6.173617158748863 7.818148197242685 1.244459045346006 0.5631664660282624 -1.3905256089531923 0.8432385331593478
P 1.626611563510345 3.2686953292446637 6.111810832008935 1.7668610639944022 -1.5174851403955931 1.16207383710156
P 6.907372979860386 3.9975112849712633 6.170818203829844 -0.19117026179235466 -0.5446822911811458 -1.997728901486695
P 2.367663883034463 8.17764350164061 10.385386267417365 0.051395837973472774 0.8186127641908676 0.2914638539077948
