# total energy = -340872.6991941275 ev
CRYSTAL
PRIMVEC
9.20001490309653 0.00000000000000 0.00000000000000
0.00000000000000 9.20001490309653 0.00000000000000
0.00000000000000 0.00000000000000 13.46515176243808
PRIMCOORD
 96 1
Ni 3.454026076016265 7.291186781639354 9.658176791324463 -1.7758789512222963 1.7883578004155973 -0.38130102657660137
Ni 5.165256488088739 8.039847211916337 3.9882028738313493 0.10133000379975453 -1.7009302656295482 -2.3784524582932716
Ni 5.25674143842636 1.5472493426016598 6.530423731474082 -0.7585137420164421 -2.3095864885594932 -0.25997709615342324
Ni 9.05020207223693 7.7529999405389525 6.340861099964975 0.10108986276449042 -0.4961532332325069 -0.6643877121642945
Ni 5.820279164490388 4.5338686505263235 2.300036899660768 0.8909726060105172 -0.7543593535284363 0.6586893762279366
Ni 1.9217267579820463 0.2078642215841909 0.8176927437180874 -0.5413431995055838 0.13440621752843304 1.7644252008594
Ni 4.667784070590124 8.047115223859894 0.9745888815462018 0.16848233327653564 -0.21157967868664204 -0.2645048088204477
Ni 5.209904161458457 3.075270653605811 8.196022988560678 0.7695957108622166 1.0434788755737707 1.0110413238703553
Ni 6.64483971949438 6.3345876096557205 7.062633566056848 1.1831813085041365 -1.13522920610489 -0.08425247949217748
Ni 4.47499775378352 1.461082001002488 11.856564563944774 -1.3965283635038466 0.3313604329924164 1.5730294533198006
Ni 7.932759035937865 3.587177894825235 0.4881390021609724 -0.431010992207219 0.7092696602786495 2.0063094440668543
Ni 8.948321104815486 0.24740772656620683 4.036529633246926 0.9516544972716062 -0.008834310462178335 -0.16700497740006076
Ni 7.132587721012819 4.2343529583308674 11.647868660993876 -0.7952131543200047 1.3720661166964243 0.13318031554113194
Ni 8.105351319559526 5.681000135612546 10.08328464990608 -0.5522467337919651 1.5939062967688098 -1.0903439155564254
Ni 5.524489478417894 5.756063058963779 0.2409511559560959 -0.3634120621113225 -0.19852490238521295 -0.7106907089958923
Ni 1.983514059517391 1.4988296630333873 3.028878657369639 -0.7609352069737411 0.10150740991788325 0.30602503955142135
Ni 2.1414323190251623 1.4939260549752664 7.967505653037135 -0.3759132799021268 0.7183137727587887 -0.7362245916009384
Ni 1.7378000557344861 8.341570907740216 4.664058984468673 0.6116037355940435 -1.4831305741751233 -0.085561171001272
Ni 2.898933963830952 8.599419731464323 12.448371176463187 0.5026594097821407 0.11608247951858072 -0.4866815462966456
Ni 2.298531777187394 8.429228651788572 7.463020064013744 -0.6590344182721811 -1.4348665969624126 0.1710135843388216
Ni 0.9894432259564115 0.37423453498125975 11.50314506316895 -0.07623449428370742 -0.7165340551505467 -1.182766075343589
Ni 6.928255385232592 0.9909060283602411 8.13406916675169 -0.19487213612397405 0.40769340052720104 -0.30540077570386115
Ni 7.4258934030033386 0.3272150977140114 12.145607878930926 -0.8119021849399113 -1.9225480452784824 -0.9798443294422609
Ni 1.993532875981356 2.8780867295726 0.9765034046923462 -0.039022404009784406 0.7554469301656602 0.4075404198891046
P 4.976656178161019 5.706548577596414 5.632675216199994 -0.6980069428806366 1.1345946578446848 0.04608342462162386
P 5.334196365708383 8.64716780992895 7.7604519527848765 0.33447146781757237 0.41350512211297175 -0.44973222276580604
P 8.102434914766985 4.681234492693261 6.0412350075880985 0.48222428185624056 0.34319110707875733 -0.47232424913370913
P 8.535360026194727 7.786165995040876 11.406087663674098 0.6204416456006476 -0.9773755561867942 -0.8609428924176463
P 2.714694461069365 6.634738102894349 0.040551826638995335 0.7124015210394118 0.6720737679546426 0.4259310065811503
P 0.6462707020194912 2.8105034185126474 9.346552959231646 -0.29576350972441323 -0.6711101184897925 -1.9348610583178807
P 2.2700577303958673 6.18057935657328 8.240121421027826 -0.32633366920178636 -0.7041079135720518 0.5702963922048242
P 1.1944747628856391 3.7230345180790225 2.8197236736643334 -0.7196137225171348 0.3507231537897444 0.8450917843180027
Ni 1.3254645781417795 5.494589429283011 1.2288092193076026 -1.0747805139005298 -1.2554282788950055 -0.35274661197767637
Ni 4.075615897477556 1.4832908374983669 9.546631208021115 -0.8619944736106123 -0.7426425793121404 -1.2127173702900405
Ni 1.0927225956758546 4.932781306061248 10.14348770883803 0.13156874807963792 -0.012739816164171606 -0.620250612635764
Ni 0.23935587333456093 2.7911557867185985 4.645867794575011 1.1588419604278235 -0.9857388405498249 -0.537064883845204
Ni 0.1459895199052211 2.9442900383647888 11.36554411704871 -0.39325331384247114 0.2508977595599744 0.8427284262921487
Ni 2.6435967442341743 7.484414699171642 2.305233988201167 -0.36990666869673067 1.0426571510034237 0.07266297488236517
Ni 0.5044754690067603 3.231578910467858 6.864548040542032 -0.6929830073034839 -0.20163516587942046 0.9770102024275755
Ni 4.206311312249907 6.672780165409037 11.730019275992342 -0.5064628426886311 -1.9893375920992062 0.6306365838557784
Ni 3.928489255703698 8.682238267560388 5.84084671828914 0.46224449630020387 0.34261543708094544 0.4850141858965518
Ni 7.078804432630504 2.8397410665590033 6.45771233198712 1.6014789669097451 0.7149214592477882 0.33015947070577983
Ni 5.2172457735229605 3.615081540679419 5.1116010799165705 -0.6620639491271243 0.4359487958284685 -0.2077633902643454
Ni 6.633284500505638 5.820242364429914 4.331604478144719 0.6226911037564566 0.8030971850537717 -0.3917273641162479
Ni 0.16939435836649522 7.2102174485820925 2.3721962982406257 -0.4047718560050319 1.7843054847230948 0.6871674290629713
Ni 3.448184066416065 1.873905079396471 4.983546989484719 -1.8227051675472155 -0.9559878345396374 -0.43123184996877345
Ni 5.5799011694761695 6.978174667265168 9.085611090424726 1.2233067157701125 -1.2471328716554326 0.7871987686559604
Ni 7.99600913987704 3.7069620916671338 8.630328102256184 -0.6604675511742819 -0.4718984744502002 -0.17198109045841348
Ni 7.764647159678879 8.142491780592609 9.113147655675684 0.4540573325037212 -1.0653101125162492 -0.14541799525790441
Ni 0.8631914184862601 7.494056315015752 9.521437886620818 -0.23648441234812176 0.6164250682420868 -0.6658735526812015
Ni 9.104390161284455 1.5543425542579659 13.260320350742841 0.7464593819550693 -0.389112295090904 1.5979565555787834
Ni 3.6789572456466466 5.486199015495007 1.7986885157927608 0.356510964116115 -0.7540510782593982 -0.2143073620304503
Ni 3.743108951067427 4.961356553019077 9.849341145465688 1.1130616688689152 -0.6025421396124074 1.6633026850847612
Ni 7.319219227705196 8.183763048413866 0.8317936068900981 -0.14534960391381418 -0.23928022992570408 0.027350366988494832
Ni 6.037703121784135 2.3285422265036972 10.421434885589852 1.8426031920227235 1.4681292156702845 0.24572290022725427
Ni 8.483453540896571 5.096569175214574 2.6575366071416124 -0.06330904447129096 -0.5597589830086103 -0.4548448614020231
P 7.210143848461145 2.3556638710728155 12.455454268102862 -0.7345695724960188 -1.4398303687255913 -0.41882010656798196
P 5.001496218980767 8.57238088703127 12.124386204057252 2.3972402804237363 0.38924522112434257 0.17480621861203444
P 9.135900213065062 0.11532770951853304 1.5375718466985884 -0.8769644646568832 -0.795589563822817 0.31791639167236857
P 0.18681550699474553 4.607763171957517 12.752967117007037 1.1497250857282197 1.2801710330573242 -0.17461390009557026
P 4.624635999684709 3.996495767459098 11.84370570281375 -0.2055581550829105 0.3120920716811077 -0.8796628374246527
P 6.136456084065312 4.536628655061851 9.619989368570902 0.047204168489628384 1.0873933175685337 -0.31129014460510257
P 8.355453730553918 7.3805189284392645 4.286456323952558 -0.540429943662695 -1.058357849568132 0.769454814408978
P 2.3566758727358423 0.08015237171474549 9.556636224462402 -0.06649078463338227 -0.7806103168051653 1.0194948539543474
Ni 3.6319083683310196 3.4892897339651894 3.171595731897236 -0.31077515264189703 -0.07835514017113603 -0.7364593333195639
Ni 7.369497310327391 3.4898877349478865 3.987569912791202 -1.1063480042941656 -0.7987934154720953 0.28444268539495526
Ni 6.562757184607789 8.218833506045302 5.770006601877264 0.6778245543954907 1.326450375739838 0.44007155974759044
Ni 5.550497921157683 1.2027363764619852 4.170130412793676 -0.32965502026553545 0.9784104252092117 0.002756736809530736
Ni 2.355765071239118 4.135553995974098 5.259245682541596 0.23493712246565987 -1.950990102669259 -0.9147887345935084
Ni 8.530401218045895 1.087883387723563 9.995532145702002 -0.5453176107722995 0.3771057575483312 -0.7242481359653526
Ni 2.4829000801606385 2.9291284134496243 10.527311419577227 0.7566802883521291 -0.721137358250513 2.1636241907623446
Ni 0.1230373221877735 5.714276590295891 7.57626213010493 0.15519487213901012 -0.03855703433759166 0.5191784904830864
Ni 7.045086377221476 0.42296333505751155 2.7337762124264913 -0.33462521978661725 -0.5195770114730859 -1.223359423384919
Ni 5.900282495960214 0.9329183330688059 0.43097194821810086 0.9434485644220462 -0.1406362575985449 -1.509267637581807
Ni 4.439936496167201 5.317387938087021 7.63238498233186 -0.5968049800183141 -0.40285329882608034 -0.14666189496733453
Ni 5.855984423164996 0.015889346111032453 10.025828715488489 -0.3063739382504078 -0.9646501382003257 0.9385282443022932
Ni 2.6345899294332358 4.515220219881276 12.73061476027531 -0.17891561279471768 0.010344833569433796 -0.6905692556556687
Ni 0.4740298589753552 7.588807270720414 13.464775046724144 0.002018573091925556 0.9618910873979497 -0.28745447563808557
Ni 8.736536756789334 2.0242793265071337 2.376477985276741 0.39633838052569803 1.6603664852745725 -0.5907659729130857
Ni 2.662346375045525 6.147928502917988 6.104911072227255 0.6975387449949665 2.26303615160378 0.5934545754888425
Ni 0.020475553647567497 0.35597986498328016 7.644610882422735 -0.3229102453425342 1.1394429870759215 0.8645627485584207
Ni 2.293020968131457 3.799716644091098 8.329771888350834 0.77584092044098 1.7003756786776587 -1.2426473250802534
Ni 7.8628389210378336 6.006883071137409 0.10746629659983856 1.0226943347282518 -0.667215925641709 0.22196590701697255
Ni 3.921120043593839 1.3092265514577588 1.4491192213439994 -0.5572526716469887 -0.05074252066019003 1.1046263936173686
Ni 0.7302337199962886 5.872673250589821 4.690410587772379 -0.842900947314271 -0.23458590977382826 -0.20853986341905376
Ni 1.5961474229560908 6.683967383793043 11.592499290005145 0.08012791580084265 -0.34197626083504973 0.3122273117073913
Ni 6.546114357258557 6.67083896221905 11.640395488713178 0.4350375968681089 1.6160658635849845 -0.15721935876820667
Ni 4.970142567457174 3.341730691480765 0.40217222089138205 -0.5178404883979533 0.2442080062446246 -0.4440084329081514
P 1.244412444948452 0.804012321236989 5.839028795301739 0.06108684000899157 1.1937110043908667 0.8271303147435753
P 2.873643122270401 6.04024232595682 3.9044367361780865 -0.026424512740115782 -0.7171662894179068 -0.21342598786676145
P 7.5499004067845945 1.0675605543269613 5.37476383237308 -1.457459137550948 0.3307906765318755 0.33901049333850647
P 5.875543655306769 2.2758077398448835 2.05164477147689 0.4772911062206812 0.37070242512514867 2.520088875021557
P 2.2292648633607692 1.671550746866705 12.750987273753552 0.977350873596446 0.19568974692926297 -1.939987066690536
P 6.329233200856797 6.6567169390122665 2.120411204481072 -0.2377684212668679 0.1618306322879729 -0.04786597044334337
P 3.5415090197773718 2.9399752312742473 6.7930749630900085 0.054969414257344036 0.439738601888204 0.39292446974814266
P 3.406121597294624 -0.02186107592440236 3.5010335532638592 1.0762139039129466 0.41505369754701427 -0.30899543503365495
