# total energy = -340867.99974092224 ev
CRYSTAL
PRIMVEC
9.27261951145426 0.00000000000000 0.00000000000000

0.00000000000000 9.27261951145426 0.00000000000000

0.00000000000000 0.00000000000000 13.57141594575619

PRIMCOORD
 96 1
Ni 6.1581411953386125 1.1580945135760212 12.533175446698351 -0.16519389233325096 -0.16531242018898626 -0.6637012276202311
Ni 6.9247364498814274 4.623105435014319 5.994168832128038 0.5702174593377728 1.4693466330171534 1.8366947969580882
Ni 5.543431444762163 5.468480863042984 0.8917505788825726 1.6665903546970975 0.5990986611484973 2.3151737528392835
Ni 3.70176870976389 4.70067089537321 2.2057892218880895 -0.2718571354204608 -0.7106696259499696 1.9925103334002328
Ni 2.2199206936856926 2.4399135863353885 10.968471940956453 0.0730380988335968 -0.2759441610056409 0.43783984220359434
Ni 1.9611775250240653 8.521750397538518 6.935305381347903 -0.7589965951901316 0.5557953703751718 1.5538189418296209
Ni 8.735122640015321 0.2877692488243816 10.204632508866554 -0.2440159448384765 -0.4558352503397504 -0.4256849520086152
Ni 1.4003231472825755 6.560220512981441 0.8877049350864478 0.06673735342654957 -0.007475739551754867 0.5230436298654476
Ni 5.0127130797124115 7.153668147526458 3.219112185016854 1.3319378812169707 -0.5775769850266376 0.7212839111307061
Ni 0.33659051664692796 8.390709741735547 4.140869887183038 -0.019964101826752713 -1.507685894916984 0.8736986494214178
Ni 8.072306540563565 3.2182665221376268 13.351083521866874 0.4751699461126204 0.08238611570740005 -1.9790310679668754
Ni 7.175699890958942 4.571642397956118 11.054433758082228 -1.350165717078907 2.787718088403599 0.9573852291077964
Ni 3.602616591698423 5.546815950802927 4.6683094540519265 -1.2341657699718036 -0.13861434207250967 0.24028116038639263
Ni 1.291694412302968 5.870606543782262 5.250875669860403 1.7238585922909475 1.2734635391301616 0.6388718272813771
Ni 2.4521534437978794 0.6331325905813571 8.965616774010677 -1.77351507897581 0.5709476526355779 -0.14621092347284498
Ni 5.617093132400062 6.7137658158006746 10.483823657585974 -0.7111154552381366 0.03290086449307882 0.38432978610059615
Ni 5.33756075129078 9.412914019620048 4.596149930738969 -0.38456092827479577 -1.023944919305901 -0.18780057398917333
Ni 5.34906807182938 2.246922561057491 3.7171158219503813 -1.792051961437733 0.40600238597802335 -1.6948154109810618
Ni 8.671976102652016 5.941532808729682 4.342445503399401 -2.42217329621999 -1.6108593796833806 -1.7618998633343852
Ni 1.3377051492187864 9.250244459419685 11.805367558644628 0.13707656527174455 -1.4003757622743946 0.32973652423574823
Ni 7.20866405253406 0.5612735001333873 3.1322963596544917 0.8160591445310784 0.07285503628851323 -0.395150530865184
Ni 0.8765499740808594 3.162751350449799 9.18987043522402 0.6782976373771673 -1.2086645403769056 -1.668426636574888
Ni 9.113148783220495 8.076683216868334 13.215980531553056 -0.9095200299954014 -0.2997577184854708 -0.24317802231821345
Ni 3.2590104112968583 1.6523529395784122 2.385121678952162 -0.38137301746511737 0.42275646550791063 1.1931870135665967
P 9.007533649510064 5.658588103721765 12.307333385800673 -1.0469228682583132 0.6736555106194657 -0.785326491333912
P 0.2038900619910883 3.272900794992928 3.8341826404836756 -1.916496953988396 -1.1630948221669066 0.6015538075572091
P 3.111724126498217 6.72583876611595 6.735358037078823 1.4390682937485861 -1.3508342039008412 -1.0866052744495995
P 6.417783808071348 5.162929512206619 8.909213285394888 -2.354024407157894 0.4351306708025474 0.9321207981140527
P 5.0408091161604025 -0.26658316827112444 2.110110627008569 -0.14488243446940854 0.8088687974302263 0.0892213934616786
P 1.6147524683584116 0.6066156811984135 3.600008203892212 2.0240539125344688 1.1166822963406382 -0.4534875760431803
P 6.835988210659078 8.459688756632115 6.052444462578429 -3.160406433610525 -0.8157827509412401 1.525113603475128
P 4.087797123416133 8.4341519631081 8.927901322311483 0.9162290665844608 -0.6039207651274889 1.1208282001882115
Ni 0.8864188227909572 4.64602734989862 2.5177145712242406 1.2403245904843478 1.8431930030879224 -0.9615835834598601
Ni 6.832288435562463 7.668873420504431 0.7431735454787958 -0.35473947403798906 0.7362657292515191 -0.10006604948566637
Ni 3.6233316231917603 5.9798287263964145 9.284449297455772 0.34503664492792835 1.4374605829418339 -1.1662760481083656
Ni 1.509183697744427 4.586923674545652 12.872908454022582 -2.43924130744587 -1.489874577767176 -1.276313864094763
Ni 7.943611857440905 3.8681009545837104 8.372979566391585 -0.14461786795411222 -0.03516754904006846 -1.9000820029654826
Ni 5.871626531904136 3.7323405355622477 12.95417368947809 -0.6960850432675754 -1.2256165948502118 -0.12450052837894689
Ni 3.767557943624779 0.9786786029383409 0.2945280610246919 0.7340584371875551 -1.063770278832955 -1.2311256975938991
Ni 8.525116358340703 5.649343302289868 0.7341429415524927 -0.8316325734893032 -0.31477167539579987 0.40106046859171574
Ni 8.708055864308495 7.823012170958209 2.0817735024590447 0.8331099293657781 -0.1262177681803697 0.24980298383389882
Ni 7.266321199277824 7.699612153450005 4.125343813444253 -0.6310906406740615 0.047422455148021556 -0.4673149688445758
Ni 3.9433575327394506 4.202378879979771 11.651399424385781 -0.9464536697969572 -0.9069805514029992 -2.779730699322748
Ni 3.282599954770023 1.7703933831371321 5.508461615634668 1.440313736119913 -0.7861333035059236 0.9976872711609529
Ni 6.111156833397369 9.278831944690033 10.387670304598819 -0.9626446777345228 0.46003051936802064 -0.5079237435048736
Ni 3.5634490478184517 3.361890122316811 8.655835254254319 -0.30229462597471163 -0.6321424789773435 -0.2698691584561546
Ni 3.518931202608286 7.288380760568177 1.627213014159999 -0.8488427667200026 0.6531933861103718 -0.744911320741659
Ni 3.3898285242368758 5.220697930381861 -0.005184321444908109 0.7348930172737086 1.1726223020413675 1.9358758727356402
Ni 7.243992732028068 3.0718611361715134 4.47307074585819 2.5464452535278985 -1.3583227989684026 -0.43487021805230913
Ni 2.3162539354870706 3.33143884056922 4.200095033848701 -0.048476093223516516 0.6894945345342512 -0.4913691815803022
Ni 1.5629185265286203 -0.09643245882777832 1.4204113497119242 -0.47227385551174794 -0.05907906555034341 -0.12583518802997037
Ni 1.5429823950556236 1.853420416257696 13.407798570490797 -0.07660704713177774 0.8513300519182305 -0.05712322737555323
Ni 6.300123541903508 1.392654691129939 1.241236527175778 0.6277595194182995 -1.9874863978230803 -0.8918506377400962
Ni 1.9651091156029261 4.276216747384177 6.719424895353219 1.2105473592219151 -0.5032487066267074 0.6962560216278009
Ni 8.719396277699877 1.643367771486629 8.054431712358683 0.15424099286617307 -1.6151801185459214 -0.9872334228174804
Ni 8.130853858759146 2.8438474278361703 10.27513594237436 0.68245022609296 -3.2077990639618754 2.150028197245465
P 4.145648995164983 1.903882010432602 11.85510681577686 0.4322528350341201 0.3220486686731873 0.7337270219900653
P 6.682693268560669 1.8875343826247446 8.903011757613893 0.8041996740893312 -1.8948734621813492 -1.6027375219071947
P 7.069704579857628 8.269127157608136 12.109515962182453 -1.7576598571111084 2.194982907579284 2.9633527164542
P 2.2173985412388766 6.429513671472901 3.2638850272574884 -0.28144683599142495 0.3745367112695743 -0.5420430537860859
P 5.0878212959595155 5.833822063059761 12.480274226388309 1.2908781350621834 0.5923562002183411 -2.1599043187085964
P 1.8607921485930596 2.184425107044469 7.3373856262526616 0.2940503836880484 -0.5978483336811639 -0.05327480016374051
P 2.245568758641185 3.544199090172898 1.1218496992961842 -0.28086422401507755 -0.9808162064372271 -0.2670183192709208
P 9.032106090627943 5.051277903338549 6.9073892337141345 0.450771719773914 0.6726921182649318 -1.1038473493594987
Ni 7.802964768053735 3.9170325665758052 2.2552567912751327 -2.8356804752154905 1.9227503910972754 0.9871634888114934
Ni 3.1028595024572008 6.803728768149983 11.70488481971108 0.7616859690968366 -1.5155825240562415 -2.036532504617454
Ni 5.436304874107497 6.557744723631074 5.639506907747284 0.7968445192758405 1.777744029455493 -0.6438176013224267
Ni 7.994722534966094 0.7373151046115216 5.265152721780857 0.9730476182354018 0.6984926242678036 -0.26678512021419215
Ni 5.858533593466987 7.000836836392537 7.916613699116822 -0.9033694370129731 -0.22451824112518107 0.564127544389951
Ni -0.08948077614624085 2.474982632489283 1.5602786118168241 3.2576308998823382 0.08556554187664618 1.1586136464671015
Ni 4.440008294518601 4.89431100400139 6.958376585402769 0.3151403715891282 -0.4031006389501961 0.43614728499251987
Ni 7.857218863518155 7.268361175521572 10.649286130716415 2.6624323451191954 -1.630637333641256 -0.6747304888511992
Ni 0.9995698141981835 0.8897235843058298 5.709128515160634 0.23078941884587348 0.36204963454615713 -0.1793447299123363
Ni 1.2642938223017097 7.031056302657884 10.217769955876296 -0.12802782480591499 1.347298937054073 -0.09117028965793329
Ni 4.872668710579077 7.95128958621283 13.123151412581281 -0.030330789773057438 0.3364147075868722 -0.6736539679575688
Ni 7.370573257952662 8.629841320599319 8.510091933305494 0.46951171938557845 0.6358417822058017 -1.8365886103975275
Ni 4.537361524441853 1.2548913863418873 8.171837908757983 0.341654872939889 0.5948907937147367 0.948633193946779
Ni 9.345594803576349 3.054345158333146 5.96406712812767 -1.129086840652578 0.051280652551847175 0.26473672232559564
Ni 9.433128329671737 5.01158182015906 10.377559440525257 0.2918106957242523 -0.2028924353252893 -0.21669668819823326
Ni 5.571453300255835 4.836264407247457 3.908906970292183 1.7298371784718853 -0.6346061100264876 -0.9451352080958496
Ni 2.802473000565235 8.345208998880665 4.823077815355481 0.5445143981447139 -0.18671608267574294 -1.5794865217990541
Ni 8.23367793406336 6.267901189871571 8.638627127376372 0.37621512741326174 0.4091769270512631 -1.3207630955470737
Ni 3.3998893161662718 9.28773365920821 11.060011238585021 2.0752031817147745 -0.5588590969021602 -0.20754073273057808
Ni 5.531840670649956 2.72620570690691 10.342626701874922 -0.7189933153243165 0.7110115826704206 1.0804649658798167
Ni 8.579240637135067 7.469178291480032 6.268351839169054 1.8211604487679154 -0.8610143690855301 1.0509129632543128
Ni 6.337770376219957 1.1261410675034877 6.8321354373441805 0.14250750647932875 1.4448859288716278 -0.09388588881688348
Ni 4.476820593098972 8.699571417658358 6.716900888382544 -0.30781632712388923 -0.7842458566752236 0.11918785791678181
Ni 1.3060206091056563 6.39153302286202 7.8416992806128745 -0.28137793042670245 -0.5050955300274592 0.3606396415725079
P 5.400790742227694 2.9879995673148705 5.777311012060212 -1.0417204981217671 -0.0661547414502022 0.5151706548752741
P 2.574718925570005 7.934765778638468 13.240110668730814 -0.812537247420749 2.41408023479921 1.5568279038592738
P 7.1307925957386065 6.227287117382397 2.425401937146905 -0.3848902865897565 -0.6601394784109018 0.9837421218347704
P 2.3143159580555093 4.529646705192768 9.849631206619797 -0.655489124123084 0.5150894080153774 2.1817011028687134
P 5.6060958059224 3.191255382146539 1.5497467708275077 -1.1006447832618012 3.816766390374336 1.348242531914265
P 0.05839061092958479 1.5847555449560191 11.692602308199856 0.10533295431156055 2.7902236284342723 1.2912848835822988
P 0.2673490866244591 8.297510645254109 8.489680116462933 0.5756337452573377 -0.13641707731087474 0.09146930895559086
P 8.57032037737831 0.6139225051987491 1.319498361243331 -0.7642817548484709 -2.797143752592873 -0.8292936409434815
