# total energy = -340865.25254001643 ev
CRYSTAL
PRIMVEC
9.30780628004986 0.00000000000000 0.00000000000000

0.00000000000000 9.30780628004986 0.00000000000000

0.00000000000000 0.00000000000000 13.62291533833255

PRIMCOORD
 96 1
Ni 0.22617597237455347 1.4935678460184671 9.399266766296577 1.5909528705674405 0.6145661606564771 -0.06519083487503612
Ni 4.961851974241915 0.4253928142948749 9.619304240350951 -0.2901723887898809 -0.7092532052184172 0.7860417722333818
Ni 2.700818259395507 7.016289618254828 11.733226213498964 -1.296359984112361 -0.42031546016658583 -1.4107041407835963
Ni 0.1786121508947264 4.115083594893998 2.144328715092457 0.14348503990124967 -0.648522977217896 -0.042491336394991336
Ni 1.1516548857554652 6.116904209333035 9.479437695153583 0.2634964221605913 0.7283179351593522 -0.6209137001410597
Ni 8.739443816912464 4.286384463862265 9.144490697199636 0.3426997692646356 -0.34478339126654167 0.7534520112228185
Ni 2.8819295563083798 4.485906601832475 3.5619560302622886 0.5170172211657096 -0.26450378037918315 -0.890970292017672
Ni 2.98559990398109 8.044550914577979 9.571269443867331 0.14994005149797404 2.0918058232684618 0.7254488411416732
Ni 2.793551934549323 1.1950013401558788 10.550198435494835 0.8146329536075131 -2.6145154668332586 -0.8908854456133497
Ni 6.567858121561004 4.739683943302795 8.349240095489868 1.9996950240741302 -1.0074307237009619 1.2701177625863804
Ni 8.401933449076216 5.891282982219866 1.0161322938045385 -1.7725817685282632 -0.13437947805555567 0.8019522728160512
Ni 0.7220614584326953 1.3941232424509298 0.9405631444312252 1.4590691623505452 0.04240443310813987 -1.7819567819852602
Ni 2.246150532414314 2.4115688677383758 4.79330435440649 0.5223504604531649 1.6972150215614898 0.918617107200663
Ni 0.7349062312633955 0.6996929380944786 6.8844631562249665 -1.8566838384855056 -0.2472087407441613 -0.5546196048995158
Ni 1.1006760301078236 5.842407690818412 13.271048955822394 1.0101676630161507 -0.33808155376633386 0.3725929572796422
Ni 4.14303493751037 2.7191918692272474 8.685276106792504 0.7692365277505849 -0.4051212689246507 0.1651689526325865
Ni 1.3188789355209436 6.983144519667781 1.833140823752746 -0.5442218066049594 0.6331799191029225 0.05935417358860101
Ni 4.754632280379683 2.4909551485159427 5.849965629614447 -0.5832028158538471 0.8644617042041822 0.1232460871465555
Ni 8.844380026255445 1.1027982099668088 2.7326891192865217 -1.085751925310369 1.5910773119604469 2.3390261339768488
Ni 3.6729255597131396 3.036951071884694 0.3918968114065843 1.185951672160422 -0.5148893761894294 1.7639616309594202
Ni 5.93215356011813 7.999510439412937 0.5255820423743368 0.5994362469935741 -1.113298981690702 0.8778383826214043
Ni 9.1363566051875 7.709972505757435 5.820091294196031 1.8405643072158235 0.03372850260069675 -1.4346341692366327
Ni 4.30787618883769 4.4477166721771395 10.350609281318551 0.03937721624604186 0.09138806209569422 0.061012278017314285
Ni 6.135296434777574 3.7232156376872507 12.84989677812293 -0.21605545506980853 -0.25042519079893 0.37859854004377375
P 4.475007160539178 8.521566684723311 11.628997397442312 -0.6573914833521195 0.33458073970192703 -0.4356595467228239
P 1.4462376504792565 6.419798845171186 5.897115253709516 1.5985484235265115 -1.9684856883508615 -0.5938122159385774
P 2.1331723783425462 5.040633247603542 1.5005645240886392 1.0755618721512445 -1.5571909436256473 -0.428969536297158
P 6.399321671093258 3.637825821782292 10.381192871584577 -1.3890603372615755 0.6071616406622898 -0.02441416717830634
P 5.450725889739646 5.6241303229541 0.6890904158253116 -0.19421804747974294 -0.7498064440504313 -0.6043550244514301
P 8.724588557899565 7.210692462705556 13.098419862880982 -0.9427633654295634 1.7192856282082842 -1.6980773695617852
P 1.962830213433383 2.9320055547353125 10.862708035343212 -1.0479147998579372 2.830300698960816 -0.13183460014651488
P 8.53303390220695 6.566703953567521 3.0292730623861104 -0.41298447372281133 0.558181096998529 1.4377626875632852
Ni 6.182514936639996 3.898323399472732 2.1402556190122293 -0.42045147152381784 -0.5833359989976018 -0.14019968428175852
Ni 4.327869356982867 0.5198400566067578 4.321692696656452 -0.5645623179345245 0.5478828003963144 -1.7478631827356608
Ni 8.81131869792599 8.562949191973523 1.3298705240975917 -0.738304871168735 -1.8063997455189729 0.35055268965015113
Ni 0.636996484971063 8.067466733932461 11.008636754848286 -0.5959338902672705 -0.1775498427954426 -1.3033747248672973
Ni 7.74894429115029 2.459941537594281 1.0015795384996111 1.026603954195303 2.6999323989471824 -1.0154111708032771
Ni 4.707115928712491 6.380510594360762 12.39986340794783 3.0067524235960734 -0.4407148497585442 -0.461058960632535
Ni 0.339512476992685 8.465003145236235 3.470124281548541 -0.04559568635192792 -0.9739197364277098 0.963324991630999
Ni 7.491806831569911 6.637480513425959 7.302441371942352 -0.706233701665803 0.38018285381175815 0.3329185215081557
Ni 8.003671028873315 2.588333419062889 11.090701822307501 0.6450275624701279 -0.21356611298905157 1.2339770509997652
Ni 7.118191482711716 5.715458519341658 12.279804805548297 2.015834095727838 0.27011701280090256 1.6411770568303155
Ni 6.139968953589902 5.967867613271316 10.312424005566415 0.16053145386057513 0.5349013005349821 -0.7718356559363287
Ni 6.664501075402425 7.998263193355463 11.838000467010604 -0.057319145436443224 0.10878028943021266 -0.3617187335692996
Ni 2.4008369669602616 7.843008982619173 4.506147357627867 1.2079963106652873 -0.31716691510085376 0.20616622098055462
Ni 0.7524179382225835 4.540552733201345 4.510520165074144 1.2098117666074713 1.1634866582886867 0.08435918027337086
Ni 4.934403253171093 7.395815424176424 7.7134582792538815 -0.07629928608337183 0.14608288253541293 2.329121216158311
Ni 6.632147140359298 8.613062421626053 2.9066129280980424 1.3953104319363454 -0.13786949348668515 0.9109382504991667
Ni 3.897671853024798 5.969999100936701 5.252832617889271 -1.388091288480087 1.5176982848476637 1.1302713478789825
Ni 3.355864442535623 4.6447257024196045 12.530439831578295 -0.9962284272272391 0.03529867530129405 -0.4800658407523409
Ni 3.5348349439767133 7.804837668576635 0.0819515122211474 -0.5176792802297406 1.5404078106300374 1.269481157443646
Ni 5.587494796967406 0.6486936052727593 12.911663381387081 0.01510368841065786 0.16375356034229863 0.29235319849128366
Ni 6.559443864576256 0.7630688610850257 6.037349457259645 -0.02183200827342692 -0.8050455670293941 -0.6862744849350568
Ni 7.2904975947710815 1.2551390773001936 9.176246140291303 -1.1139733820499071 -0.33129024187611333 -0.12485354084299143
Ni 1.1488718516421466 8.478694928449249 13.142367601574774 0.5861912090582098 0.07604397553945613 1.184999849770114
Ni 7.9412156479356355 0.37074202902280495 13.217443437208939 0.2297740902074817 0.7868005047762773 -0.7451864287799166
P 3.3152079441845372 6.113935019091737 9.177444985755503 0.9478986297735998 -1.3787769530576963 -0.23384980293875213
P 1.3972320497882154 0.4564241100486949 4.80931191985159 -0.31869980680561244 0.1689875550477283 -0.037582329129148176
P 6.995868291015294 0.68693100474073 1.5064219266555663 -1.9031457294924707 -0.7487952291770975 -0.8146751196993582
P 6.182589399091189 5.058029537763382 6.102126205113251 1.6265706197710503 0.6436036855394077 1.4240245120415862
P 7.971028551831818 8.811504854053972 7.015461223485311 -2.0945803006898056 1.1956843260671537 1.2443383396294312
P 5.221623543033228 1.209931061619968 7.68619850665296 0.8132556136440124 -0.5127337632990072 -0.8780186169530104
P 2.211469645771423 9.071918661486821 1.3759962894887643 0.30378946535268325 -0.3438099716096788 -0.24576738031194448
P 8.030570589366594 2.96889239149478 3.496294110020133 -0.3633737526742194 1.4472554575450687 -0.4242952707499402
Ni 2.130733733065993 2.5128843403921235 7.20887930201902 -0.4048582450712512 1.1210166620499338 0.7601070546454909
Ni 7.858422710016013 5.070418228080529 4.644515345994986 -0.2103594331262958 -1.5375448872599455 -0.616027575693352
Ni 6.15432159105725 6.227155176129879 2.578150678862319 0.6867457681445205 0.7211795243423579 0.6093421932533764
Ni 3.614370149656665 6.5566608304629375 2.1230901624510863 1.7098987876767457 -0.3315260120360033 1.0944067727718894
Ni 7.117307241103806 7.170501354674424 4.876786069999643 -1.75026536441925 1.1032161435334034 -0.33810520791541776
Ni 0.06904251552629365 5.155482270761522 6.999535566736523 0.34443269279534233 -0.06830624057556624 -0.4158000887947355
Ni 4.662224378449833 5.128982945943402 7.633110502075293 -3.172086441051614 -0.2010561534474989 0.15320098163743293
Ni 0.6420673778972698 4.676390859789199 11.36365045261796 -0.5138218541568634 -0.911398735075353 -0.5574683872022207
Ni 2.4962792137762038 1.280810007348796 2.8622696076322893 -0.8204238492576773 -0.8101561487830822 -1.1736219469504756
Ni 6.773867800591359 8.106066207069354 9.367061756155834 0.898894174850439 -0.011781566015960355 -0.39309930476311006
Ni 2.2814736576987396 7.920766397276904 7.210037193135063 0.37495425842296715 -0.6622781220204593 0.02281956899767683
Ni 0.6568472436783341 1.272200286429667 11.964788613436655 0.007432287908329134 -0.6302727727584565 -0.5270105849329956
Ni 1.6495015266218884 3.1150342597663925 12.976712847968178 -1.2821983478999983 0.5776042387201472 0.9138315128865617
Ni 6.227406486902654 1.7568949968542213 3.7611914877954082 0.48134830700919035 0.665396355934467 -0.8423779849312654
Ni 4.877346399944865 8.314300451829084 5.787232876046075 0.1760002389201356 -0.7369257314330211 0.522226790391107
Ni 6.934781157618276 2.7704127278412645 7.134443843465112 0.2531456750538866 0.6116749551516111 -0.32481543278504704
Ni 3.1531776503897326 0.6534443096588385 6.323744144694185 0.6356800598169569 -0.78684215664749 0.6142907955079033
Ni 5.259515622883795 4.513280860452105 4.372928447760707 0.6462269820948676 -2.068226750396941 -2.195165713014052
Ni 4.7762077756127 2.201752295890807 11.650903319802495 -0.8871961696872204 1.3789852124137605 -1.5354239842622008
Ni 2.9596683553533136 0.8993128080318793 13.052006486272079 0.2016117688406528 0.09489556102832043 -0.23367522503410076
Ni -0.05620425816007274 8.391341165394087 8.626138958836089 0.6491737234280175 -0.2627407749414895 0.4740980532046803
Ni 9.115656043755994 2.695978200067996 5.401009172639716 -0.35496855932965965 -1.5477902191370376 -1.0917500518753327
Ni 4.450816171708026 0.709077068506009 1.3438899420958528 0.1894342529378544 0.15309428085623958 1.1876249460977868
Ni 2.307982290323257 4.133094200276176 8.939329890112877 -1.0387112789817983 0.3473760916943824 0.32004140843517137
P 4.989831240277483 7.758847797158889 3.7654963482549726 -2.1775122615983467 -1.361233030636662 0.24022819566127016
P 9.130548533994489 2.9366222267092454 7.41810017425705 0.1385364376467227 -0.14599983590330337 2.5412056023955136
P 8.462936812215643 6.648370646912857 9.829246467584905 -1.6705465111313682 -0.6347426356043521 -0.13198886633619203
P 3.0961301049699053 4.309923906245483 6.4678466725837644 -0.8136618479434955 -1.132651932296017 -0.7941078370709679
P 4.150425335791223 2.575041871525034 3.3423820849665873 0.850601144172006 0.7990430695890561 -0.14900648394011112
P 8.530502178866406 4.188875884025731 13.252685584577693 0.3438485381570981 -1.2792935155483773 -0.5963565796269858
P 8.21065802757557 0.09217799911179259 11.155792243236755 -0.34114373763142536 1.5209671854069227 -2.814319235930895
P 2.1172001825617626 0.4476124097307065 8.545259705912112 -0.051179351087292504 0.22094826438573562 -0.07397886548031131
