# total energy = -340867.8879336997 ev
CRYSTAL
PRIMVEC
9.24218190111878 0.00000000000000 0.00000000000000
0.00000000000000 9.24218190111878 0.00000000000000
0.00000000000000 0.00000000000000 13.52686742634864
PRIMCOORD
 96 1
Ni 2.6284026447006474 1.4340169707718657 1.0573888090296366 -0.006477380194227554 -0.2779143973581343 0.0781085713779687
Ni 2.6117852013296257 8.4067442685996 6.762446398600531 0.23933910818809748 0.9256146215644188 0.5694720965313159
Ni 1.3731294752611347 4.203769548129029 1.8337967986122103 2.5249737139176838 -0.007271593960748766 0.5075133954403324
Ni 1.2461511357313935 3.6004491444488496 10.910108507788069 0.4733573183839138 -0.4785316634960017 -2.6621533804261954
Ni 6.7039461587197975 0.8237187196249891 1.193769220384373 -0.9827663881850622 -0.13347624951499593 1.5637416002599713
Ni 8.255911857134036 6.145487306832132 11.296030607825013 -0.2958295870756582 0.11996407396117403 1.5958459369936837
Ni 3.617214462733073 4.016643087654564 11.306648950811091 1.0678187378707158 -1.159508647477545 1.467414963212079
Ni 3.591031360914327 1.9100170741855256 7.298516064411276 -0.15437160490676638 -0.9726133589114604 -0.1262074837677246
Ni 5.323136430154257 5.775227008539645 12.382007334449337 0.8882577781825153 -0.7567646205358193 -1.3895624737089747
Ni 4.914123662420893 5.38941211781477 9.091475357306468 2.3906870526862507 0.36787164054457294 -0.3556776695815423
Ni 4.731738441350952 0.8342215353351281 10.229220318388025 1.2624440480912065 -1.2484765301675207 -2.18431668611469
Ni 6.581034379303097 1.4573165117831823 12.557816742972847 -0.26749011670101674 0.670303306317781 -1.9120435462027328
Ni 6.6835394206979855 8.077879703821464 8.198905153876638 -2.938439755262604 1.498708116898406 0.7860867665387042
Ni 9.025360483614062 9.308078833291244 7.853320557506447 -0.5434941844103156 -0.99403476201003 -1.6193687027059722
Ni 4.634288873551141 7.208707932751155 0.48406852836521813 0.018713517249103254 0.2652838530783173 2.439294786391625
Ni 3.6093216392409415 3.3657531728338665 0.7355603174652727 2.230795289292203 2.4890587451886295 -0.8895394731084165
Ni 2.3617379652879085 1.5875665837675077 4.470467499397238 0.5778122409658952 -0.6339131977245211 0.5850090158246506
Ni 6.639759204208257 9.072172135824422 3.3454111300865805 -0.7656943189252813 -0.0347559154239466 0.4010306437950448
Ni 2.425934161981524 9.341258266940837 10.984695689788714 -1.6886180239210982 0.17583157455275525 -1.480065047875922
Ni 8.742632891754807 5.414587821787332 1.9813343721680023 -1.3487757787099157 0.5475102475482442 -0.06584878017400918
Ni 0.42822449161286674 2.4333186654595256 3.088278837266095 0.2964415096280443 -1.501143465812776 -0.11388984274263611
Ni 4.862580012988083 6.589296890078233 6.701940605209502 0.361545441216229 0.997633792215198 -0.13473197629896796
Ni 1.0938492173158896 3.7047933800766812 7.938295952159501 2.6727075017929582 -1.3125967576861977 0.6179983262664777
Ni 8.482252896153133 7.821797322884711 9.673725434291844 2.3512126487407117 0.4000050307440079 0.12046286797446351
P 2.7538282976417725 2.0756369769712424 9.995272963521124 1.2777369696945349 1.6287925671230337 0.8784353927754548
P 8.189534505470698 7.171988743366799 7.341612359427448 3.0387153496559147 -0.039180269743887365 -1.5783256687217333
P 2.2025968321368334 7.1441605331386855 0.9455066497013567 1.0700201163974088 -0.5222951817351973 1.9573564112069195
P 7.552045754658889 7.224040712813739 1.4288293339731146 -1.1280486291960508 0.2690014111392206 -1.5579265362400911
P 8.733159655127833 3.4349771165763343 9.439183807117516 -0.6707841026089415 0.10839719505918106 0.3234805160237074
P 6.368565855578721 4.954197763898509 7.300599252251002 -0.4569549657664904 -0.6048656455392615 -0.6976773274553597
P 1.508407294294312 7.787277772834227 9.48042704462763 -0.5156792190805763 0.5963761200110116 0.28700556102612507
P 7.062025261037309 -0.14094974617266368 10.583258738702305 -0.26285801724564406 1.4937026932640147 1.2590152249153155
Ni 1.2922973508323468 7.370483087793632 11.819344213935713 0.48371860701357977 -1.389065479467898 -2.3612152684793783
Ni 0.43602489328424765 7.149807506386569 5.717211983217854 1.17770203055712 1.228437866349091 -0.46741318498533696
Ni 7.353865644422609 8.648371876770904 5.666188668635872 -0.4163896427496184 -1.0114089916224194 0.7261579513935559
Ni -0.05812777994310758 0.9316951328083335 10.098618119266638 -0.09733656636964526 -0.27121795917456515 -0.06278042566133059
Ni 5.993213114962854 1.3597745221626214 7.990009657742492 0.6541238683444411 -0.008542747363688513 -1.6943747238992173
Ni 3.2377674354579398 5.6730824122456855 2.6102389842684617 1.8047735227694595 -0.41803566299347356 -0.9069234729128187
Ni 6.039590384615685 5.728923676343414 2.963331005138252 0.9328036831136903 1.250690507099704 -0.4901839030229494
Ni 3.649802396729861 7.290944868855358 8.997882552086596 0.3299231863252576 1.809020985191904 -0.5685238736854338
Ni 6.488834370921942 3.2541445820950092 0.7581768612212396 -0.14966751456287772 -0.9242285398501697 -0.31748084679684674
Ni 0.6098481568798195 5.507009642538289 9.754927246003636 0.7330078844358536 0.5153254352855834 -0.694023018532224
Ni 4.2274942295158 4.134212885831857 6.937051550799657 0.05659332301401221 -0.1658145566363854 1.4693975408597468
Ni 1.775986949732486 3.575301167022514 12.996384160545954 0.3151383147065992 -0.027467609292649468 0.7391440792405787
Ni 4.8497518642678505 3.036842397145357 9.225729142565724 -0.2544062869338651 -0.1140371669537778 0.25900213383466364
Ni 9.38968730101434 7.409947205254292 0.2381793500390866 -1.556614502296887 -0.9658508433766463 1.1908907613332522
Ni 6.23776125266989 7.13250614154199 10.38637530661116 -1.5364495973132377 -0.0991859608735582 1.1227914945621695
Ni 6.814122211237014 2.1232989099325112 3.5804804858573975 0.5400671610066377 0.6405615562789742 -0.7679995700196902
Ni 8.929454360220793 1.2694691611068603 5.2268624679144 0.32045561315445453 -2.064434887454677 -2.6661126221842597
Ni 1.8320407840179422 6.2810423913275635 7.721676764465197 -0.015003415387367708 -0.5856276232452559 -0.4857608342545892
Ni 1.2485725874350684 6.581782996051181 3.083152198869039 -0.678688959278315 0.9019399036552983 0.44935401349078097
Ni 4.721017510143842 1.4291833095465907 2.826560573699947 -1.1295239281899965 -2.10424970545877 -1.0094325846223389
Ni 2.807201899125451 6.596413370276057 5.0769173059280455 1.1793632203096271 -0.04725096256716379 -0.39591389139376976
Ni 3.124005416295585 5.644893756916643 13.037938859592 -1.912583992087235 0.23485021917880847 0.7580110913484107
Ni 7.946150882705125 7.199890891051513 3.466327522393266 1.0739143092454926 0.04497656471069028 1.259812009784998
Ni 7.362821318853377 3.638582387690695 5.533138215482793 -0.5883460506176835 -0.12141057659971348 -0.01623883045636558
P 1.50096733772386 1.542261407235388 6.666838797688288 -0.3895848638519484 0.08264862534016733 -0.13832740695971016
P 4.773337502870958 0.2579566954615841 0.2986435536107784 -0.13996699944566218 -0.6132785521933051 1.1380723319806398
P 2.9088936284977303 2.7860835130838577 2.701532334588051 -0.20155391901952383 0.6457006772777524 0.9729337183653567
P 2.1778924794501022 8.59436980690612 4.543295894148994 0.37155346027153424 -0.39841943142444286 0.7316480279738495
P 8.963336199708095 -0.021434468668562204 3.0668110967420623 -0.6228407419604435 0.44791959503709955 1.7236325923230702
P 5.463774714790991 7.1893455613038295 4.460308492860293 0.4880272616912627 -0.1378360691455884 0.5749398045141065
P 3.4696260571758684 6.200875704008181 10.838781043405309 0.5742900867452497 -0.28408298806269133 0.6449468298308635
P 2.409113390604849 4.7496405480304125 5.983786089246257 -0.29935894038515537 -0.5993218329028969 0.7536278746790505
Ni 4.750860516064325 2.4584296741575606 5.003723844984324 0.22746781067180824 -0.29318006526795315 0.5231356753586216
Ni 1.8046931672577335 0.769922750420479 8.691648394337541 0.7831927328203608 -0.8763617980758778 -0.8153621184640538
Ni 5.096499641308759 3.6476951792167394 2.618922938546222 -0.8794571491717499 -0.19023669423449174 2.6202801372311777
Ni 4.449038576037921 9.011044343579739 5.219071308425094 0.23020166466320355 0.290590450163906 0.012080842423934032
Ni 8.98695921709204 3.3835905842388017 0.45326895659996136 -1.6297148218269866 -0.6485438031535025 0.5072488289250361
Ni 7.71034584924113 5.96779711425634 5.518272165615001 -5.876588718757667 2.124730599020941 0.8045771120334079
Ni -0.30112230684331914 0.66149162187904 1.092802078086781 0.9261766647154759 0.2477257895898959 -0.26733070830501704
Ni 6.648372917902246 4.420896131619255 10.653260874175496 0.07954041872848883 -0.48499644528473884 0.1640572076256465
Ni 5.018125937311946 4.8199735536218915 4.92810800811872 0.0883068520672092 1.2352983409143499 -0.6900434650591859
Ni 1.9022998521528205 8.971487804298329 2.4952745572181376 -0.29741338662301037 -0.36067692256834655 -0.5844629135131935
Ni 8.716948867768116 2.494427973340059 11.751222862514803 -1.4644260557870843 0.15770169772126388 0.3924318463824403
Ni 4.328039928310767 8.070291872337812 2.7701268857312042 -0.4341932465899425 0.09527762695808752 0.438089239210239
Ni 8.597946531369182 -0.000804994058740845 12.353344555179843 1.0567565665192833 0.232597932809522 -0.9993931981084659
Ni 7.011091595621456 2.021801266383809 9.930830924784312 0.0950156315459525 0.2634732822321398 0.7624580713761707
Ni 7.393015527692715 5.180899248018534 13.3682516743013 0.677769275677523 1.008820919180269 0.07493428741504514
Ni 4.0761812245823315 8.154867080507014 12.052358108413028 0.3572768957478621 -0.631519500681364 -1.4952016464070443
Ni 0.8385385585824053 3.3250506029751445 5.321780602043841 0.06586086435886722 1.6528616922570956 0.05673833323230873
Ni 2.8838103463459204 4.497809570848202 9.275345797035877 -1.1685689579076004 0.1973267683120537 -1.197906273419137
Ni 1.999971232322433 8.961820481847779 13.32008234554411 0.07243517514227525 -0.4378917784874523 -0.2518549812669211
Ni 6.512743895950215 8.370819906873702 12.850876170173851 -0.049862946268714126 -1.9170487127268079 0.08444659778085456
Ni 8.707651232600568 2.334113083065447 7.0859144532650165 -1.776141975075696 0.5561046740854746 2.7030503757508737
Ni 3.9921050942451846 1.3539334630911606 12.196013041279071 -0.5471068414622384 2.1928283231301267 1.964180118996972
Ni 8.907273123240564 5.037238769843245 7.122409981843155 -0.25897719413399917 0.10502519326315461 -0.08363027252714629
Ni 7.656343779376345 5.803175367134735 8.969638443665103 -1.4745518313671766 -1.383968524560965 -0.34049710518636195
P 6.717162479087185 1.4930098189572023 5.568159616019953 -0.4315666076003729 0.014898257268071117 1.9126073891260027
P 5.1739121583697605 5.054410744138772 1.110933390881704 -0.6825574410947858 1.2512222112334581 -2.1027216988500173
P 7.950503950462495 3.47167782159654 2.4444804487516185 -0.0412338098388064 0.4747441714291114 -0.859788724208545
P 9.077052007960074 5.298302686918475 4.330423487067934 3.0178845289534926 -1.3697737211178216 -2.1034241242336806
P 4.77631348549914 8.930313883153778 7.629248474186786 -2.074110462871228 -0.6429714512720476 -0.6276564181815321
P 5.549098539708275 3.330679091858878 12.181093386755244 0.04501076038273538 0.06996485922491176 0.03120779306137206
P 0.5623230082132619 5.435918778016652 12.720314636653596 -0.591912170702387 -0.7822344826721496 -0.17785606118195177
P 0.9114408907907611 1.558176444768703 13.069362278647324 0.19205163595604344 0.5201933049008461 -0.5959881405439736
