# total energy = -340874.2975542165 ev
CRYSTAL
PRIMVEC
9.18137015665113 0.00000000000000 0.00000000000000
0.00000000000000 9.18137015665113 0.00000000000000
0.00000000000000 0.00000000000000 13.43786329137381
PRIMCOORD
 96 1
Ni 7.897897182601496 4.022633676947339 7.108683136245906 0.00927242644086145 -0.6965457849540778 -0.6565278498002435
Ni 6.944200727381468 7.9445477240220095 9.519355602507227 0.855969864683087 0.5205676575211292 -1.3060473866034539
Ni 0.8763020960576161 -0.2113891105104249 11.627017148006317 -0.0480883708667946 -0.30952173985077014 -0.7586752072949707
Ni 6.995157331373565 6.197856334243878 5.1356829095632675 -0.4109018801621697 -0.9445469396925474 -0.7936131568227365
Ni 0.41067258455894334 7.9633144444832435 9.260152670986056 0.32965887692027745 0.19836060889320675 0.267994567141261
Ni 6.136377880130169 5.454321440353421 7.325140363045274 -1.964789984666829 0.27864381932499105 0.492316633095236
Ni 5.090160758526651 8.872995411498206 2.1381115593981503 -0.23012093202393916 -0.2912473670216145 0.7494629446680834
Ni 0.7747028909304532 4.832127533554775 7.987735052645077 0.43930202857141765 0.5963218697343085 -0.05079985626068671
Ni 1.6903728656542525 2.624549728065776 3.4501578073158305 1.8411834288570614 -1.3392565263655711 0.4828922544575426
Ni 4.415109704127555 7.2702128164898285 11.036194146526627 -2.0279956707910363 0.15698770237337478 -0.21001696218521249
Ni 7.336309499758136 6.961388252187451 2.664876141769216 0.9017385862777696 0.6292026796227292 -0.8014709623042584
Ni 5.9195139186358725 9.261890704343841 11.281112702463853 -0.551950542707785 -0.5634816832758359 0.9860869679178631
Ni 1.189363862655913 7.2155285762417325 6.85238335394677 -0.684285479529486 -0.610263162405749 -0.5134588143904899
Ni 4.660472638377071 0.33778076928801315 9.28643709727589 -0.7147867334421367 1.2506205730937172 0.5090218616650588
Ni 7.349264412953245 1.8744868800422767 10.743773018024662 -1.0521288379392848 2.627464313684442 -4.278099430603865
Ni 6.046666712993812 3.786277666754804 11.447568187760345 0.24109388609567506 0.7622133023552163 -0.12766915591491562
Ni 3.7289859174015265 3.8379963244642608 10.444646734946941 0.10854760459411629 0.8172829896358506 -0.5963565796269858
Ni 4.3818180561860505 5.301130280424024 12.528173212893952 0.7882148686253005 -0.7157375273911802 -0.0599252156007226
Ni 5.099672657938509 6.033408814585777 3.3605806881827673 1.1807477593619793 -0.6528593998097207 0.5229898938093767
Ni 5.286504357872778 6.4519415700776275 0.8896123282751556 0.30750419520010913 -0.012170059703630654 2.1272986168584334
Ni 7.90152382378652 0.9019346450711545 12.377817260047937 2.2517600644693285 -2.3360305416836344 5.869382430817215
Ni 8.980674519898082 4.9410094014362675 11.158465206408422 -1.5932856324656754 -0.929967756326792 -0.0199594738410624
Ni 4.7409840726845855 0.7821297011951753 6.820804031526802 1.609468669983441 0.06416573604463142 1.565802339443742
Ni 1.9637481600442896 0.3131388901070419 2.7220274161601368 0.4054336579587469 -0.23550970713967828 -0.11380731033115883
P 4.438540560593831 5.265341299818403 8.835058908428845 0.8396695848611667 -0.336998090894168 0.5253846192937984
P 7.9562356081448815 2.604222174689469 2.846716848923286 -0.1834806064575808 0.18542101801340324 0.13643867457742953
P 5.892796131677853 7.9604774011258455 3.8178983053401705 0.11911046771162712 1.0541060162703135 2.379155912118199
P 7.9136707764138245 8.195704102797475 11.404432274809773 1.3825752437578642 -0.8663830895966111 0.2738222295666316
P 2.7828732738747366 8.53338571328853 10.12896368718833 -1.0055350493401456 -0.5467108915754003 -1.5544866573206066
P 1.4503902142766942 4.584111183349634 3.130565332173465 -0.7306344991076706 2.269316071075221 -1.232850907815122
P 4.820054031888178 4.8411160948715795 5.366867972121865 0.90619019429122 0.20039897947947422 -0.22433466435946525
P 0.03317229013035112 8.221292581234588 3.009758700820812 -0.09708125582572957 0.8232114393051435 -0.3772191431977439
Ni 8.624097649764552 3.2858195459617847 9.244981375051545 0.4493136471711488 0.601845627766015 0.9023173415993749
Ni 0.3868285664386771 1.840194462761108 1.342661526478338 -0.24991302704920187 -0.28753623671861445 -0.3575553462202294
Ni 5.8017812099889055 2.1983597099199783 2.128826439827482 -0.8972224435749709 0.25191411663963065 0.31500204623905104
Ni 7.524270508213312 0.5353390638968712 2.266886701850756 -0.6737740384752009 -1.3341346317579732 -0.9178673735188321
Ni 6.234168652944553 7.088834850388228 12.459936352257976 1.889543565328004 0.4029954808308995 -0.34813302446506494
Ni 2.9061974369057015 5.603564611144689 4.445312739171231 0.011296141739109578 -1.748835316840943 -0.37035789730153634
Ni 0.8711550199859098 2.689627279254242 11.617691630407258 -0.6380699002053721 -0.5292232763135982 -0.20600861235676782
Ni 3.1659659408243357 2.470311891946272 12.277570470734835 1.1173633815680628 1.1662853040797463 0.5346806998837438
Ni 3.67148299653621 0.3108270211187157 4.885268385490966 -1.301523273480855 -0.48986868577537573 -1.4457909571844005
Ni 9.17357510546096 3.7684566274127027 4.746682949098621 -0.9560024898276567 0.40221926478650727 -0.4031065524874671
Ni 3.389743473995398 7.569608113711146 3.2951524086569135 -0.1125605824082513 1.1412041927414023 -1.2675111782014687
Ni 7.999525768112942 4.732335222061062 2.6961194260439383 0.6700076294542332 0.0765240004996682 0.0203533668453714
Ni 0.021665278998225724 1.0597780052244778 3.818341765515453 0.12658029372611104 -0.06803138964762477 -0.531730101895852
Ni 6.18944619924266 5.9627489903834014 10.275853672825875 -0.26084124392593144 -2.2370412702019147 0.045129802459102926
Ni 9.092852499641406 8.490683161006142 0.6612064664423967 0.2973182558060428 0.49031322951196205 0.47314803058658517
Ni 4.806135074833761 7.352551343444987 8.593553985890587 -0.2976728109319841 -0.247773869219012 -1.3918939500556287
Ni 3.3915522039028647 5.674316249047952 6.914949800415987 0.6515188266214262 0.7544441999327588 -0.8883739920454055
Ni 1.9898232510961018 3.967811716147913 5.987360571043081 0.008260183126263193 -0.7121690933136315 0.1442903094113644
Ni 8.642010502807539 9.143313309648716 7.23937993945807 1.0434675627198609 1.0438195467426412 0.3859524093056837
Ni 1.0646624941116483 6.609750959161623 1.9021567750784898 -1.030169302949058 -0.41138087668111734 0.42184706631976376
Ni 5.88393610954229 2.119611098669488 13.099497738716341 -0.9984935691123319 -1.4751190167245563 -0.5364856143029665
Ni 8.009221294926574 6.9625359234485344 7.183801433763338 0.8468025963615223 -1.3630459154756847 1.7814862701067449
Ni 4.1769266012873745 3.9283226433965597 3.125351232100112 -0.9484673577928762 -1.9440041582697294 -0.3472740188988793
Ni 3.8754012262054873 0.9836185403389914 0.7243550117752342 0.661287475972416 2.025838258128401 1.0243712082100422
P 2.751702522423715 1.7596646657134165 7.009431607450415 0.34589487916316564 -1.1912018648157676 -0.7659761118317582
P 4.570339128216634 3.802289976189438 0.8421345454096536 0.09123302457506868 0.49745215454958847 -0.3163711586724358
P 1.6088606620070736 4.375271739312832 9.868403749168055 0.5406564578512043 -1.860723812882834 1.277417381571587
P 6.4545307164426315 8.280907217220296 7.292486820324934 -1.6801153857667257 1.5832891833745957 0.12342837836069065
P 6.095006626510639 9.119239757276233 0.3374814566231226 0.6998501667369624 0.18170063173902257 -1.2613364168493246
P 4.869220268712986 1.9584964163535725 10.841869530462997 -0.01742410901371838 0.3647613770503654 -0.2630662766017082
P 7.9856986247594115 5.907725039442025 0.7484423362028502 -0.5823862334898229 0.9374800055434371 0.029581056091226472
P 8.053870297667759 3.1667739013921383 12.353763906689649 -0.31300558463431255 1.0977687472655866 0.871173569006719
Ni 3.184879563206988 5.679751620140442 1.7822774621047928 0.1688831682593801 -0.5923217474359799 -0.901361662554325
Ni 4.046486876437694 2.676415287696652 5.3456626797650815 0.283656184937918 0.7050795334567018 -0.03033104688337357
Ni 3.5069161190669567 0.2081692040203296 12.020773058176893 -0.06595393829330577 -1.2180287552006248 -1.2656576699324977
Ni 9.312755494635052 6.413058467752126 4.3180157973029 1.0409159999426008 0.1705423011293579 -1.419453347731136
Ni 7.03855766778269 1.0332989338887644 8.55442298657269 -1.7265441095429102 -0.019774611523765945 -0.9160002384031063
Ni 0.27415479271056503 4.310377815526139 0.48736181449854576 -0.4488408212997883 -0.7752295121092261 0.04643463731345551
Ni 4.946417228418492 7.485506763698964 5.821134619998804 -0.19244090097466213 0.017262386624873494 -0.06597759244238958
Ni 0.5011054073842703 6.586724082979248 12.794578929249683 -1.4936111619914727 0.26787423951331285 0.9907717749880421
Ni 2.3879733649911135 6.342692447392588 8.922808016777255 1.7978192029388136 1.010474909843924 -2.1205278737935025
Ni 2.713232581752204 8.623262145086484 7.62780147360713 1.169661933861463 1.1441198237263004 1.0474756554379896
Ni 2.458458743161804 3.071654907273556 1.0728293228055168 0.1298175697164861 0.509987825122754 0.3705427596188328
Ni 1.3222274692090024 0.5564709052929454 5.806487580296356 0.16854326842145811 -0.837866470214157 -0.7286724902852935
Ni 6.857041981129759 3.9579692874128627 0.6501980037060858 0.3576358217491776 1.1846848896328563 -0.009270883778964678
Ni 6.123643319817189 3.296405665674017 8.809016870309353 -0.9696892432861299 0.4643476586861358 0.34015951934128513
Ni 5.992606805911745 1.1082464579225468 4.732922829746736 -0.3717804886806758 -0.39151961898081605 -0.8768227968726963
Ni 3.4177282900256527 3.478426327681825 8.053351550257748 -0.5483072895282428 -0.30854729175264284 0.023645407333081857
Ni 0.7151130446439827 2.2925422042895165 7.263124798781378 -0.9073520758098051 0.2750684432689069 1.0195583602024312
Ni 8.139055049350404 1.7618773759047852 5.594289591081119 -0.24542722336370631 0.9971041449639731 1.468690230380077
Ni 2.7485533124833026 8.231768524505755 0.8965956783645951 -0.739168761830927 -2.159074109497817 -1.2762817253052472
Ni 1.5826203062936655 6.30626077088076 10.83215380463517 0.00400475028401891 2.228367396577001 1.2544877693586072
Ni 6.351029131433097 3.458089592935429 4.1759368495918165 0.2554352424190117 0.609765396833724 1.1071766708430482
Ni 2.436680533311488 1.6335401848054083 9.985756349093348 0.04121246968256773 -0.2520719823737336 -0.5410462370904553
Ni 7.748598923589695 8.645784045913981 5.07287407492371 -0.10496965743487084 -1.2477427373252896 -0.522530437674455
Ni 2.0878802836430572 4.683214892086697 12.450018636288199 -0.15467962306548846 -1.2591571498098184 0.21568290222173825
P 2.6895721910337103 6.714299220361265 12.639492734533986 1.4429272624833602 1.070858296027988 1.381163708122318
P 3.7586417427879186 1.6120282346876635 2.992584948069962 0.1859393524107185 0.22769895284600788 0.7020692858754684
P 9.156562026686663 5.498052306085738 6.155038096698374 -0.1795445046279682 -1.2929396455769022 -1.4081507782341232
P 8.078494732245561 5.661021625159563 9.205607987563308 -0.37606343232674594 -0.03527630670379086 -0.42622899743754333
P 6.4743349317238845 2.367847801756757 6.815697353483487 -0.8754655115138535 -0.5111900729609712 -0.38139358629040765
P 2.4496813533570387 7.47058703730488 5.149779067060397 -0.27329978140425837 2.4037924797199572 1.67557713157674
P 1.7855469479933668 1.0082705190270602 -0.2815053976035512 -0.6786941014846376 0.4732670726629527 1.5795158323750926
P 9.012240070262918 1.1935964742667884 9.317128581208284 1.5902519878456742 -1.0263774400067935 -0.2773163587628192
