# total energy = -340870.19883856934 ev
CRYSTAL
PRIMVEC
9.26012657535988 0.00000000000000 0.00000000000000

0.00000000000000 9.26012657535988 0.00000000000000

0.00000000000000 0.00000000000000 13.55313127097545

PRIMCOORD
 96 1
Ni 5.606626914961476 4.063056432971897 9.098690985355221 0.37354246567710503 0.3899527887143284 -0.0012390146134236724
Ni 8.252902517628966 4.191179542869358 3.1840231851905054 0.7437324699422094 1.0094171580033713 -0.5735688923085089
Ni 1.9739070795000455 8.225724046427098 6.9969534159543 0.5043882195477893 0.2320225199220262 0.13072542624273614
Ni 7.939956543432326 3.2194681712959197 9.99544811520829 0.35706323707515925 1.4988533842270186 0.6757674147561459
Ni 3.6276452861535518 0.6155483871215627 8.367947550906871 0.9362073094786005 -0.008942039684636213 1.3721959574060691
Ni 6.424972071868699 7.661235996684445 2.20330541460823 0.6991886218935636 -0.984185380019776 -0.17277119045987666
Ni 3.9019857930791217 0.3084020301357342 6.099518444843316 0.6690848605296477 0.4425475320919088 -0.7903362858436775
Ni 3.0689911160896646 2.9659814691903184 13.14009909465566 -0.8548372937405407 -0.6877490125980542 -0.1450205027091696
Ni 1.6270042215224008 8.24533699429952 4.4824808974451305 0.26843036912709894 -0.6993169199413117 0.11040805484162275
Ni 1.3529785588969547 6.301969811911487 8.271137558682021 1.0886423594842864 0.24610522326733747 0.6926834737851941
Ni 0.9156357496960847 4.180798941091745 13.022918676212798 -0.33054307929744364 -0.22860063872467082 -0.17448817315098336
Ni 8.5517638394583 8.229659600178646 4.58042988522631 0.04583685582845654 1.3314658266765584 0.4314881889539537
Ni 3.8423413184585993 4.9755122552367315 7.3807643600202875 -0.18116404250926219 0.7400516786565126 0.6366123418232391
Ni 4.630535503565726 6.422897803538471 1.640890707183158 -1.8860458365873904 -0.9113699387199466 0.06990932339662798
Ni 0.8181312479856685 0.9715539494233765 3.3200562951222548 -0.026143748274903362 0.6558645051846318 0.136015728107398
Ni 8.993888577970463 0.6684375994791334 -0.08096313778949718 1.4555572925425448 0.5131543957761936 -0.7176098047132287
Ni 4.709505862137969 7.336622263130275 6.197873952176713 0.5135112648949801 -0.2118308754654997 -0.6460171800769068
Ni 0.7376950113925551 8.404185203838479 1.612822337827116 -0.6043344556261399 -0.04051210118143345 -0.3438634505554336
Ni 7.837391382603743 1.381527528817009 4.653616368802747 -0.5465897926165038 -0.24579771932924768 0.07056932557813009
Ni 5.2312028674432 5.2929586508998465 3.8557166451379783 0.6843831814496149 -0.23169213316580098 0.5626563591610633
Ni 0.18916864165353478 5.847955071006412 11.37876192242218 1.5966242099206052 1.6432766196718216 0.8659436880663474
Ni -0.08738225746143416 6.627528078366029 6.546962200002277 -0.23056136199546745 0.7437072731312289 0.00046948343725080433
Ni 4.656324955796459 2.8432014522684885 3.9341897349185553 -0.8008382138162659 -0.6392400092540733 0.5929470397248047
Ni 1.664359571719449 3.96764008978142 10.733632987291331 0.7749225223917686 -0.8097056915092248 -0.9144586049475992
P 2.951248607969817 8.52635405241301 1.6749364881783158 0.3010977774531331 -1.1926283128496493 1.3893184760189687
P 5.646797343606691 5.113543700461619 6.100765783879395 0.5152614148168675 -0.5539878848527878 -0.0016231374257197854
P 8.605046607191026 2.136172275707997 1.991090170185629 0.6029123784676327 0.7083445773612188 0.21468042909915286
P 6.976069978729614 7.857902562744165 9.404544628685246 -0.7902866635526646 0.1804004248703603 0.4075566178390207
P 3.61731098500831 3.2713989605634075 8.889038017928039 -1.2036861133257077 -0.6548111242194529 -0.3858120270730775
P 3.4718436582246137 7.704490047445579 8.949403856400904 -0.4024344661211069 0.6127321927715319 -0.9965205045463611
P 5.928305188423315 1.2431256785331515 6.071341732007526 1.0371521620247945 -0.2853471994870957 -0.4341243410252201
P 2.826533224614872 4.916377087572291 0.773981742994477 0.9737487580674842 -0.4060481516142942 -1.9142786061808388
Ni 1.6865838752576037 1.5123731158978944 11.602523618545497 -0.7900997443528393 -0.17013940926398438 0.1322320926952497
Ni 3.9655102606923465 7.378070589228933 3.890697698907034 0.31074738472775515 -0.7387620133108116 -1.0961152708225639
Ni 7.280728139731816 5.724915770543304 9.972745989144066 0.29417611063263527 -1.7971126637900918 -2.1835399558496653
Ni 0.664499267689643 2.013503380303858 9.243723086194628 -1.4903862272962718 1.2338667506741459 1.8428831851569876
Ni 7.172236497959725 7.131732704761438 11.594433046044964 1.368017400548347 2.312103341444076 2.5090956092348464
Ni 4.135442841620962 0.23424878935538654 10.85493323600258 -0.8006813765234275 -0.6889337769347749 0.18765762065340583
Ni 6.8448817669691815 1.5095672975762022 0.5507284278145925 -0.6992117618220152 -0.9966295193203997 1.3122776837838819
Ni 8.413899076509948 6.044343833271904 0.9648199854513156 0.7234328391529089 1.3759973334300302 0.2040345193495325
Ni 3.358610831697716 5.576874128599771 9.648961962921986 0.3443326768823683 -1.594116613007403 -0.4170768986246301
Ni 7.3904976789573515 2.387260605056772 7.505303800972221 -0.29539172820729126 -0.8325887667549855 0.16336609509589284
Ni 6.3813383559221215 0.3261601746753672 11.86938472131783 2.0100385720919833 -1.4176798007704812 -0.9030153961076642
Ni 3.513421626093911 0.2862443995081941 3.5463256334947966 -0.7586983472234224 2.0921202691850875 -0.3853363729882396
Ni 5.1124880460435564 7.067235923868418 10.465795867188614 -0.6110753738943993 0.30529458914330004 0.7486759299904138
Ni 7.832390914307658 4.718015918367787 12.26157237579241 -0.6701901777786845 0.6837049244356677 -0.9569512268941713
Ni 6.475504582038579 2.847025884502346 12.313589284236107 -0.3473784056872275 -0.09270189581111132 -2.0284299301149775
Ni 1.9198001605111135 1.7289396937507366 7.593087947922637 0.5026221287863021 -0.7631260439774727 -2.6629105703071945
Ni 7.171430866956467 3.5728160772996294 5.1980053140330815 -0.5979681470884798 0.9418873905825134 0.9199098578701577
Ni 1.7898250253188062 1.54626517879358 1.1705744396328457 -0.6288987752290652 0.7890887865898216 0.9916387509740278
Ni 7.347734414899352 6.273448622370856 4.491941042651205 0.12919741963398396 -0.9908427374352935 -0.047517328854673
Ni 7.687960721689077 4.877012289930335 7.536909538641419 -0.8046506455838206 0.10755361611196315 0.3634560279753805
Ni 3.226376225645696 4.6513522678797985 2.855157201559368 1.1610831910535164 0.6301935827810888 0.7053410146482046
Ni 2.343404646074814 7.278690911907485 10.822012560374041 -0.18504460851059099 0.43354969946867267 0.6522263942114122
Ni 7.789294285696587 3.7899753032468224 0.6930973162800108 0.5803306365123748 -0.9487902883499338 1.0484485608742202
Ni 4.255379999715203 2.6650088385248596 11.07490013229676 -1.0504061988212232 1.4435618107435655 -0.5161029368815564
P 2.790687275033124 6.653826837552846 5.476481393442042 -0.9619646209483627 -0.22045024170339453 1.0663946038296797
P 2.4953911018963693 2.7304408921917767 3.1004144292673206 0.6987013978444999 -2.2966623242986572 0.7252048434516671
P 5.807423497428703 4.696208320520973 11.24759408293999 -0.7871843704782573 -0.12876675985446853 0.3264817647438764
P 7.2090918013271645 7.4514200510313175 6.415577673560591 -0.7478480347724797 0.6093581340929763 -0.10065611766118147
P 6.584403669375536 5.3152477753233205 2.0263832902168657 -0.5372420328530167 -0.05583253358858772 -0.05000204294973969
P 4.920868248912293 1.3856760654774647 12.76565384250571 -2.7313494798058833 0.5351954347366331 1.414848759079589
P 9.277813315796863 4.129701563206938 6.2873786306260415 -1.7397598369022362 -0.19292683947214515 -0.23105989889844075
P 5.504182135777058 0.673886257896571 2.8224532128903266 1.1392074740263476 0.7017088172122561 -0.8528169208764022
Ni 9.021409673851878 7.468745747664603 9.699637079039569 0.8062195327328374 0.9789758107943786 0.20588571362565833
Ni 3.413032594986772 5.0625944846004 12.096806945436416 0.724612718393623 0.7479076843658217 0.14010455346479098
Ni 0.7853994789372039 3.183464799564109 4.454439382455863 -1.1101174986389268 -1.4597070530448604 -0.15917211161920328
Ni 6.16116032874433 8.57656245815629 4.3846680335231225 -0.4848342086752618 0.48126551748739693 1.2468721617948784
Ni 6.406599980943825 3.040377325284291 2.499752621465732 -0.2483580238572561 -0.6144933984370127 0.2383808580398862
Ni 5.966373568358879 1.7663691249595788 9.749851040858735 -0.4040889710053944 -0.8125840414982844 -0.49241202102251974
Ni 0.8744855996698966 5.409293619795612 4.79851327179563 0.32974809419997403 2.1054470682009803 -1.6267613956256177
Ni 4.809589309071459 2.8928079497909445 6.840129470062607 -0.047249419905267015 -0.39122034257284233 -0.16428809268952996
Ni 1.6626834888276132 4.013561056967132 7.523573104493232 0.5675319420858096 -0.15664831675608504 0.9962813919523617
Ni 2.756082182398922 9.370414580539174 13.342881048238963 0.6957235461630986 -0.9307969370963065 -2.503609646419611
Ni 5.733370266014276 5.9876162984907655 13.140750081546798 0.2938179559622682 1.0551887078115312 -1.0992219347723458
Ni 5.392986537074491 6.486579693301759 8.176251820738518 1.8380762506866473 0.4452898707237364 0.805771132341509
Ni 7.80665702283577 0.1360090336029164 2.41420572107149 0.4119465193766002 0.7687634447689082 0.12335844435470368
Ni 1.7732771793093551 6.6583642995252195 13.220916848459513 -0.10484187360775492 0.7350917635480759 -0.9444772627968766
Ni 2.7484796185635787 2.244386113685861 5.347387822290082 -0.48721530731292867 -1.469444077826966 -0.098875628721991
Ni 1.2378103659369428 3.874372095932965 1.7997472508359447 -2.039673878459913 -0.3737874918083756 0.4315799773368115
Ni 9.090129072417147 0.189376994499205 7.571998935890223 -0.18446662451993392 -0.13130392445402547 0.11665480708228297
Ni 5.066891183284444 8.629622982853634 0.4371900171140452 -0.1899585008724406 0.02283756671980583 -0.41173131804200064
Ni 3.014624913559454 4.489124112177743 5.348486073289926 0.3708847163392838 0.19410646160254313 -1.219716427315693
Ni 1.833875446956723 6.366059147239642 2.004399749967041 0.6759633328170359 0.8017550692035804 1.1122386587469877
Ni 5.766327056136065 9.119131788534439 7.9973230269401885 1.3159209369634242 -0.5108620001975912 -0.6526812223606436
Ni 4.297467274540582 2.1533590704441696 1.443326834868085 -0.005818663564306108 -2.257564586966247 1.2382571664323578
Ni 1.6343752821958888 0.011389029550656805 9.567521002606417 0.09316597993172342 -1.3508946248251317 0.21995196191073732
Ni 5.108219127738937 3.9335813446091983 0.36353034107477405 0.27526796087422273 0.9890907877411934 0.6190108266913921
P 8.650217504132325 2.5130594232092016 12.345221876272081 0.7279034733297528 1.1051102752323225 -0.5848174686391348
P 9.35504277059195 6.79721063587984 3.1666076653304187 -1.0723929875049596 -0.2107111600387597 -0.13038989728018832
P 0.21091604867826647 4.979633011517763 9.486161531403823 -1.0402395427008666 -0.7137618917220482 -1.2034986799052498
P 3.9290438826368246 7.355188816711109 12.33821473856903 0.6396148760949888 0.34800626907921356 1.0178048678464342
P 0.6928361807134376 8.308889242292167 11.857281736016011 0.04112428084413563 0.44386959333744197 -0.516868097182355
P 7.9493092711713 1.1602475465887832 9.457794985975312 0.47896952236436857 -0.7595730365188919 -0.9796139585990097
P 7.892350233228305 8.186349988658668 0.22880846505177577 -1.8968845790741073 -1.3027077807072596 0.4703252164258093
P 0.5337231315573145 0.860324088252855 5.511855076573605 0.7193666395033353 -0.20189844684313615 0.7747998807709753
