# total energy = -340876.52204389434 ev
CRYSTAL
PRIMVEC
9.17463223851824 0.00000000000000 0.00000000000000
0.00000000000000 9.17463223851824 0.00000000000000
0.00000000000000 0.00000000000000 13.42800166711066
PRIMCOORD
 96 1
Ni 8.473506692079965 4.274525306293879 12.770902521211084 -1.88500916779276 0.38037491521790623 -0.3090170323002097
Ni 7.51177588478955 5.848103152052127 2.148856635700461 0.9564948560830431 0.25841489387262595 1.5889168139740184
Ni 3.5279029226402963 4.260304626577207 7.3688708981219015 0.9376905788923463 -0.7388201202422566 -1.4613250482642575
Ni 7.376450061679283 2.141891255028914 13.23146905138975 -1.1641906263342465 0.20304284486022453 0.26092866143341514
Ni 6.879230876359903 5.822184816439484 7.287940551122717 0.5133742250964837 -1.2318337794045173 -1.7084669403262251
Ni 6.1857204377900725 0.2513216139011409 2.596935574161476 -0.14233447123657422 -0.8077681081668798 0.4617490447210241
Ni 3.656237676109205 9.188210530743675 11.39335078183631 0.8482732673697778 -0.3204209032617772 0.12281876980114975
Ni 0.38472626905484486 7.087751914166691 1.5729025928375084 1.1596122629349448 -0.9691979054720083 0.19448827042199407
Ni 5.857397054344378 0.03551224837375638 12.976954665526415 -0.4524645340953046 0.6798066178225259 2.4097281284781014
Ni 5.813817551986835 7.216545399239363 1.5095223995351126 -0.5789520109972932 1.6504793080678477 -0.017254159094757384
Ni 6.7766126165979825 1.2598054287839369 9.794612425074835 0.1412108991550923 -0.41792716244006733 -0.8656258997156124
Ni 8.622429319925786 6.899772877576437 8.240079280578437 1.943971505259581 0.6074817430058699 -0.21499976011178457
Ni 0.18171276288284263 6.445821257124041 3.9428504297510885 0.07921157463416036 0.2362113611923932 -1.2812933195872254
Ni 9.269039039326824 3.2085156308359184 8.524215801023203 -0.5058887153527157 0.3456866198071014 0.5609931125260275
Ni 3.188689250921255 0.9361152345362558 2.7903248912865175 0.18609001905596984 0.09921398589801622 0.6001492139001986
Ni 2.425002051607666 3.684220303938785 0.21589101975285444 -0.8433336639763153 2.5568170836805253 0.042771072418939245
Ni 8.450083856391796 0.21323037645102547 12.221616381401324 0.720297893068353 -0.3600557440445799 -0.8809656153964763
Ni 2.717544369959798 1.1465996436071524 9.506487692066946 -0.5315593806459425 -0.31598986407361707 0.12160546621933895
Ni 8.878263935344753 8.875373926241041 3.1944811961503743 -1.675072681136496 0.8845587320643734 0.8497112853678851
Ni 7.982076699600082 4.930988580543761 10.327368630274576 -0.3377164571174313 -1.2891894345058508 0.45004692579274747
Ni 0.41903113584749546 0.7069677888978404 8.333874296673567 0.10510181213736092 -0.16642647918877143 0.8942427921213567
Ni 4.158374464220932 7.519500924996929 3.2771574756334827 -0.2782509547619466 0.813535092557644 -0.005981157284099377
Ni 6.575367062026886 0.866472437379279 5.4329556379620945 0.23807155432958355 -0.991769363014621 -0.9160642588718223
Ni 6.485547414009969 6.399571936832593 9.330353105485868 -0.22706928968180895 0.3998687622764598 1.524245599047878
P 8.618493402765493 1.838110012384574 4.486040026546828 -1.7844605222437202 -0.3840019704475322 -1.8608024886395693
P 1.0120169656949833 5.689519636631046 13.170371506547683 1.0656448701478487 1.2082122833308355 -0.3915826110082675
P 6.890368879699284 7.454122496828539 3.5775817204014806 -0.12190165730351908 -0.059461645700742756 -0.6728643821767379
P 7.383019098245179 3.9258892874335323 1.3780352424851405 1.564542756005028 -2.386539091956148 -0.0610025078253014
P 7.62584408538141 1.9649951739855895 7.855246585791518 -0.7102407659426672 0.11063714013329332 -1.2498682683087248
P 6.66668217507207 6.162664587384913 12.018356995089706 0.49919407694135964 -0.3423508705656491 -0.4635501024855049
P 2.215985583668813 8.465900922089565 8.233540520298389 -0.35874525276327246 -1.0417240976661932 0.5836350182952594
P 1.6567825840488928 8.153018444426555 3.6273063913230414 2.1155782430977115 -0.31999410013700375 -0.43165068267374695
Ni 2.780234630930133 7.546061484854842 1.1870827076392911 0.787372061009031 -0.2755075876888546 0.21234972408344718
Ni 3.491286966027885 6.460922701519938 5.550182664377471 -1.6996961361121308 1.3064965583257306 1.0401629238266603
Ni 3.2427645323729095 5.316387350129723 11.832822080484304 -0.016358900973997635 0.20851492371838926 0.7948002351523021
Ni 1.4440136915912536 8.18285434793534 5.905567542592388 0.09075454227675338 -0.6469299216991633 -0.10287420835842283
Ni 0.6117837335065132 2.196434442716408 13.26859786993517 -0.023465944332424105 -0.24060280539186948 -0.7034527964865562
Ni 0.5288221229658637 1.7709333563294305 10.58871811703399 0.24038940382948276 0.700103163288033 0.2910000268974988
Ni 4.346803057782874 4.967650410316549 9.767125227377319 -0.40610702987668773 0.49385878077137535 -0.5904497272242477
Ni 8.070988059041545 7.655881830795852 5.4098997875569355 -0.5389654433020267 2.380148872159088 0.835857153093612
Ni 0.8728561463772535 8.46119433583495 10.25127239691585 0.28926273249141793 0.6081707986530945 -0.179494111006007
Ni 2.863365972164175 2.9281296999835225 11.326290643608521 0.4575414343975797 -1.2374994623307267 1.3135604071510474
Ni 6.455124334048366 3.1847992069213396 5.522762441494105 -1.4139239332724747 -0.38864538275681454 -0.4991336560170694
Ni 2.3648623383542566 5.753852156742855 3.1425151626128245 0.17506641425195654 0.5132258724440774 -1.1801643760546836
Ni 8.962679725069334 6.781346726748823 11.549665410745176 0.06717572651554882 -0.362183331910544 -0.23697215061781768
Ni 4.375253591848293 6.51657601968854 7.8869229204946025 0.4624900366521067 0.7732626181908425 -0.7987764461912308
Ni 3.628227524383399 2.7689681827416988 4.897594754716184 -0.5742216954011595 1.3762989238308492 0.6671063966470382
Ni 8.843281063241738 3.7702508289086136 3.556231434099115 -0.2928941585964182 0.40989735015705536 0.43609097783328765
Ni 1.4605280293267437 4.9812105165238005 5.23634327258901 0.7806673952953459 -1.9448703629247668 0.9553707697809287
Ni 8.900457370334836 0.724457390022932 6.2225226394336115 -0.0300695656918708 0.12874259148475248 -0.7899961288954395
Ni 7.130450651845008 8.743084906347692 7.438521952447746 -0.549211546510067 0.30563628875343496 0.690641760764817
Ni 0.38051327800587986 4.557938865731114 1.4306728590906002 0.5705043944505723 -0.19474486651749043 0.8383506089394271
Ni 7.81202489408491 1.8861850844590007 2.1996143701936974 0.9121332992485324 0.7982236590115543 0.966572294923703
Ni 2.6962775728093162 0.9467853316397974 7.003011342466646 -0.7775139372680288 1.225459243336741 -0.468465023288619
Ni 5.301093238460243 1.853706886912537 11.543958789594356 -0.27737343725299973 -0.41320018927804325 -0.24929596229049325
Ni 1.5416593007683763 1.5578158278529308 4.569978735403494 0.3086532212028878 -0.5489341244789644 0.420403906115334
P 5.409170404306951 4.915263261166744 6.054994775202347 -1.9667332244361289 -0.6879266758264991 0.8952282959630775
P -0.10062094235913359 6.029944359784023 6.160753511523633 -0.294165569109674 -0.757971753470043 0.938415629983829
P 7.752362261699415 2.6006045095283774 11.135425267767388 0.007949593864379857 1.4097222364863011 0.7645092974782446
P 1.9633712641082663 3.64883374802446 3.5197209857555687 -0.17999676167403839 -0.1769556608548694 0.41705041626206885
P 5.141959245114647 1.73773036284902 3.963287840161965 0.7856576494210856 -0.539526200901503 -0.8258249656685905
P 7.990526535741407 8.586978541586934 9.448586589039904 -0.16096879850830986 -0.20786212062573878 1.3624059678988407
P 1.633634987322981 0.6093570433226037 12.176162501710804 -0.1319351302801212 0.34448822862362605 -0.46771683226868477
P 4.387630170517836 9.177476211215607 1.3489635858282252 0.3898689707512705 -1.3383918643724306 -1.5861621340470167
Ni 5.174520014349788 2.128808229689576 1.190550718563744 0.8645856313765562 -0.08399922583079082 -0.08282294613450251
Ni 2.432488551381088 6.675040264892643 9.819924317507303 0.31279681105761614 -0.38627713963495414 -0.32468584918571824
Ni 4.879362925856203 1.826036196573516 6.9248471470381565 0.41634850509903776 0.2777555031827668 1.0015195004228494
Ni 2.0703658233700915 7.71548024075682 12.240684019243362 -0.8059493097905863 -1.8324362787920505 0.5961539766978765
Ni 6.044045769283717 3.5543992600736827 3.0913271378752576 0.561010338917208 0.17106166396793768 -0.0008073263926437708
Ni 1.0139528130628659 4.600444936135851 11.26250768395802 1.0187386925146131 -0.3555249460537619 -1.400842417498168
Ni 3.7299558448340178 3.7384607287677953 2.2738169594920845 -0.14401263026994554 -0.09241958868400213 0.13662507955662276
Ni 7.264427804040209 5.366710207062591 4.785619287700694 1.172183414731736 -1.2786715656936622 -0.8729347746721998
Ni 5.78753223109118 6.906121722972526 5.427558201912212 -1.377604272905834 3.7947973423024126 0.2324837758291609
Ni 1.9728670083061732 5.981575699483189 7.365983641407813 -1.5098366227113997 1.2853281517782316 1.1220551306167772
Ni 4.572104497655335 5.299873012394233 4.07852672380663 0.9853259213821225 -2.0227439354737937 -1.4010542763986582
Ni 4.457274802601227 7.118009850750939 12.839303990648276 0.6628612482174391 0.1697596573270625 -0.2679287469003321
Ni 1.343276231404764 2.2604366760735073 2.047461354394174 -0.30768957173803785 1.3268830924018824 0.5600376905912935
Ni 6.5393658057635164 8.119035607219745 11.179831404474912 -0.16479357157103874 -0.21791590531731503 -1.6077365177836827
Ni 3.041849264556522 1.548255861230497 0.20919353833790566 0.37876129087388316 -1.8412271376108031 -0.13904320207981216
Ni 6.435499796039359 3.832886042086497 8.847723420092587 -0.4617055930775984 -1.077172925392106 -0.42846277186406856
Ni 2.3590639708826844 3.405531680020315 9.209916792770562 -1.4203198094964895 1.6275746355555325 -1.1995888033278825
Ni 8.601933191869627 3.342557005455646 6.074707389679277 1.4455626432236781 0.7397146070320679 0.9289868804707613
Ni 5.922949800522199 5.119591492115132 0.4468825664383995 -1.0196982282144051 -0.5907867988486922 -1.3433705485339444
Ni 4.728880610557588 0.07091073130977939 9.057026136552187 0.5361225745365928 -0.2676184147487649 -1.3298838269014193
Ni 1.1906378775684592 0.1067945522825843 1.4158888569645065 -0.22531939687023778 -0.03906328455004885 -1.1011800869399808
Ni 3.7475436145223147 0.09588132742904794 5.013975880054221 0.10256876130286206 -0.2230840797818158 0.16238701901207517
Ni 5.81279916782648 4.178668750371434 11.48745406556917 1.319615612206192 0.5599793265495324 -0.04013877700241474
Ni 7.884385217262583 7.294364628501823 13.530725365494568 -1.5935100897716556 0.4322937155743845 -0.1412425237239761
P 8.05817109803239 0.17707315144237745 0.9186568271602202 0.19397147868657563 -0.4462702323591346 0.2399934539426448
P 0.5444400991475997 5.31408451747883 9.145690698390826 1.59072378527577 -0.3232064364267143 0.666728187372013
P 4.134502071561074 5.7587330610069 1.547966860320126 -0.8719171320409629 0.9765052377666988 0.5496710026449888
P 4.65835521379497 7.294034341747113 9.936922895584004 -1.0029040394752018 0.06259684889561479 1.4519209813415384
P 4.439072332563887 3.3599796317665884 12.898401465697935 -0.5982933916383826 0.06028079916792844 0.8473255587445279
P 5.119811683284939 8.799426321921937 6.623549477296593 -0.8543798944881479 -0.4846195215612944 0.8859317011525001
P 1.5448337234664207 3.0518863120468698 6.890605585206825 1.4424652352452771 -0.08048709891247428 -0.14544756294425917
P 4.409520842649435 2.8369613810515415 9.63788126786975 0.8852359606370561 -1.1523751217565572 -0.589462937830946
