# total energy = -381162.365410419 ev
CRYSTAL
PRIMVEC
9.30355145293094 0.00000000000000 0.00000000000000
0.00000000000000 9.30355145293094 0.00000000000000
0.00000000000000 0.00000000000000 13.61668796876006
PRIMCOORD
 96 1
Ni 5.589266594911161 0.3158611482607913 9.375443547326462 0.49955094606014605 -0.652461907260986 0.885957669294429
Ni 7.58705537657136 3.616160134810399 8.131246141181965 0.6337802716910826 1.3089774157660552 -0.963443005266102
Ni 7.722608118795643 6.0562211374629085 4.036830440073776 0.8648581683116525 0.6222079934724509 0.9968472917581606
Ni 0.8518601359648434 5.027555382520406 11.941644889368092 -0.029634020816348965 0.233717648236262 -0.26285133237742475
Ni 0.4103508061779143 6.432335805266689 1.9446673645323882 -0.6039089380529471 -0.466539524131132 0.008220073916947132
Ni 4.23708845113098 8.063685612459638 13.527471489767795 1.5115911435086613 -1.6397359535084146 0.02018393114704266
Ni 3.4303589120951528 4.436742661709778 6.716050392771985 2.172019613914892 0.03331712609489101 -0.26708465373248197
Ni 7.778113105762703 8.105449254178568 1.4277778711679845 0.22074411879472952 -0.9969290528386896 1.0713812584109936
Ni 1.4283835323566463 7.505053875544261 3.623223390946067 0.14429082363199666 1.0796522401705342 -0.9279481547936019
Ni 9.048978211310885 6.72243914143948 13.328054519746765 0.47326398733915914 -0.09097077205261753 0.27503733292065535
Ni 6.109297897544551 7.857323541404265 11.206152642522472 -1.7212936597772486 -0.11947505013989745 -0.6303079968717661
Ni 1.9373343054094523 3.452445542846041 5.519918853986962 -0.8441422759205398 0.46687813841747333 0.20108083603784724
Ni 4.994304490227367 3.0523184091753515 11.570726254957055 0.5648783065130465 0.29812558219868657 0.45842075167873947
Ni 4.96574258778203 1.8191233827806441 3.4150657344926625 -0.7374528075810848 0.23334920915324975 -0.3500510674233842
Ni 4.220035041625343 6.355441953895124 7.743987679648861 0.2453770868520613 1.3360647589011505 0.3161994089812619
Ni 1.3694548385166596 4.448260458200765 0.689521539235555 -2.632048076400383 -2.6522713454257936 0.2808004606566777
Ni 6.329857187861028 7.871725438793639 7.546544923210536 -0.023011630403824885 1.3784491374046324 -1.743824751000229
Ni 0.1242321810205416 2.0204894467959065 3.6345802359998203 -1.3503657489048548 -1.506036018018387 -0.26531650608846563
Ni 1.7976507864145739 5.793637705991518 7.1865477276531085 -1.5589691185719925 -1.0746373034544459 1.0924154533734733
Ni 8.019121601803887 4.459173523858217 12.9329531644803 1.1719422452552073 -0.3200429510970682 0.885885678405913
Ni 3.7353200196702905 1.2606218955832582 10.676313536124303 -0.38691657299116594 -0.040517757608388286 1.5893754987779918
Ni 5.053149452105787 4.302715701896256 2.321263956292738 0.7669279342220663 0.324405598941138 -1.1385855241716327
Ni 7.461196934786178 1.3768511617883348 7.268806006695677 0.9220968382191473 -1.1687188532219033 -1.103655287953351
Ni 0.37519547693680955 0.7053105961215421 8.593110710825622 0.5076419505983967 1.0564850580254515 -1.0081254357751412
P 2.0369288219167236 1.0229998922098607 6.9217435384899595 -0.30918543955727396 -1.3526008088829609 -1.5277006474760142
Ni 7.000773485236589 2.195749745905106 12.641283110271093 0.9132643275291821 0.4771818343363266 0.9295525231662443
P 1.2635059964816473 3.222685040308575 2.49950604358882 1.9005273180330173 1.2915386514643175 -0.7737783814849964
Ni 2.7554048734618473 6.170701336026381 4.731881079838081 0.18370686353577395 -1.571151005350165 2.0869132710628513
P 2.088368156972184 2.0724032629669082 12.028396783681377 2.536893862394037 -0.9046480466150807 -0.19607669795503652
P 0.3815051454183818 7.410353027012966 9.285641018546785 0.2714262185306293 -0.597116597721462 -1.2978944184790162
P 5.2017178625779605 4.493726913331174 8.133710651917395 0.5045787382920406 -0.3343971629362112 -0.5339541061303642
Ni 6.540991980725672 6.473141181203251 9.241468687400136 -0.47362034223731336 -0.7184577545358207 0.7569674805752448
Ni 7.937603885443615 8.46031461084712 12.189985514177083 3.978992201218199 0.12527751575428747 -1.1873392965365681
Ni 0.3465703103427345 2.602547525847231 12.866503479781418 -1.1613482717894452 1.0486316234193038 1.3390297550667456
Ni 3.0007488244018994 1.624660553818945 8.596473944615195 0.6165587656064736 2.1814959288364433 -0.1650203428698642
Ni 8.937819380556203 4.21607172877788 6.223439446841245 -0.7681466371205158 1.074681269318504 -0.9615866687836535
Ni 2.3403920577349564 5.929171841113231 9.97178629902097 0.594417453622744 1.5842006394452717 -0.26849901758150535
Ni 7.47726416785559 8.513884459146874 4.346759644035171 0.8060040742879215 0.907567791365037 -0.3589856509088527
Ni 8.49503546424321 6.0345345594172795 7.870976502915186 0.6163397076171321 0.41710903741414623 -0.1712318709972148
Ni 3.2171308201913544 8.404725891918494 5.007509950921474 0.8073616167570804 1.196852892453958 -0.14847272292382815
Ni 2.3398059340039934 7.921462223963921 7.2372558035775585 -0.7678303914316776 1.6697139879277438 -0.18677161850402674
Ni 8.330762659201744 6.561701685886362 11.054286123119722 -1.4544864280758694 -1.9362959909921944 -1.3672419558349034
Ni 4.332505673111229 9.328856944621323 7.504183993499102 -0.2719692355182929 -0.6705102801222645 -1.1961054727649723
Ni 7.284708566907343 1.470221602485857 2.6670462558416226 -0.6911822066493194 -0.4955001730295402 0.041029921358116436
Ni 3.8065294012066433 7.2915838913070505 2.730104796097076 -0.0327576540469952 0.2504187630410268 1.223427814729009
Ni 4.195455059130041 1.046333198832956 13.180027575959386 1.3490035784500058 1.3307214923113662 0.32546592188485235
Ni 5.5448979588323954 -0.19454190914762265 2.0921091149439333 -1.3528921148711346 1.3762300182661267 -0.639379363045415
Ni 6.2797854748444815 4.218974436778839 9.971909105897932 0.29884317709100144 -0.7517843937124086 0.6989250838195318
Ni 7.979823401175515 8.79760555913807 9.411826945337205 -1.2740446084446122 -1.3745426032613748 0.630975712362752
Ni 4.033480231256001 2.243272285869528 6.4996535113004725 -1.3582574929481062 -0.8375013735652543 -1.9546894058977173
Ni 3.662947694223297 4.5880556198110645 -0.019059255162708674 2.2346367745254803 -0.4091920965599146 0.6071757817296769
Ni 7.411860202321156 5.743565992974972 1.6477417342022136 1.816973150159445 -1.4131420608011276 0.14610627957418065
Ni 6.753578127590796 5.649758285367048 6.282903094880126 -0.6302195509230178 0.5259019252498491 0.399629392572144
Ni 2.3801089181711585 9.091681511709611 9.48170777975004 -1.0450004544246196 -2.602237420796854 0.21407313453245713
Ni 1.5947682435398358 0.8522899600342162 1.4379633991149403 -2.339262932578004 -0.7094156989382104 0.7853408895116152
Ni 8.545339766041884 3.2394779503782267 1.6361950967022438 0.9264836544329335 -0.07661758865473901 -2.701537538650773
P 7.687766319232846 2.260502462849581 4.953505626776704 -1.1991267760897992 -0.3981723484106433 0.5276315063464462
Ni 0.783738603100024 7.880442866347801 11.296226834999676 1.4268604388284845 0.8870611867712529 0.6251218246851363
P 5.72906175652146 5.9998137060211905 0.6262341316184871 -2.5923373880743226 0.13027882562362078 -1.3721687037125594
Ni 1.1066202111605712 2.4921236756440726 10.122087030742433 0.47618784585417345 0.8545755554387218 0.06939356010247405
P 2.156916722840991 5.999143850328662 13.38964309889917 0.5684937917784467 3.948813106531657 -0.9237562281994413
P 5.585340496268837 2.523169626282537 1.1379796914773446 -0.21315319382134904 -0.8542847636711804 0.21057514868152769
P 8.393124363465942 3.444639863317821 10.924355516937041 0.1697671135262302 0.07581077648272751 -0.05527666108511771
Ni 9.082303532014205 0.9880185393777877 11.30265465858257 -0.07154171679372841 -0.8948169194572719 -0.13989320878493325
Ni 0.3973323468646378 2.0008868642381463 5.901812887849061 -1.884618874332877 -1.293152790028973 1.29771418414741
Ni 5.551587212206401 2.33364698305324 8.093909129164498 -0.33285424392912355 0.26320434484146926 0.8497395675026592
Ni 5.729201309790738 0.7760324715705542 5.539758677102492 0.5862130634350807 -0.21392555321099932 -0.1382289337086329
Ni 7.4647229807232405 1.8349766341704983 9.605443151131956 0.1179699263492807 0.280831056784297 1.4905489781263812
Ni 6.55006294322867 9.029115129317141 -0.1298692027441993 -4.452754211239699 2.07273158024583 1.3123830990134946
Ni 7.586441342186542 3.9377652956346276 3.437832454842494 -1.1363028987850432 -0.5567770175621508 1.5002219824397711
Ni 0.9743795331937933 3.1377715277292317 7.800319752325169 0.6555084073967936 0.5281791513198001 1.079713946646405
Ni 2.9555521722587583 2.500943442262372 1.0299496450198495 1.2414355641603394 1.6441698209100521 0.42612872441425326
Ni 2.9825138638830526 4.09440918862229 11.365249881984024 -0.7011406034136118 -0.6689570767025317 0.3634442009008386
Ni 4.830468952096301 5.244970072502511 4.519201897460105 1.5692147075594007 3.489232530216862 -0.093181149440375
Ni 8.687107280524632 8.318947149069635 7.013302577752267 -0.04304566623656458 0.1993078032978245 0.309197523742132
Ni 2.572236555760291 5.24974279431178 2.5348148814261293 0.16775856773663367 0.2896375993323334 -0.42534993726669973
Ni 2.364078899306887 1.6147615752515712 4.017494869437898 0.7817472586230859 -0.4304597476894393 0.40786026512236856
Ni 2.178389319207061 -0.01937836697178849 12.897290791694155 -1.0550298136361638 0.7454571659428 -0.8987792465391296
Ni 0.3799775022973642 4.884029496844771 9.578931751389861 -1.0002198077748192 -0.9707894183288442 -0.4693466545626239
Ni 4.35882541969685 6.142427843670884 11.819243647240464 -1.6347847801507263 -1.302362738663015 0.4052086864321344
Ni 0.4505421477296577 6.694621523096955 5.534244462255798 -0.9957846548216012 0.0313592310375718 0.6065972835183876
Ni 0.45842318602328774 9.178790662392244 5.084267040089148 0.5704462875191273 -0.7204236200129399 -0.6055310470374022
Ni 2.3765828722340956 7.8452196211823155 1.1473772086304501 -2.355103756265002 -0.48987022843727246 -0.6896601135778381
Ni 0.7165818485034721 4.8127084726929965 4.059978606026297 -0.4285933839046619 -0.04317345006368049 -0.7792718004993998
Ni 3.1861779050657413 7.862831243765058 11.286681391381137 -0.911674357334243 2.272679074010183 0.6642437303872625
Ni 5.975410491000305 7.140922181795723 2.9476860196471844 0.9105834382629092 -1.3957860860211833 0.1747206008767636
Ni 6.247306777308107 5.329520746581734 12.042939164695158 1.2407094846275923 0.007125555301187729 0.34967877168563005
Ni 3.450649957448012 3.709456147097641 4.002462191271392 0.14722342389775933 -1.1495085988420397 -0.6423836970893775
P 3.1602396040828107 0.15798918650349197 2.6942796111634424 2.14332815951747 -0.9566992587843653 0.5926112536519407
Ni 3.148591557873833 3.8419294138465467 9.086565488857921 0.34844875593327085 0.6637019989511795 -0.5530260351601508
P 0.004517804504057079 8.833312588970383 2.6435436245851376 0.283714291869363 0.9619160270986143 0.32159049808984613
Ni 5.955026410134596 3.6044655708449964 5.3781829715785845 0.4021303046171268 -2.425978786009009 1.0157847520926118
P 4.420731249948076 7.043644249558448 9.82144463167385 0.5938155583726871 0.3185465690571998 -1.085636482778427
P 5.788827769977108 0.8463896478091895 11.593574846558194 -0.6038503169008697 -0.8316217748560258 -1.1786309701292927
P 5.818822419320354 7.425694583082138 5.1127805640678 -0.49721766994127914 -0.3694888644330217 1.1519753152149774
Ni 8.534798842435839 0.8878258045228827 0.5459910017842771 0.4705489024008412 -0.044077449935188605 0.3290752365026655
