# total energy = -340892.83792857063 ev
CRYSTAL
PRIMVEC
9.05248656262646 0.00000000000000 0.00000000000000

0.00000000000000 9.05248656262646 0.00000000000000

0.00000000000000 0.00000000000000 13.24922912377295

PRIMCOORD
 96 1
Ni 6.252733360403382 1.8559226431595734 11.401637315730664 0.8384912482823496 0.3832283255063013 -0.1030863243692289
Ni 4.61951093353881 0.400626835183594 5.931825435620124 0.0881520716568998 -1.1756649455224333 0.03329578593865233
Ni 2.7023301153591857 1.7734363876870292 4.945923675261581 0.6281151029855053 -0.8299906670105061 -1.0307223472390508
Ni 3.344649283165854 4.603478980241852 4.9378153632525 0.7495084531940382 -1.157167143828562 -0.5327922246117792
Ni 5.1159130741327985 4.594073446941153 2.5491783410686244 0.513914670980986 -0.94234453272459 -0.6940219900909596
Ni 7.262800733029697 5.9447587228450605 2.6012473372113507 0.26180103673603944 0.4591668858161447 -1.4352946856387667
Ni 4.929911637434558 4.531077194545035 11.509459669953927 0.36978171308309216 -0.5804157400270133 -0.6277312372835254
Ni 5.622689364065192 8.016447377768033 12.337390112297854 -0.08473301867302181 -0.4108936526320537 -0.2872325894352666
Ni 1.8721175412105369 6.584217304970284 0.5284479422152359 0.43108503997826403 0.2503094911566721 -0.8667301885233848
Ni 2.5423364718976242 1.5924862383629859 0.4353485517650788 0.17418426875731935 0.950512156137047 0.2322770591349935
Ni 0.7142131090201668 0.16538168332737066 4.79362373993502 -1.455969697489615 -0.37746339799806605 -0.1191775735041367
Ni 8.486696885344003 2.364029648583018 1.2343418162947455 0.3519184596494262 0.3284108634457893 0.5173272962069607
Ni 6.9871344191963 0.5076199816586919 4.890462712489623 -0.4463249968564701 1.230718177742835 -1.2469279547334784
Ni 0.8517303341638195 7.4823506840805765 2.5836529247731996 -0.4570171864629935 0.8538484474647102 -0.16178692353423105
Ni 7.732552353857316 3.8691593938259365 3.8335052711520823 -0.38206078756076134 -0.42236282961391775 0.156698196157414
Ni 7.446421365822178 3.7487703780742505 12.488749494294346 1.0924751029668154 -0.3775418166444853 -0.20095150954883456
Ni 8.089202210431864 8.996795437760857 6.757213034552917 0.683699268008713 -0.28945427967693377 1.382631550917096
Ni 6.835097911222049 0.5382825633681521 0.5164380085963352 0.07106092050256795 1.1354361799093735 -1.0253451420875372
Ni 1.8555967536515605 6.129574283833588 9.232658874433673 -0.4559730614691953 1.640724028453297 0.0664236788408727
Ni 0.294026566615378 4.8603161225011835 1.4837016048424516 -1.342313825134656 0.5694106471657613 -0.370029310317524
Ni 6.652219582308931 1.8182552475251073 6.988623553198192 -1.1441491343023393 0.18904807324302925 0.009735739230525169
Ni 3.344667388138521 4.424103963539871 0.28842941431526015 0.09531310818171328 -0.959016336953316 0.7285652752834678
Ni 6.176556687905417 5.4864222872842205 4.743581595482405 -0.9224637346402629 -0.02974432114196813 0.774981143543846
Ni 5.009292890094648 2.8650304522345187 9.316592622470973 1.6328058020474847 -0.1501915053871478 0.5594874745147784
P 0.1294713752902729 5.694919152521669 12.406352858436506 0.49889351498180534 -0.45877119303962277 0.5843814095429807
P 3.938754908759312 6.187971873172194 12.531120561827795 -0.16760738687075005 1.5499756568241305 0.782801153808897
P 2.352704988179577 8.647278940417253 1.4517445175872745 0.16851010119067752 -0.41307857609851434 -0.543005160589039
P 6.500644751137698 7.582163398395795 5.953064379056218 -0.8267140531417633 0.49377830524242705 -0.40505827689719914
P 4.631261060799933 1.1773301626138264 12.594253506767553 -0.211493546730739 -1.4851555750249519 0.16711913438042186
P 3.9578647074097226 6.265424946243209 8.262577239191879 0.08654384662951546 -0.3198881706867588 0.26533013293522045
P 4.648180157757593 1.0280727679440167 3.831928328032754 0.7446151296574789 0.03639242258610507 -0.9794236969650746
P 0.3785749784747357 5.716563647345512 3.540591255107114 -0.05904769809177572 -1.9724984090546807 0.3311460029887652
Ni 1.4577309267997407 1.2754229045256444 2.7367205109408577 -1.2176356335272642 0.5216832591828112 -0.7253074304678025
Ni 1.9551378933767685 6.627913656502985 4.9079647895671705 0.09320737469262012 0.08820452216139003 -1.0628135713466405
Ni 5.96391378392714 5.638286798018131 9.268166346828922 0.35804179893834465 -0.3104763904545556 -0.07201762798888241
Ni 8.705957156832204 2.309470313449894 10.274922319954374 -0.7536255606862052 0.6833292862638037 0.742889919436256
Ni 2.481576183625926 5.276142082239035 7.0268214245318115 -1.0676457026279613 0.3038007782065929 -0.34312014463150586
Ni 0.7927651539320909 -0.2606925961888472 8.964879086694182 -0.5025300832931281 0.4567217667097618 0.4795930148809805
Ni 1.4428214818081604 1.0014765630956481 11.58172023686394 0.4190430212120654 0.7500704963450953 -1.3847234004491185
Ni 4.2540077453299165 7.079352097477557 1.7138411544064764 -1.310662516777962 -0.6527231313421726 -0.26751351373978444
Ni 5.614306761720199 7.7983729819895435 7.971610412957287 -0.26321514347474667 0.5553366855711984 0.26970100830940646
Ni 5.312324870114777 2.9639288654300344 4.521126701567047 0.045864880852914555 0.41849563334902756 1.433571789410389
Ni 0.6208892169089342 7.379188549821894 6.912546458049897 1.3361357213484022 -1.0570643275676892 -0.37998642153023593
Ni 4.9352163944260985 4.608150063190034 7.180247489158284 0.36187119998676387 -0.29441470900600264 -0.5054212887979941
Ni 8.007412996407014 7.308868835981824 8.668904425019795 0.758413726103468 -0.15922481923400963 0.38364124467400385
Ni 4.664764312720905 0.19989700322044746 10.338730580374627 -0.2247110738622775 0.2582662841099036 -0.1804356489836699
Ni 8.15759374468286 6.99282843310019 4.646862115747408 0.5755910649448602 1.3869772294803016 0.7365714334173961
Ni 7.054711229677264 5.854369646803209 7.111669473688814 0.9060127881730913 -0.9043032616811523 -1.2194809142661192
Ni 2.5549194279014475 5.318190881259006 2.425218119458299 -0.3696099633919183 -0.47925054393989724 1.2762691268997568
Ni 2.3089633742152076 5.274512634698972 11.437158366855414 -0.6051227558553901 -0.3927205812674527 -0.48647560093342673
Ni 1.0482054975501338 3.5316827033061338 3.861368824087167 0.7636546627874332 -0.153860983818935 -0.13378478189435025
Ni 3.636492390077547 2.735226850695799 2.72719457957192 -0.7407116808380146 -0.10876254881839978 -0.5635256491398939
Ni 0.9960812812407716 3.160566973570355 8.158424762928293 0.019071929029786508 1.1499006920741357 0.14814105061602229
Ni 3.9211749802992943 2.439391597310951 7.047436651659514 -1.188281091624547 1.3573810038804237 -0.8719724107589305
Ni 4.161201655436971 6.8386736433238555 5.950798541726896 0.8783441186132294 0.5531479054499958 0.0951822390308038
Ni 0.9714766233858138 7.605455445732368 11.712079661063548 0.4722723128498512 -1.1500505873884388 -1.076274581947553
P 0.0858537803886751 5.4305593941190455 8.019135060960505 0.32799383051302866 0.2952947976181108 0.1812686864079265
P 8.564412480518696 1.53050386443624 8.309982394375492 1.1314070041453224 -0.22419171102369778 -2.5207481058721104
P 1.7029084666612841 3.009987915895828 10.378889220248123 0.024306180845532335 1.6981570737597853 0.46070851927165174
P 4.213660813740679 6.086783180934256 3.6800792065256105 -0.06517386559417163 1.6114077959876827 0.9547843011498395
P 6.749588125314054 3.9351701241711723 10.389542186165603 0.10935030300106974 -0.4311079227963995 -0.18064956476668886
P 6.646670408186382 7.706662242942974 10.173155173839714 -1.835634216904058 0.15240779631217624 1.5369429920098887
P 2.5291198418504437 8.524228493683463 5.751795018907583 -0.21863041488583637 0.3360097588389697 2.084867958498048
P 6.914044644538123 4.029605661604181 1.2846926505313385 0.43006482624386577 -0.01564516273642467 2.196272315814669
Ni 5.2241264957656774 2.792601509078699 0.6273427344162187 -0.3767823127706414 0.2790063448707324 -0.37716309314882784
Ni 1.5396287706605953 1.0919652164871703 7.0689272542156845 0.13219558303035941 -0.5163155671129945 -0.45055574710836604
Ni 6.942170719576884 0.6683097613193133 9.259780123489396 -1.4376081642632919 -0.40992177563708754 -0.1312159927259095
Ni 2.839674438013865 1.5735122270075808 9.312538013842115 0.037755621482218844 -0.6916982270537895 -0.46586023867592025
Ni 6.459564568155432 1.9551469458631021 2.621306741678165 -0.6162309499534097 -0.01113339090900018 -0.10741503365156985
Ni 4.285510397771143 6.808347814106009 10.451813334406394 -0.7621410543563842 0.6033605217486447 -0.18427199201062458
Ni 7.955243517665983 7.289587040091074 0.10781149123966312 0.5904132175593573 -0.13238095956828813 0.6601297082188889
Ni 7.579311865200684 3.682026396335986 8.253501216393726 0.2091394446762656 0.44293808266210816 0.6029280621969164
Ni 3.1461373103544603 8.508857371888865 12.54588064079487 0.5661312050835411 -0.5554554705372498 -0.19434737396875562
Ni -0.1635195868885315 4.8565321832137025 10.39311882351604 0.6736652808114785 -0.5636979130517001 -0.8775239367047791
Ni 8.747616698939826 2.308166755417843 5.857589616192101 0.16104747426504523 0.7344818978782189 -0.3875148686967972
Ni 3.463879580666828 2.7062769994006723 11.569796301865209 0.014209201620846497 0.022172679442297297 -0.04785337203785307
Ni 1.0490202213201654 3.5712692260433414 12.69852457060211 -0.18123937583188787 -0.4737751226476228 -0.39828727672195274
Ni 3.1775947003640184 8.487928023485384 8.16336651521785 0.5912215723932656 -0.5524670773328872 -1.2329920613786765
Ni 5.918868611930719 7.799685592507928 3.778773033529985 -1.9559587595284444 -0.46287647345724797 -0.6407754720619931
Ni 2.8032472330071134 8.656141324537932 3.6056451376468797 2.2642689955696165 -0.6814855481868457 -0.3278799306429837
Ni 3.16394355097282 4.116382795598893 8.931742460469726 -0.16513012897485108 0.11339721937693373 1.1531117428122657
Ni 7.098733470717978 6.010081464228937 11.547272810618367 -0.1798872326793676 0.3982967898036495 -1.2927853793872253
Ni 0.507475141877353 -0.009334923907296686 0.3385403576640107 -0.38933006752866495 0.27960592612794427 0.9647560676505708
Ni 4.435211364271303 0.45011044122942007 1.5666287163994461 0.49301777292731863 0.11851191489567976 0.3964432815346785
Ni 5.8849217881793985 5.660374864672324 0.26893579024430136 -0.5003891256907254 0.3752193391588957 0.9105117044847092
Ni 8.244769188076253 8.979749605994527 11.166344185696872 -0.8989800496960259 -0.3797637639964685 0.16609377843970108
Ni 0.4243932328040524 4.998294119199221 5.7127896657929975 -1.1661377227582885 -0.5259014110292168 0.8047905135957947
Ni 7.760569799060073 -0.23124938438853448 2.58589160464352 0.9867832226539393 -0.244926629578204 0.05638043567225774
P 8.419273967130712 1.7134727182126952 3.547427692786313 0.6118539039316365 -0.22838929404481315 0.8896176346445195
P 1.5882949371904895 3.214184850124776 1.7133505096471906 1.9305032955698171 -0.2936562335734233 -0.8616424895878322
P 4.95435335053551 1.041714864848881 8.116173188214448 0.06989698210145381 -1.7969830801907631 1.5766557372184782
P 8.570215124258587 1.6495169022652056 12.427365489714255 -0.9791750712893781 -0.01053740919621411 0.5004158651636027
P 6.212286851464474 7.674136659546042 1.3330845267253222 1.1136602216848626 0.43351318980378245 0.7139830065939187
P 1.998725615073465 3.3203433573599077 6.091942192895822 -1.503820755534623 -0.059871736654967846 0.8845096239939928
P 6.8365191515764385 3.7663503065342683 6.064556611239158 0.10460893166134243 0.7548419495918097 -0.8520476468105456
P 2.462837536915197 8.32682092420478 10.19354589930634 0.38998004240783807 0.07377857654404714 1.5807659027321097
