# total energy = -340889.4166260388 ev
CRYSTAL
PRIMVEC
9.12099742541573 0.00000000000000 0.00000000000000

0.00000000000000 9.12099742541573 0.00000000000000

0.00000000000000 0.00000000000000 13.34950169664324

PRIMCOORD
 96 1
Ni 6.017076326568544 1.9737382149141651 11.186041277898815 2.474662110147325 0.09591551765240255 0.438633027528851
Ni 4.9723208096244 0.6615587049664977 6.050955359011425 -0.39972529472005996 -0.783434930738154 -0.7478230950718153
Ni 2.9682735206181357 1.544741226997287 4.72488274594697 -0.1806865886522114 0.6458091778311588 -0.18866780708547506
Ni 3.84264880763739 4.313976344113231 4.615950674962336 -0.802462122572934 0.7387134194610633 -0.17629565867336733
Ni 4.014543123117287 2.578095497292282 2.49881305229356 -0.4938189286723753 0.3573995373686555 -0.11414258218339053
Ni 5.1012643487276215 4.730194814785741 2.3844877355940124 -0.02386009444704923 -0.23721846230066884 0.5632328004898235
Ni 5.346391151684335 4.586119541129769 11.463657073306946 -1.6840568869129773 0.18560459477911903 0.11396209074146825
Ni 5.768428818646573 7.861761550411656 12.300297882316443 -0.4032371645280604 0.8368601404368299 1.4151516350319888
Ni 1.7778374344898187 6.582870032280578 0.030495142437413154 0.1989553050544122 -0.44734701036308117 0.7120328248460834
Ni 2.9174695655495255 1.6789658235483942 0.2850676502180148 -0.09849073457874649 -0.18740102455790952 -0.6515879892964649
Ni 7.997071545643762 9.121453369185568 6.805629413511125 -0.2644418167929962 0.2984096890980087 0.7815546829963056
Ni 8.840699950699591 2.497028073118169 1.303510914095386 0.43004425741857555 -0.47677457159557896 0.29319960565197895
Ni 7.216140876160938 0.8050091903060967 4.637870255720125 -0.5132145595901677 -0.013994257396562996 -0.1488694441416146
Ni 1.0376776230243523 7.557795193748011 2.380029392104329 -0.7907972846404961 0.13844233527101965 0.09228563420929912
Ni 7.755237422719322 4.291283302782763 3.9419609627493375 0.8794052128878919 -1.2245935529023362 0.06963010159331234
Ni 7.66237654901133 3.896955225676619 12.775833846955416 0.4752879597477234 -1.1598056098926735 -0.28692122884243487
Ni 8.306847977599814 7.141950683965592 9.15223126253988 -0.30881211537825526 0.357942554356319 -0.679536909100907
Ni 6.887119139861121 0.9578141704963898 0.313819770067706 0.47936161559646473 -0.6826721122957792 -1.38865358874146
Ni 2.238739671029677 6.42827824871543 8.99532092145616 -0.299503950603452 1.3562389198561804 0.15117418101539126
Ni 0.20384790538866954 4.875556149063738 1.1826978320026063 0.20897360852236266 1.0120656513698119 0.8970692058265584
Ni 6.464315309124062 2.1968651723366803 6.959975842248382 1.849102683704138 -0.6184325855904188 -0.8863970708246928
Ni 3.3120712725752495 4.390902835504372 0.11059938929460562 0.8676449870281703 0.4348326799461544 0.4530900834944455
Ni 6.007982692241183 5.767288693981658 4.694311899231807 -0.5237272861960335 0.4874852731448637 0.40852283840703185
Ni 5.851384289265784 3.2353910481117296 8.957969525333814 -0.988438498869175 1.3261037910336968 0.9472663955062395
P -0.06563104831089613 5.66605474473453 12.407974904069938 2.5056865835532975 0.15126879761172657 0.6536078479399711
P 4.0476614643837365 6.258591214586807 12.400125373776932 1.3543013365138354 0.25066173228976835 2.5763785507522208
P 2.4909261259115443 8.465188491063202 1.1166007007286929 0.013658728434015187 1.1624726152018754 -0.00411402216837356
P 6.585761388430802 7.801070434248904 5.535864365297757 0.17624886459583194 0.34243803096281666 0.8409741626052033
P 4.758032098604305 0.9275963063774841 12.702184529901107 0.6400447645435559 0.6887365733223042 -1.5850701865344186
P 4.278869625431169 6.566826197995895 8.101211444636826 -0.21164215649346133 -0.5056832842101291 1.1559042179557382
P 4.984068654171684 1.0256926325467663 3.732053066741712 0.38633987455208946 0.5020076351307547 -0.02824896754336425
P 0.19431646318998058 5.81846660994036 3.383377405418226 0.5336818263055841 -0.8182214422897198 0.08069715804075135
Ni 0.610815860579927 0.4019878906549089 5.181849272143541 0.11332728537094677 -1.1804158299438574 -1.111105830694125
Ni 1.8973042573782668 6.436432420318901 4.641608040421582 1.0573530624527017 1.4385026510531032 0.17792342408477746
Ni 6.408193812618288 5.832330525865726 9.074403616613589 -2.1029798376074105 0.06465990207223057 0.7547187937503841
Ni 8.696214232164248 2.4683881415355056 10.232326083597728 0.10716409398302833 -0.032865640379769204 0.5707291088668688
Ni 2.7732301139418056 5.297384033087631 6.7116083489441145 -1.3500608160699266 0.7708789484500143 0.5656385817178388
Ni 0.3383151204684707 0.03232663869913253 9.071426523088563 0.5655539924238324 1.1039800182826214 0.6830474933573268
Ni 1.7539769055024785 1.2478436432561144 11.376832475624878 -0.8192570826430858 0.3616269451864418 0.04807525824067204
Ni 4.243398066856335 6.906856978060129 1.280697475600304 -0.3554187594932008 0.4249583582552359 -0.10178251795614084
Ni 6.0162645578071245 8.01118172849675 7.6792741086451 -0.5089899799858589 -0.2143212459875212 0.5939325435665256
Ni 5.7269374018409875 3.0492588558163742 4.432942424248847 0.22823708473766496 -0.7294497347709502 0.6529409037799335
Ni 0.9140607463556139 7.875771402294132 7.0369898952137895 0.5439999204021405 -1.1208174015549341 -0.11784368518406156
Ni 5.140812993104191 5.015499610934058 6.934344927681363 0.8690673212969936 -0.982158065177102 -0.15908803654582923
Ni 0.547943913958125 7.34118974940881 10.99379528110032 0.8138173996847533 -0.05451124367400289 0.09333952939511021
Ni 4.567503585601038 0.27818768194005206 10.172627331943316 -0.25864500760556103 0.680790321892034 -0.1271899022856519
Ni 8.526800827955206 7.4909291624000796 4.529819273076537 -0.36416770933042447 0.04093119099672306 0.23919461219043323
Ni 7.488895179997871 6.121785375794333 6.864700640549966 0.03440238873926978 0.20247103151715454 -0.5215714161952952
Ni 2.541228426127592 5.280035896186285 2.568884202099501 -0.16791514791915596 0.09871776298788805 -0.9954527254034792
Ni 2.497392913010942 5.524177631432513 11.34931898721115 -1.5836522231409693 -0.9928888213310448 -1.4847668242269654
Ni 1.231270791126911 3.4246517424876113 3.608063141282613 -0.28842635263305166 0.6498049292541132 0.6209126716997951
Ni 1.6913065329214336 1.294205672630216 2.3117870022609117 0.0663696856744857 -1.3118801912351472 0.8488119134820672
Ni 1.2671345525864754 3.5814508074040345 8.24345066153242 -0.06744337835463868 0.3272785496135589 -0.4275160916800831
Ni 3.573807411650445 3.1218711154754777 7.357364013955158 0.7328531040255444 -1.2024488984844968 -0.37337071598593113
Ni 4.059199525992676 7.280097309364007 6.0533979620935385 0.6731472035244794 -0.2731496289796393 -1.7319269711213787
Ni 0.8248902281630176 -0.40682931603200373 -0.5387763995524769 -1.0941326931748963 1.4876181776328314 1.5189516976387905
P 0.45018780098885336 5.860541770574382 7.8066552209075235 0.10814239873589764 -0.954615122561827 -0.025601759728504297
P 8.654093466543632 1.872741411597339 8.014493562623395 -0.04192183704476651 0.09441347918557934 -0.0262897869344644
P 1.9734372220026275 3.4777085838940933 10.531608808137902 0.05141229303370501 0.06823296413546959 -0.7553679972986088
P 4.066961494711417 6.460083166367897 3.767069487550312 -0.17269714268883163 -1.1869258631482333 -0.31255024226444883
P 7.122687137627189 4.080980467591211 10.525454871246556 1.0704960275925628 -0.28242591207524265 -0.864343433458763
P 6.445526054646263 7.964135624323699 10.192584986177721 0.37269862961957106 -0.04597980916422404 -0.6977860851190821
P 2.557226655425678 8.806268185819158 5.790212496544303 0.08188526481158155 -0.09280294016534986 -0.5423351311052079
P 7.210887181705009 4.0215024440719285 1.6840799667453366 -1.2582418370844006 0.25041233528312357 -0.5994331616697806
Ni 5.321007416144669 2.9676441718031024 0.13610990669701062 0.19146336755274124 0.048367078449478 0.6744165571552063
Ni 1.5302935672434848 1.2086872017642756 7.144906799196783 0.11431587453646119 1.4219979685298607 0.2354415729059042
Ni 6.7341052888322155 0.9392711829462133 9.04087026996911 1.2898792614840238 -0.988250551228085 0.6090760840761833
Ni 2.6300213350311683 1.8049997645067524 9.286673850926919 1.0953331412409009 -0.21870369132593304 -1.0812429816964217
Ni 6.761167287878638 2.0101948411994854 2.376585303516554 -1.2324364459855226 0.49672710345810583 1.2031230417333862
Ni 4.4021672671937315 7.0464082370457195 10.471322664256126 -0.16387723040435648 -0.7917200535650816 -1.7609490693853416
Ni 8.204045216813764 7.277862665020773 0.38794976368074413 -0.0201348230766621 0.07715032122975746 0.07556575035145696
Ni 8.019746344979591 4.2324984750597485 8.41559215603967 0.06160388885472616 -1.0450027684174648 -1.3268357841037148
Ni 3.075746232031679 8.511696456394413 12.277749864843353 1.4746701021125959 -0.6027694251318652 -0.37114851152363176
Ni 0.3664679907942826 5.060757999632522 10.115798046045565 -0.14132762723861467 -0.4347930849574706 0.7907988273023928
Ni 8.94044717738367 2.6448976816589784 5.667878032098661 -0.18160267270857755 -0.08969833309809713 0.6522454203748058
Ni 3.960400883029806 2.699131131719653 11.311966678989075 -2.4630648922280294 0.31198357112770136 0.3170951813226539
Ni 1.2254880788264624 3.4244693225412246 12.655554343205818 -0.6503510315655702 0.4471608624942041 -0.3932054913236712
Ni 3.42935817710438 8.84231436722511 7.808350814309184 0.338903535446997 -0.20673906276488913 1.170621469561255
Ni 5.750715841852454 8.021789448379119 3.455624825184557 -0.2081626825852931 0.21884330222759088 0.6389777567316222
Ni 3.308404631652883 8.486522503793092 3.3019323719550937 -0.606280009388285 0.14476750615809905 0.5726803190559685
Ni 3.7157483719336963 4.556603993804451 9.261684142471445 0.3174440800216404 -0.06454420242997272 0.47442766862995717
Ni 7.220993246734816 6.036577018837249 11.612811830370047 -0.14560337179583313 1.2151984848406814 -1.8705994201253333
Ni 7.851974720288026 -0.1316579479054507 2.406140983230077 1.2344380497965837 -0.3009715362879139 -0.036745949270781876
Ni 4.7133392117396395 0.41072580608681714 1.454415078444333 -0.044464658071278265 -0.7879433601314688 0.6401301251685104
Ni 6.0585221383875325 5.547600352548526 0.30682214092432397 -0.251878892526321 0.4399931411011713 0.16667459064383552
Ni 7.779435428607477 9.303508475679187 11.332231710833137 0.9405797275146833 -0.15868874422488155 0.06496792023095263
Ni 0.2636150645229751 5.035000303202764 5.6577591976726085 0.29466204913011834 -0.18850171382125602 0.726630263044284
Ni 7.187090499698905 6.067451594763146 2.5647861380039307 0.6788833346773083 1.3373202285748065 -0.8741519349087525
P 9.067849267939925 1.6385415634291698 3.6251905500488317 -1.4113661998476272 -0.09811586773783101 -1.1398785319514433
P 1.9627382921470655 3.353836319300414 1.5263286697087766 0.5627203796297793 -0.08873262675071815 -0.5086349106392853
P 4.843167487582834 1.510154405162427 8.185914498342418 -1.8736880863529857 -1.2484377065097854 0.33262310175492393
P 8.973802664580422 1.6660778543361956 12.642778562260647 -0.5723738435591433 -1.1202743845672705 -0.909655270021685
P 6.304743461022565 7.850570086700851 1.3381269231216677 0.45082237050619134 -0.36034139360579875 -0.9718973066810422
P 2.1764888643253206 3.479532783357957 5.745078153409382 -1.3525987520004317 -0.7919769067708942 -0.09839431821019828
P 7.009577649870307 3.972969617335828 6.118930503633385 0.6836331906574679 2.4017787917240376 -1.3941313240265796
P 2.4399032669072707 8.756713807383296 9.806610830516341 -0.9526029772278046 -0.5965344999657469 1.241042699597295
