# total energy = -340862.5902325057 ev
CRYSTAL
PRIMVEC
9.34539530632994 0.00000000000000 0.00000000000000

0.00000000000000 9.34539530632994 0.00000000000000

0.00000000000000 0.00000000000000 13.67793067784818

PRIMCOORD
 96 1
Ni 6.748431540035908 4.122366074961009 7.522670450899593 -0.7278834187250948 0.2789109569434487 -0.6389957544537512
Ni 7.973696991263857 0.08021433271190272 2.538514996939692 2.255332612311935 -0.6747551714415476 0.39336978481567736
Ni 1.6874326375006454 3.0265250052328496 1.2462355840640653 2.409023903322225 -1.3753728124721538 2.388852827690989
Ni 9.59379605459265 0.03472562038969722 6.84734974718883 -1.8563639932522418 -0.6403008464184198 -0.14235555428249677
Ni 1.6877503809457313 2.803796195623168 12.452046000387165 0.6444130688145806 -1.0931227638531433 0.4805816040464949
Ni 6.47952713153891 7.279109820306362 3.911669461985091 -1.2970364413540951 -0.10836351360776822 -0.23763729500564235
Ni 3.5925662618622622 4.295910068350502 9.367399177271317 -0.07063077494368482 0.6062527556947753 1.6035530758299543
Ni 8.919880898356618 7.060764001159777 7.503658178408932 0.41907541711189755 -0.6926356512663943 0.5994879261671159
Ni 7.590666613608404 7.821993187026289 9.581910580667353 0.42921096288400273 -0.4372060652743373 0.9489155010738884
Ni 5.829582914615966 6.524160740178017 11.077619627021878 2.1210526359487214 -1.2279917799506077 -1.839425051405058
Ni 7.421832699522536 5.050588132010982 0.31015498398548663 0.9576400254310797 0.9569550835489131 0.6816698962835098
Ni 6.01565908329546 6.73646008847253 8.007758154037507 -0.12159158226226799 -1.536901597248992 1.4429881976282826
Ni 5.880711573088444 9.385206828289284 1.837862664339237 -2.0662603706991898 0.4846308344152041 -0.44344047621982335
Ni 1.9738690078500238 5.195264198874888 11.70514891297311 0.732118796962681 -0.10463978489927785 0.4704532573632414
Ni 3.172593536017867 0.23377787064276678 2.1630964438731324 0.34159830867034074 0.43729991053972433 -0.5174887614854894
Ni 1.8318096517103533 5.52546505608711 7.880101921355665 1.747755710623519 -1.5835627487509567 2.8856915170262942
Ni 6.515450831624489 1.2543763580350717 8.32849212566526 -0.45766201913584403 -0.16357564000353764 -0.2079197133365516
Ni 8.266245250233414 3.4892716060230553 9.9742209359984 1.503944425596681 -0.17873563557342764 -0.6601991280042436
Ni 2.1914671953611142 2.1739913058813967 10.243320663260171 0.9646321404781968 0.5308937220374856 0.06898886846488764
Ni 7.9179143258604165 7.744734802893228 5.504628562405838 1.2182704388977856 1.9731386137418403 0.8684700540326269
Ni 9.25374515058277 4.518508042423972 7.535938108811013 -2.0171553856424227 0.012569866245210608 1.3595121912908135
Ni 0.45763747310113567 2.71876244248095 6.321543221563175 0.8275283215129426 -0.49604653245131347 -1.82548890093994
Ni 6.5745137308286665 7.0349052919670605 1.588321915201583 -0.31145598075900555 -0.1985400718938645 -1.0923218652184026
Ni 0.44295398777999556 5.954456088534673 1.9623040809884462 -0.8796798067055172 -0.4269918437454969 -0.7703840110914668
P 7.650692088543284 5.497849412550978 9.23041530539712 1.1311555502561486 1.3238990700728943 -0.49147536814086323
P 6.097935944781786 7.364096846471363 13.076539901898283 0.7044488418512385 0.951060315331033 0.998933484863228
P 4.508200071249571 7.444915826268473 9.538072265180507 0.054911050215582846 0.11557751485770418 -0.48860190324781017
P 3.7325229040271 7.531145790027485 1.332689837313726 0.6513041395074589 -0.17237086969766444 0.018488031501858484
P 8.343466252784701 7.166768821677656 2.9603558673332824 0.6038053225955472 0.6034523101315027 -0.14668837732989576
P 1.554699986013787 6.23490206040464 6.038559974830244 -1.4434355695783463 1.743231083280288 -2.3162464170781725
P 6.23497682356819 1.0896637633398745 3.7764771024174504 0.7155328675795418 0.8360620700155665 -0.5340368956521577
P 4.2127080127152485 4.335226146982144 7.2499325611915895 1.2693762564346656 0.19837037908521965 -0.5461519337481368
Ni 4.184512954661608 7.5731253063605815 11.904764690571433 -0.6946945906779519 1.565364223465059 0.3009381119468172
Ni 2.4551662185959726 8.383772943333375 5.420646166251035 -0.3357631900458024 -0.08352408596658518 0.9922905256254135
Ni 8.349372542705119 0.7639757975874155 4.828924697481882 -0.008716811047707568 1.076277153050714 0.21822160948319194
Ni 0.4990058005722143 9.24282972870453 12.47797947274343 0.43494195183050893 -1.309786284820596 -0.19396916469373046
Ni 8.209546736076492 5.563846595174382 5.614489293083786 0.7616882830896817 -1.7128203321989146 -0.26423998519483527
Ni 3.9099639273166154 3.583304974977556 -0.02053557194798446 -2.111791265251453 -2.116545234996671 -0.6232333494131719
Ni 7.463036548033806 2.4131586660765447 1.793450541572146 -0.6329562331278905 0.7131772228631718 0.4029574285041125
Ni 4.564020118234787 8.512178676729802 7.310730900329664 -0.7449180056098783 0.13048888475189785 0.1958509550974756
Ni 5.6059476016482455 9.219522312467944 10.432157461753734 -1.2154957043661259 -0.7099728569932612 -0.46956314144880423
Ni 0.6120271439892228 8.249386156852982 3.99664994637328 -1.9236333079228611 1.2676322771603652 -0.008598283191972287
Ni 9.266632450899632 1.4695073611490255 0.6057694672001218 0.34016954664361415 0.41431990470478325 -0.48514659770935803
Ni 2.368861491673411 4.243921633497203 5.503301516252832 0.6303969570411466 -0.1871925080915292 1.8400804256008698
Ni 2.9233144579526362 0.39263090239476456 11.74413136098741 -1.1492969970518656 -0.1668669091602997 0.2293074349837083
Ni 6.0736285712327245 3.194704741637659 -0.20043349969964827 0.6579892648371184 -1.3727142918033843 0.2582804251772907
Ni 6.832745697728961 1.7351969536133918 10.819544662765038 1.0664087448970665 1.000060656489136 0.7767559760560816
Ni 4.561637042396643 2.332741538283514 10.738598585589894 0.2679292611209644 1.2194505752488158 3.382005701316698
Ni 2.461081853911834 7.744491822611692 13.225615780937083 -1.0747951691885491 -0.2929885180824373 0.6368738230147418
Ni 2.3267885213858777 2.613794960857321 3.7729071613579572 -1.200291485821862 -1.9189880958413659 -0.3146996845072838
Ni 2.294444107755235 0.6744870944371859 7.448002610383527 -1.5305738552587511 -0.30644155826354963 0.07407990983454983
Ni 0.6219426085549875 1.991232752584417 8.715987733263713 -2.340661869808059 -0.1425509581227545 -0.9960980722969618
Ni 6.114103478899385 9.369413109989434 5.750119951697737 -0.009085507241035965 -0.9817317762729609 -0.3735553211929115
Ni 6.190389941906302 2.323199889535497 5.745045401971808 0.35214394539667093 0.8099538029642889 0.020786340617731942
Ni 4.372439511638954 6.343570318623975 3.3262953858012976 0.007522790739606398 -0.6910402817548164 -0.025751140822175007
Ni 3.779745187204112 6.281012241523853 6.355109078378309 -1.2537722313488215 0.5004148367223382 0.34611933646914583
P 1.0895048916173318 0.7791760832765923 2.332852748489294 -0.888614904411618 -0.1245043850336888 0.270553843228005
P 4.3156008165503765 1.6499949833531866 8.937925922418858 0.3537254309511779 -0.3520778680454259 -1.664379720199024
P 1.4938521162798617 1.186986711490557 5.372936987971407 0.9942525344477909 -1.4187367812800857 -1.354008744974081
P 0.6002313858601858 6.299497433711489 13.277194887469946 0.8619474224227607 -0.6752472805866176 0.5482270711096107
P 3.666338813494823 4.1575608342019805 2.2012163118879813 -2.4628782301385197 0.8889884857009529 -0.9381320373051392
P 1.2696467341900761 4.24883731150059 9.790430651044435 -0.4517561951743703 -0.306160279577705 -0.4104768768096092
P 4.095348536733275 4.57491684932214 11.584168096256702 1.0963469272173958 -0.04817501704332994 0.29040893028071924
P 8.086907111668827 2.3727585215734335 7.3593017240692005 -1.0000804539834776 0.09722060961707128 0.4797969033616705
Ni 0.15710450826448166 3.99829660505046 13.83550096029061 -1.96553971834866 1.5329382417258695 -1.264216309500281
Ni 2.55533016696154 3.031580864167891 7.764290977398712 -1.6680425137625918 0.9609248668299386 0.11266625474818016
Ni 2.3162562607208286 7.315285846068923 2.9095692503340436 0.024039557447706986 0.21749810105360604 -0.44341116564378474
Ni 3.23575906382183 9.261922371596006 9.36727581805146 0.39467976187635256 -0.2989005126914981 1.4820255140364025
Ni 4.878464638728931 2.4311392069102222 2.082861551291254 0.8299600708828868 -3.342809233622895 -2.2487333618278624
Ni 8.333466679659942 7.188001560125739 12.244182911309775 -2.1364373459349073 -0.052678818450954436 0.7364133105729769
Ni 1.9692710732917238 7.736959433884071 8.108619268903174 -1.3065556936984404 1.7596871719537825 -3.2888209523318976
Ni 9.306219545999141 1.4363872796965558 11.065801439943776 -0.8411839646231641 1.2111934774463464 -0.8075655052377705
Ni 7.068726278077808 4.64747449954702 11.702126612086616 1.139569742461773 0.37406182851568476 1.5605994550865638
Ni 2.443194767032594 7.080978091504497 10.019822727605472 1.0110726913289232 -1.3297596426187293 2.9728375160161833
Ni 2.096527323048575 5.003244358693202 3.4322301158533493 -0.11898474076704024 0.24917846287602247 -1.325643820678143
Ni 7.962323645008875 3.3586603593019166 4.335985927631717 -0.11935292273973638 0.1320120062646436 -0.5467849393464453
Ni 5.943297686374897 5.976885037599551 5.863345959274962 0.30633871413709823 0.2988326355680402 0.05065536026302244
Ni 4.963227375403282 0.6642753808358558 12.830898051739739 1.8268179041640085 0.023069994445586075 0.3127101648810808
Ni 0.3562866595142186 6.452789955174486 10.675364836399192 -0.9010284475846224 -0.7093128548117591 -1.7772861159824682
Ni 7.6717192282916065 9.203504304677443 0.08300486779139128 -1.3160978288609206 -0.9735988627531813 -0.6578936197995187
Ni 5.698130582304894 4.658090868771062 2.078402863125065 1.5221902591807461 0.36577156348243456 -0.5118163936910605
Ni 6.02513531427537 4.3456836444836435 9.819975184200144 -2.74809096093028 -0.9312594785550219 -0.6288021017502009
Ni 4.5108074365783635 3.3794445187687034 3.9741368887494084 0.6385298705609261 1.0916898880613586 3.533352660464528
Ni 2.529200441300957 5.3971340858542325 0.6052797684788719 -0.2830056958381126 0.9638129870110111 0.46112838041788967
Ni 0.5645656186888524 8.26946941166149 0.8388866183850191 -0.4400741308507517 -0.19722032464117648 1.9028811629771742
Ni 4.14578563594292 0.8279310113063706 4.611747052765758 -0.5474302862399281 0.4209073281143138 -0.7555693146761374
Ni 4.047958036438277 1.6665830602657528 6.899640972854504 4.027782226137709 0.9115344893222688 -2.3514170514420343
Ni 5.107884751476301 5.4922515206802025 13.568644127935324 -0.1609196904379293 1.4084060887780387 -0.8384971618196203
P 7.928362477966472 2.8384676127192923 12.49344984036093 1.55378114661315 -0.24463609492097868 -0.17786403160175174
P 7.055427780361424 8.542999790903119 7.573387911972549 0.8951843300990197 0.4131767922392755 -0.7185829672597754
P 6.1859976060477635 4.868465065604172 4.168116458355638 1.2820119429208052 -0.9970995169782828 -0.42378619232400566
P 0.996406062207201 9.238325248100665 9.66228191602271 0.22369163145882764 0.28205310211685614 -0.10783669457002072
P 3.170042243061737 1.29555217036001 0.04430745433812193 -0.4798902344064251 0.8094740351143931 0.322100090736413
P 9.1047141294421 3.8965906664366825 2.489533910340176 0.5564743987200674 -0.14409953355679697 -0.16775933906758206
P 4.459753541269436 7.972126964829315 4.8618475910904895 0.8619595066076188 -0.4064446157217646 0.3843722093027574
P 7.51994066089049 -0.29459022787400574 11.497873649269128 0.6898889417591925 1.4951219422090445 -0.24223648434055056
