# total energy = -340895.3004052022 ev
CRYSTAL
PRIMVEC
9.02198951572734 0.00000000000000 0.00000000000000

0.00000000000000 9.02198951572734 0.00000000000000

0.00000000000000 0.00000000000000 13.20459361294882

PRIMCOORD
 96 1
Ni 6.471797732279785 1.8370574657438212 11.423333425271345 0.2161194755385246 0.1642670096436074 1.0898320089170133
Ni 4.581185737920625 0.2916385114301579 5.730053977973357 -0.4534089002864449 -0.3679117497538889 1.0587010918401638
Ni 2.478728412291792 1.522108840502435 4.674412660181555 1.1614616574388577 0.30565274381366714 -0.34025490726856883
Ni 3.651605068129275 4.384199623064271 4.857706101843921 -0.832063747489451 -0.6420301704047007 0.30200537686906703
Ni 5.306725097205825 4.290912253474883 3.0702659685753226 -0.0399549431263828 1.3316265206241389 -0.42471641744775884
Ni 7.282098681245091 6.246094625411534 2.534939014563525 -0.2518243851393018 -0.1385480076109485 0.8759108265813883
Ni 5.11095695090794 4.221181298005215 11.693261421597064 -0.132728572715694 0.3773268724202018 -0.2737186141092318
Ni 5.641043933521526 7.822136918080832 12.475580670680214 -0.6942233074684883 0.4739759258045192 -0.054681193592963896
Ni 1.8174707269257786 6.205667091259691 0.3572581463657955 1.4992549905408117 1.0145881606813496 -0.8348569939638719
Ni 2.821861732175078 1.6316899228073385 0.31102496208525227 -0.4338374059124206 -0.35893937105194956 1.0537740868521916
Ni 0.49874549390792045 9.011253154697899 4.37515688316684 1.0589504888468084 -0.250665074723878 1.1860005231204866
Ni 8.624263944720413 2.438995571317743 1.479429417815824 -0.06026125878390267 0.2643960511567253 0.42752174810703786
Ni 6.87333038904432 0.8419789578726808 4.818778924516327 -0.30809709158910165 -0.8160234061971365 -0.3825683233247992
Ni 0.7385039579409008 7.402830942351976 2.3391672594699124 0.3623561100429824 -0.06684893930374938 -0.09117851718804942
Ni 7.730238934847031 4.130979448763948 3.814543097483366 0.01165635329200573 -0.7367642661544925 0.12855078718892057
Ni 7.553119240477702 3.8218860945925344 12.713369634444206 0.3118038510167275 -0.4159237588567934 0.0979654582028958
Ni 7.845467782467501 8.82824210130131 6.888810318322991 0.4233228795343419 -0.5134310464763481 0.4095008860495851
Ni 7.02843642946799 0.6655404236971626 0.5231066694751607 -0.5633449005876556 0.7218685799895825 -0.8902262147627958
Ni 1.760496864357405 6.774990705434616 9.02537888337934 0.44481035998415647 -0.8257396050436359 0.0872177327680885
Ni 0.021964935203319453 4.934405641865896 1.4543672336782651 0.1651229298859995 -0.41446260093023457 0.2665105263965668
Ni 6.356550840680671 1.8506265376840958 6.9581740788272555 0.6297642085531542 -0.08290830675945722 1.6319719932922796
Ni 3.539326411017096 4.07932855989555 0.21256799261436377 -1.0580225777159005 0.647021195861389 0.7803254385748949
Ni 5.922124010848157 5.631624976669366 5.028771139179263 0.5726692633123751 0.31522701776566353 -0.8600898003887317
Ni 5.172721489806291 2.6983958083036303 9.505538177085025 0.4701151572975323 0.1747879637795893 -0.6607966523789265
P 0.1061545307604113 5.5818867495372295 12.46327467724502 -0.08134841847150506 -0.3053475538684225 -0.5100047944036185
P 3.9957849387739124 6.002482869739132 12.354824952401092 -0.02565138201951711 0.5019708683555483 1.571138921165307
P 2.5855036559175564 8.474607185847226 1.4077280598782325 -1.5701989258495408 0.32304677092039846 -0.3917870137095898
P 6.116024605356389 7.692770613192802 6.022126447089902 0.35866683411685324 0.03684622229407202 -0.9995598055933173
P 4.6272881033559985 1.006917162259457 12.418246830737894 1.1996592515545015 0.213653016275903 1.044021635451118
P 3.9672032766018446 6.172827050127645 8.096000306148802 -0.19393316924947246 -0.04258569588101053 0.13089691882359392
P 4.569439107823392 1.1114910404906557 3.7311158600239818 0.20537200721403343 0.5610661318558079 0.6166850067716928
P 0.18261498806535342 5.822250589053716 3.702674038686405 -2.0380371141874383 -0.7128267815022885 -0.5983119035811438
Ni 1.593084830498539 1.1832970535043825 2.4589594292894454 -0.655203217451549 -0.044428148406388 -0.31315110907324134
Ni 1.92128675805393 6.196392486236686 4.634046475557103 0.46339146542045356 0.3798918049339006 0.8798425575356267
Ni 5.915032727241072 5.59738652719241 9.254703416761437 0.8010742410864721 -0.4444714885874991 0.2985197323133117
Ni 8.553098492948548 2.419156216798685 10.052748895431751 0.5942477608140991 0.569827937208838 0.8103584946018754
Ni 2.36358076257522 5.1617327068121055 6.96684872156035 -0.4655889872924046 -0.04616518570215275 0.3163793862025519
Ni 0.41068366053383 0.097389668134097 9.250662467744117 0.5614623388529622 0.0360401814530089 -0.2822400213166817
Ni 1.4832511324926194 1.1094791368718515 11.489237252870627 -0.34310831755696397 0.1957583953836693 -1.5050780249804918
Ni 4.1556455675702715 6.984174549854302 1.6795317277839927 0.27792776709457295 -0.33932339659323496 -1.1927771797226876
Ni 5.5453476927831655 7.995521508870856 8.172454448061218 -0.2198519459977633 -0.2256544116121533 -0.2910807595367632
Ni 5.288708184529808 2.7590596645046985 5.199625964163401 -0.9794774330211454 -0.23939361557511676 -1.8598792054943518
Ni 0.7738927110564108 7.277894434221042 6.74317646448848 -0.08197139676748463 0.6510956230410787 -0.629390113043187
Ni 5.128658093957687 4.515821425282799 7.179165902871562 -0.1004368025615238 -0.16244461172288796 -0.14040074454897108
Ni 8.114738075771646 7.129699237618017 9.291213603149671 -0.5903527966350671 0.25662823428584836 -0.028280849222564197
Ni 4.687536948048256 0.38841378209142724 10.29875057607555 -1.096347698548344 -0.777184578953068 0.00812777131345697
Ni 7.873995312703636 7.462358027898472 4.696583296741416 -0.21813213509317916 -1.085040501065641 0.4220152164665119
Ni 7.206828224331719 6.091800564026842 7.119757907584116 0.23483607811142138 0.3951497595342356 -0.2121106114894476
Ni 2.5895274631551644 5.121792360083651 2.3604005113392184 -0.046978682742383614 0.39863180454556507 0.22724129648329897
Ni 2.3872634845454463 5.082790300244684 11.089138190209356 -0.26299891369888256 0.743174026335578 1.4053693588342442
Ni 1.2123117711639058 3.6447573782338836 3.6575532656892635 -0.988636216702278 -0.4014073104081732 0.3096541516635764
Ni 3.6637215997887087 2.780333515325953 2.5415539371344087 -0.3673463641687222 -0.6656077006143247 0.09612531967036349
Ni 1.0633136175112234 3.3453987505408977 8.122026940944883 -0.2147753028058043 0.12235519990116993 -0.08862258353541512
Ni 3.52538743751462 2.7686319951753307 7.03214536927826 0.08329011557890817 -0.13931136813953426 -0.14555812038019447
Ni 3.9780296637882335 6.6885059157940105 5.8488555333653345 0.04594998436755312 1.8802233163683426 0.8669214785985844
Ni 0.8259135014870114 7.325710977627596 11.213908693736764 -0.2712308146903716 -0.015109087727296562 0.9016655669479892
P 0.18685081205202822 5.60372898568577 7.9696058445434375 0.004351592100476377 -0.5193342993346605 0.7097831095799582
P 8.512553672935521 1.6423719581645762 7.889242474657801 0.12138178024430708 -0.05565024237445255 0.8733134981678573
P 1.737481769597006 3.1779867166820317 10.302131115474499 -0.800404725823273 -0.027400760610456036 -0.9031331526324511
P 4.015516029421106 6.138263809035098 3.687686710024714 0.7274609864756956 -0.10247980113348158 -0.22810184471138134
P 6.826542352420473 3.892356853186606 10.580985468035397 1.4113078358058662 0.22298894896484822 -2.1137841273117663
P 6.167170262822757 7.7674185528429565 10.310846357159543 1.7523451297664143 -0.6594709915889675 -0.13493972143439986
P 2.338752247961101 8.528044428601378 5.6544975239984785 -0.13373850203744708 -1.0299255623693682 0.4657933899937269
P 6.86449786149809 3.9862126081032794 1.627505524159799 0.38025278781774513 0.6679384056300303 0.00014038223260620986
Ni 5.409548709508557 2.591575454731256 0.6347303301625631 -0.48141618413264825 0.2920446661119293 -1.317018283792661
Ni 1.6345498934224099 1.0774871627360711 6.905579489875777 -1.5235282612658794 0.36539463975899006 0.26285004682584406
Ni 6.877669965908197 0.8445745842006176 9.249778312790564 0.15424896328597307 -0.8671245957483259 -0.5323600221703669
Ni 2.585729205650606 1.5485071812585811 9.005281499965673 0.4997797742415005 -0.3271332822849463 1.6760841531201458
Ni 6.300046121557041 2.097152395907502 2.7201595531450695 1.117175948147605 -0.5740466032758759 0.767899039886084
Ni 4.0845342477343385 6.677643440650333 10.229241561543201 -0.5410524077380424 1.6958024574846795 0.7512519182477062
Ni 8.069285293567455 7.207613137402732 0.3382830984237839 0.32941462211995526 0.270787813615682 -0.00201960153319007
Ni 7.556132584911247 3.8495836018110468 8.101929557531216 0.21508949161211346 -0.21487917537352028 0.8699548661082696
Ni 3.1609983107887225 8.37439995044787 12.46316821777102 0.0916999369091582 -1.1415497490062791 -0.2565863253043194
Ni 0.0999943164513558 5.099210320810707 10.214096348068374 -0.24653125506116247 -1.396665660412659 -0.283090542242435
Ni 8.823992744330653 2.2267081625712937 5.770011466481523 -0.27171161098153207 0.2973272546671073 -0.4891801443487834
Ni 3.4606817300973 2.5308845325622222 11.411317037693385 0.6430598972207958 0.7142010361419958 -0.8045316035074531
Ni 0.9930413426822349 3.416284520643782 12.446451373756302 0.13829269706703282 0.24816287712731455 0.5237555683308077
Ni 3.06034899791259 8.436326885154019 7.872724114408168 0.6783169206508769 -0.7529303343913936 -0.3102838148277753
Ni 5.53299658940136 7.9386468881850245 3.605369177251935 -0.09609369510147966 -0.03470397914008862 0.8007040022312468
Ni 2.920219459763425 8.167715197070377 3.5783654610122837 0.7137156118651451 0.47615802105750255 -0.06819028382299225
Ni 3.520163705697187 4.230618298836017 9.229548306133863 -0.5564211768846288 0.449926083944167 -0.86816434986675
Ni 7.171786817805106 5.977618267167724 11.516901378728647 -0.36403889706204406 0.32811955745761556 -0.6537320322226613
Ni 0.7641146790292369 8.885224985859006 0.13369505536472123 0.21599246304235706 -0.6721892104865843 1.3235118619368045
Ni 4.646035797167096 0.4188043531225542 1.7251270574194715 -0.12437325877246323 0.03285715573933696 -1.1295380692573838
Ni 6.00555936809793 5.709692250272555 0.4999797020471688 -0.8693838240961479 -0.48751869748596044 -0.1459026482038068
Ni 7.901927391644521 8.799146185737888 11.51509246986959 0.07348212834955085 -0.14477444813663454 -0.7389371054360951
Ni 0.04477162201038067 4.638989623506621 5.9748800934085 0.022231557704690746 0.8618427785240963 -0.6752745342801273
Ni 7.919881150395283 8.904604218922643 2.573997912935221 0.20599961349570328 0.029656903634484408 0.15078028801108226
P 8.473344107342147 1.7124006392818707 3.610280748238827 -0.06214356340828007 0.8540453939668647 -0.27152957687771306
P 1.720096396173529 3.2814508902266253 1.5268733530633787 0.7722172076454636 -0.370713223758426 -1.0393314290643003
P 4.596532141757331 1.0651541033329095 8.064823919847731 0.26149558968047865 0.3047819111729396 -0.06326482149691684
P 8.686217945394526 1.597090593757503 12.636888426563823 -0.9535188041738545 0.2308138443259057 -1.1647835227232393
P 6.307417086833107 7.940749011697049 1.5032772421906433 -0.6302792005163598 -1.5848930375266062 -0.17184430777023307
P 1.8567975783803377 3.3379285433822896 5.70047538598121 0.023769334505455837 -0.18430593057235356 1.4429899974004956
P 6.887982099703232 3.8930695903430435 6.015986081157355 1.0020488905637581 0.41030229890495784 -0.40237944451345536
P 2.4630933047967813 8.469789443549283 10.305300540323316 -0.41440835065353143 0.6149374279529667 -1.1503426647075607
