# total energy = -381168.7875077635 ev
CRYSTAL
PRIMVEC
9.20563034263997 0.00000000000000 0.00000000000000
0.00000000000000 9.20563034263997 0.00000000000000
0.00000000000000 0.00000000000000 13.47337052582608
PRIMCOORD
 96 1
Ni 7.155738892147678 2.1688188624190703 2.508162326885126 0.06272154739893714 0.6494452319218492 0.3302990816074376
Ni 4.213232838075018 5.1202819946936335 13.503819976012103 -0.6939114326550243 -1.1102501675620493 -0.19270752437248745
Ni 4.466010238225127 5.478390215795618 11.102475179359027 -0.779574162231167 -0.588972885568405 -1.114358790413784
Ni 6.561174853271715 9.070961053327258 6.759495427305505 0.8165232286516905 -1.901200689950958 0.5261348671962617
Ni 3.3715344503724465 3.91057933340496 4.121100129166379 0.5982285998387181 0.0157048123297665 -0.22748400862172435
Ni 9.274028050301338 4.31671332735312 11.28560462240743 -0.9515866201481483 -0.09495315373913324 0.9751893471687526
Ni 4.564031788784083 1.4067031479492342 10.007776615255073 -2.215918629290687 -0.7510200047425581 -0.7286375232822999
Ni 6.904572477285681 5.03778113668186 6.781658902617839 -0.3834707805344105 0.07049630624834956 -0.026401887032296466
Ni 2.5306553637592573 2.9403887591225697 10.903769809982132 -0.2541869718342074 0.07586759786259191 -2.0029325571748218
Ni 8.376506720958128 6.945500709233946 10.735298491929502 -0.5727376546564652 -1.2220836419962888 2.120506019416632
Ni 5.194286056014392 3.430017819146023 1.2805979812848873 -0.4664888733988547 -1.545299334394384 1.1505871766181992
Ni 6.356561310421047 0.5721271563461611 4.517472472831601 2.174721586227087 -2.6480161696938658 -1.4873857499070513
Ni 5.944692208847209 5.612258490422621 8.79665536634984 -1.0677297777013353 1.8019674207792322 -0.16567134619030177
Ni 1.3059014970645082 4.55499185991022 5.3776263079947855 -0.7651541301510951 -0.5664281674986696 -1.795254784645747
Ni 4.779185778234113 2.901872402291365 11.736289263794552 2.2522953681475077 0.40050099654381993 3.0771852235963393
Ni 2.0334500700665683 6.011939337588115 0.7629258099290012 0.2980268518372932 2.7548637608777393 1.0367518412625822
Ni 8.77831406870393 3.261112915910137 7.627113187449268 -1.9678742800191078 0.9717499824699005 -0.8802570193652259
Ni 7.6984015878557805 8.711205024416289 12.439047074620122 -0.3842246279812996 0.5713312612272419 -1.823457472332208
Ni 4.197288686537818 5.51463278196303 2.623601850379149 -0.3937955594991863 -1.773793015227545 0.2491833479720289
Ni 0.8371296334254862 2.837957711689296 9.327128887086575 -0.5284498884826835 -0.4516011576537448 1.4541280162951862
Ni 2.7269930450441375 2.438295275784238 12.929773445765536 2.150319503233639 -0.6084381933818683 2.6811723447308595
Ni 8.880165161433482 4.016959596201663 1.9994481542941644 0.18156204927862923 0.184846633567172 1.7083314431896257
Ni 8.704181128560121 0.8427294182869638 8.571920156969142 -0.30745251602656726 0.17798667322254508 -0.48085491231253963
Ni 7.3245333278209515 2.176091310291119 5.963286661324109 1.7914791196533986 0.0201456217099395 0.7355447919250945
P 3.884518194258416 8.646314537011136 2.9777903141344013 0.9898682893371661 1.196220915296914 0.17509623904862748
Ni 5.721428059175313 7.536051093334956 10.432969946006132 0.2800553549605371 0.0037625523662257786 0.7102194257864285
P 1.2443434477981916 0.1964122468896443 2.7672142845916756 -1.7719852725948448 2.281009191142433 -1.100128505747015
Ni 8.932683281825936 0.3307748638593427 4.676902941447345 -0.3368859907963359 -0.3124538258959006 -1.3317982703153126
P 2.632755008504691 3.8320645132774867 1.5100952631772446 1.1439375325121652 -0.3406937945782003 -0.35722418813305573
P 4.604683851825813 1.4811490795204472 -0.07741474731644789 0.6478645176982907 0.13495257695020632 0.2941223745765644
P 6.1566242277210135 4.143896031274675 3.2207554330353756 -0.38404233676716437 -0.0424828517545591 -0.011597989250244542
Ni 3.1162347075426644 6.434965662985907 4.42159675467641 -0.1831201377943685 0.23184639935547813 0.18207035637361546
Ni 6.9354941891872155 7.889860285125236 0.8578386191634113 -0.2038905375725005 -0.782189231256511 1.690657165838314
Ni 0.6396366455482742 1.9642329364590565 12.273822582345305 -0.6105629530343549 1.9024507603079752 0.6227232425459727
Ni 0.7259919009322331 8.842698246447105 12.378564242963241 1.7641385228569166 -0.12363380950327739 -1.2073617624050819
Ni 6.7093210603665 1.544723161804458 13.300264160073459 -0.5523035551718295 1.3380136550974056 -1.4626892756016359
Ni 5.6434011374493815 3.6165791211396177 5.4296878291284365 -0.5610774447097175 1.2545229934719169 -0.2039424738563584
Ni 8.880413713449363 5.0961632435230415 9.249320138796806 -0.6771545249116595 0.5311140655784079 -1.6017152512902673
Ni 1.3734984397536902 1.9870352825085051 1.2551075912118457 -1.8631537624805656 0.003492072313658502 -0.647565241290317
Ni 2.270909301534286 0.33232693311406086 4.642344085046765 1.0178534616961825 0.30534061188988704 -0.14713472083869497
Ni 8.294447733196808 6.68291010727168 2.7997258088318207 -0.3841670352704868 0.25396842806549813 -1.0298504861570588
Ni 0.1715542836125643 7.742395294666567 0.7182987557592317 0.5155534921359896 -0.23823070561526716 1.9551887141316393
Ni 2.8324527448190615 2.7537906346081047 6.111938257517851 0.8045724840477175 -0.22644682560646162 -0.5126095790163172
Ni 5.759336844412143 5.8749595599475 4.691656804997385 -1.5214083867093993 -1.1835746872878135 0.12911000212650023
Ni 5.7491646230214934 7.548257759003738 3.086412147889134 0.311802822575463 0.8832094171253305 -0.07266888841963613
Ni 3.437290267018072 5.65366541514221 8.436417882978482 0.7972175863445431 0.5403731222828307 1.283303665149035
Ni 7.382519592562768 2.9490236402668506 11.242934685221963 0.13088483463873588 -0.7349956042898438 0.3298349974868255
Ni 6.232791612142952 1.4100447917182894 8.437832788342956 -0.17135399839737586 0.058649691322408666 -1.3560432589056064
Ni 2.9112621451135037 2.52611698806189 8.40522736667459 0.7347464643935153 1.5185038114680944 0.12769820938063814
Ni 0.5696084959185755 8.377307610787074 9.90492118826876 0.9891311540608255 0.8183739087071841 -0.015417877216966995
Ni 0.6725716287784371 1.8123400378656334 6.3279566556453295 1.4759880495930708 -1.8084180615005825 1.3002382361208447
Ni 2.0849923936559365 7.751085409592155 6.065065029574941 -0.2570185277457316 -0.023963195683816794 0.4964617656118611
Ni 1.353715540415674 6.99431816627885 8.064176257803135 -0.3263377829668444 -0.0066825542264981695 1.1549547095582755
Ni 4.660497587836233 8.486854610378694 8.557085283873185 0.2641818782633901 -0.34658136370722886 -0.6482131592869611
Ni 0.6098996982557691 6.698476827969952 4.512918447562864 0.07324481552776418 0.36579290363867323 0.17691529453523724
Ni 6.604514960337038 0.8026168051759952 10.55090235416313 0.7543372420412492 -1.4260988780721118 1.097640706328155
P 5.289048813476253 1.551130280436035 6.361007629816236 -2.108004544515511 0.3490462803079537 0.6523742326431862
Ni 1.6405813892622345 2.392221096544233 3.4782313868486407 -0.9362710728370005 0.7563591575672844 1.712463463080128
P 9.038842609497411 2.8553655584311244 4.806369083704204 0.07469620326231007 0.9639207162334688 -1.6816644754214005
Ni 3.065401217480066 7.7245547833045025 10.168945106855936 0.05799097469248723 -1.1568341859691755 -0.7285560193120872
P 5.218644153570647 6.708510964907335 7.058645269114676 -0.24481324392879122 -0.3258824405969807 -0.04067639467343962
P 8.221953395231766 3.2807024970135794 0.22776294115932677 0.09780322159341866 -1.2928540278416314 -1.7162954352317088
P 8.680292518144974 0.9890160880777568 10.936576834952268 -0.2516305239609408 -1.0810288088030866 -1.7752112357313103
Ni 4.157750504752439 7.130055183840064 1.1364101951837489 0.7223079815198463 2.4937409811556472 0.25673467795672555
Ni 4.829043471493626 1.9680993011505254 4.254000892057493 -3.06535043574494 0.246934146926536 -1.9669877636490964
Ni 8.889462847953444 5.9750891998263285 6.58613407848119 0.8938059616942542 0.758521455325926 0.36754459622245733
Ni 6.814035104093784 3.5259312803851066 8.94286839109889 2.5923003641888 -0.0784682687102326 1.8999220803488504
Ni 3.4621362629758687 5.137781897737639 6.248882133200615 1.003426487637575 -0.1712249290186793 0.04227999171513363
Ni 4.702420027848019 8.011816474250429 5.423556879403392 -0.32294161280110184 0.436597485156061 -0.14811791068757074
Ni 1.6640281294269283 5.093171413702262 2.866944400119052 -0.8026662681639402 0.3582012073343444 1.2710299899880044
Ni 8.745983895379075 5.57800434038225 0.08921176244053707 -1.8836482828894914 -0.0656502910099579 0.15557745228940947
Ni 1.4639713735340636 4.581927533927454 7.582947335353409 0.702312769344842 -0.15251552553463413 1.4094252740711726
Ni 2.251641917488466 0.49644490863669993 8.894970576512742 -0.33992143518855006 -1.2097040373850134 0.5788954467277448
Ni 5.188532537128278 8.525168443345109 12.656789687287391 0.4923819391155326 0.33619873492132424 -0.47639379121739245
Ni 6.175965256808576 5.668882321892205 1.5436166450522801 1.481600510683842 -0.05678101354478608 -0.2154831275061063
Ni 7.973318528679658 4.749331919437842 4.395296269144204 0.356760875343392 -0.08748178506275256 0.21292076609556881
Ni 1.5046602590966653 4.371339537065445 13.062917237294398 -0.042269964412804624 -2.3085436491172757 -1.3872428244368626
Ni 6.723709460396895 5.216296717865112 10.820895203383516 1.6433753500332149 -0.13907971174470243 0.9980503109273264
Ni 3.413926377525338 6.968229410241652 12.436284464991765 -1.985628518678735 1.3317399062735515 -0.7636410359406784
Ni 7.337605322730203 7.391384614462493 4.966890419500755 1.5993068989590908 1.05746541966085 0.8496416084722141
Ni 5.655267194800104 0.46303951770240825 1.6550820979812866 -1.8467838057629742 -0.14427462568208058 0.9510639148754589
Ni 3.2044062337685926 9.265190645292265 0.32198532812740327 -1.9791742784129591 -1.8547508831288508 -0.23236627641469013
Ni 1.9456375634191345 5.104135319291641 10.344490031167908 0.6415578587539725 1.7890064897431897 -0.4265614410762976
Ni 8.619185544759329 0.9287652383023656 0.7771024804643873 0.2840945580269172 -0.8452298525577637 1.1231969575307044
Ni 2.097327938147766 7.56722135725237 2.6556282379068166 -0.4014412489699022 -1.3958030553020477 -0.9110434086184632
Ni 5.059009319964069 3.648034759593783 7.731612739992477 -2.4821347643752865 -0.5561118731743261 -0.9940797563153524
Ni 3.4267314091582746 1.637405446837099 1.993574041652197 2.0779876864384472 0.32223610209364506 1.55262157908741
Ni 7.753018591937888 7.389699984132639 8.597358074949943 0.0473527782523507 0.4852275874589385 -1.4694332791936886
P 4.4062656981117145 3.6115712583011437 9.924107562768665 -0.5489246113972676 1.3311056151236624 -3.490920459442246
Ni 2.7581080751802447 0.4108748935103179 11.359721912979868 0.07091822427711658 0.6938227295959599 0.3831843596422433
P 0.887162233659138 6.579291533540312 12.185490878153589 1.3311773489018621 -0.11794292976608721 -0.3674803186434252
Ni 6.434054305594347 4.346355456654381 13.027024485075263 0.7668613426501889 0.5266226054659576 -0.6768007411166667
P 7.572054313116706 9.09673681793705 2.640847678029144 0.5539079235444719 -0.34734138180170504 0.8856481084738103
P 8.915754127855433 8.735922141551038 6.731457839351203 0.020038406708113878 -1.0330340260913629 0.5429442254441166
P 6.82530279548035 6.67588621141551 12.587859769342675 -0.48696153943090975 -0.967818251515662 -1.1931456188057
Ni 3.3240702209695563 0.4627633487958747 6.868238775379113 0.7323609948804741 0.6936080424819926 -0.32330208146431416
