# total energy = -381175.03022276744 ev
CRYSTAL
PRIMVEC
9.14974111464353 0.00000000000000 0.00000000000000

0.00000000000000 9.14974111464353 0.00000000000000

0.00000000000000 0.00000000000000 13.39157099128754

PRIMCOORD
 96 1
Ni 5.960662931380122 2.734939982463771 7.1335563569044576 1.2792384939407258 -0.04239003493043667 -1.2252805516670318
Ni 3.168363221540911 1.4142388932066123 11.834345678305125 -0.14163564539733672 0.6129198833023056 0.9023258262398073
Ni 0.34643664980320354 8.713463208601727 12.75047632228092 -1.7993094143310948 -0.23165176684616878 1.3415648627837735
Ni 0.6146119035092483 2.0412615056346746 4.530702952900503 0.7421766954193153 0.6096101022027823 -0.47563145913007127
Ni 1.3894705438677517 0.1392901696805348 11.009612713819841 0.2738775082845993 1.1851080932132043 -2.0291850631134474
Ni 1.0521744854903043 9.092838926605854 5.651028370498516 0.01868934887938717 -1.1623425173819144 0.22886443390901876
Ni 2.7461209661697508 4.17285840581038 4.533314289029543 0.13172892780658602 -0.15761299466219952 -1.7459752216843285
Ni 5.261924647685718 5.900439335019436 9.771896117050208 -1.0985786447613919 0.19572368549099195 0.6490281989890887
Ni 8.019803031254964 5.649196592316898 2.17888916734518 0.6647142422657779 -0.5578239707694264 0.2812959122358575
Ni 8.19552381036572 1.1309720564198447 0.9447912932070632 1.150679222111373 -0.605252596565035 -0.49517184315584406
Ni 1.7145425480461902 7.9361286482834545 1.0399074275078106 -0.37681290889826075 -0.3797483373775008 2.0040545865944064
Ni 3.1401911684879553 1.0906125481325475 5.289831358244832 0.4561754072879885 1.0829136845306253 -0.19354081890706024
Ni 7.001619834199778 8.38651550748407 13.212740460490316 0.3325927627376208 -1.7801420973740245 -1.2828686344941456
Ni 1.2253607862978217 6.396648097984001 7.117566269241144 0.06365794317027747 0.45262008583656244 -1.799142292625611
Ni 7.064945192816053 0.7588438483940382 11.55557319437955 0.6119912008404492 0.3890336193341687 0.48011494882272154
Ni 3.1890507863193243 7.7676727636592355 10.380342009987066 -1.1205008987557799 -0.2095932443842326 -1.370214665309982
Ni 1.4903006915272428 2.5911975487314116 9.613687942532941 -3.090568072661148 0.561082329805724 0.7637541644797748
Ni 1.125125371814181 4.218259421480652 6.143918522341838 0.46668350590816404 -1.8997521304298894 2.1018043292420705
Ni 1.3844290364847773 7.823321489436461 8.819742027126122 0.21297707325480092 -0.25762299409894984 1.408312500622968
Ni 3.2707945739046136 3.315042722187853 8.783464218373387 1.508903312263853 0.5113487100260226 -0.9598164642571081
Ni 3.897259052121494 6.361421594491348 7.528621136087507 0.27245825933956946 0.036496552264137144 0.816364334476323
Ni 3.421893399535179 1.2040327396377244 1.083160083952089 0.31438858102476824 -0.2000850477834812 -0.2911077561199567
Ni 0.43048983205902447 4.016535077973502 0.09964708612660773 0.03418178808803145 1.0357108015925773 0.24010118316510265
Ni 6.673455217506921 0.44363160529707596 9.246612221579511 0.1537583968027997 0.3178194610831881 -0.037799587346276836
P 2.7355347156396213 8.324434513666498 7.078945211775562 -0.7195754130800317 0.21784134332563773 0.15934334708974493
Ni 8.145438127217982 5.20191149537187 6.445001735128838 -0.46256382731283563 0.7260337671108658 0.3468158483155382
P 4.798160866899061 8.939507564130558 13.396392235244562 0.20748314001976526 1.308464480685379 -0.9384770793493836
Ni 5.214867528864233 5.056650204605801 5.645859681713321 -1.2243644676106658 -1.1137941761595658 0.7447537121178722
P 1.3520298030127031 4.669671051691962 8.346457025681165 -0.981269749034878 -1.9098604225084848 -0.41170432145880703
P 5.467345486624304 1.259525919815112 5.31365453932115 -1.0914294353111202 0.8339329394877056 0.053698260854404295
P 4.754928339885351 6.707483104906707 3.692497909521042 -0.5867825627853056 -0.026121379677400174 -0.017257501528867052
Ni 6.296925069005708 7.375725301291757 2.081532261432653 0.3249902678000145 -0.8438519983736307 0.4027923636811579
Ni 2.1841896124031783 5.608077655512746 0.7997724705819179 -0.08831199427353177 0.2560145119612494 -1.5655056341389295
Ni 0.9534304788168719 4.2431650169370165 2.3581216171158 -0.7968373201869889 -0.1247614953498174 1.4485425517876085
Ni 7.032344665038307 1.9785400299354179 3.9992987955632517 0.2645839987978153 -0.6273753966060034 -1.441613685878259
Ni 6.8476754390663 4.508287916989776 8.809310407221712 -0.2697678569915999 0.7569255715937157 0.32456423600618944
Ni 2.925895080617453 8.197344608857938 12.629938547121991 0.4199130825218445 -0.24680764865100074 -0.5585960730487606
Ni 4.6459091738814635 0.9725625875969077 3.242179673379179 -0.013178960584119237 0.5025761060397151 0.15145648814250046
Ni 5.400854317564275 2.2832081113116183 12.408482786788374 -0.954421261383466 -0.7056621454330492 0.6084037405995071
Ni 5.151285977495285 8.239241273661278 11.28123376004935 1.3602940637621603 0.772641696777392 0.506558744836547
Ni 7.143623817110424 5.425421372597464 -0.02503094691035111 0.5909878591159047 -0.6124730255728742 1.9296779714550443
Ni 9.081273653770863 1.0148435415292587 8.912411520638832 -0.017068525446512536 -0.6776538331455814 1.5663774952209215
Ni 0.6595737316035077 5.566574429579584 4.551112365547441 -0.9845926427605237 1.2025471146252582 -1.2810287530719293
Ni 2.455067699649932 6.163860383215146 2.965241712557572 1.0451521495111356 -1.0336698599031486 0.5091547876984973
Ni 5.140095844048139 3.341906362253939 3.940376292396502 -0.7931760692853178 0.24098281443910755 0.2567061387116353
Ni 3.2695685085882458 6.383014983645286 5.4082665228836 -1.1168884988141734 0.17288894698466353 -1.9313008517704482
Ni 8.41482480665453 7.480169596712184 5.427684103588043 0.030223831881547945 -0.8193609552108018 -0.5450142205992679
Ni 8.50804236966314 8.168605271852632 7.69032359675642 -0.6918869460258277 -0.42974112435585987 0.15998586576975027
Ni 2.846466177547395 5.512938646859081 9.534571045636675 -0.556241456773655 0.5154735308276736 0.7889998264204412
Ni 2.360816215889459 0.7092174822528816 8.87784837338078 1.4631711003340608 -0.4882283219584752 -0.46910779907894046
Ni 0.9913287067302666 0.4635579116104007 2.6774704581943283 -0.8443119687291847 -1.0619388820511713 0.08687269072384393
Ni 6.07182313681707 8.418557901050633 4.255493378185328 -0.38945348048040673 -0.5523840307007778 -0.001107888352198092
Ni 7.550988593344167 3.045189405951794 12.86117080589247 0.16549291163090854 -1.4138208320357069 0.6779176283299292
Ni 2.860520179979789 8.355058697352188 3.642614435653095 0.40961221481646876 0.5856631044688817 0.7626761009242479
Ni 8.876429248525792 6.004847031475194 9.082216992085172 0.17629488734241897 -0.325007237080879 0.6218506101330322
Ni 1.1819086654961048 2.1029490605820693 1.1694540378196894 0.6622356988182982 0.5262690787812808 -0.8505484365571996
P -0.014797876389264481 6.3925490139412195 13.430674485448787 1.1625047539913915 -0.5972258696058166 -0.6751961156337082
Ni 7.031484589368616 6.518586698515583 11.422113239770578 -0.09814672097576645 1.540743082482269 -1.6807949283322539
P 0.8096258268445773 7.459326486333933 3.4622163088578084 -0.9704405196298577 1.1051413855805743 0.016140871425920588
Ni 4.5198989385306 8.408365089390681 5.895304500276559 -0.10138605384867057 -0.2929250118343536 1.5119508408409252
P 2.5367016903412187 1.756741154308039 3.27793503191128 0.4588143875727324 0.7381012397983612 -0.15821540413288881
P 4.19878877227744 0.9212142401681361 10.10602910990625 1.1953467402220768 -0.9721654727407644 -1.3153275263537991
P 8.872888298694193 1.2558934725718436 6.8760359767872945 -1.0156271434688249 -1.2474997680765483 -0.9142534309153287
Ni 4.371764629038118 1.2558751730895097 7.698881349669842 -0.5316025751790522 -1.0920171894937902 0.014905713467238844
Ni 5.204491722380943 6.733422621114934 13.341513002699473 0.4070645086939505 -0.07186413313015365 -1.1197843323047296
Ni 6.790654252114036 5.648885501117223 4.259818460834932 1.1708670099131577 0.364200876561205 -0.8469959433192509
Ni 3.607834439529387 5.854745527631823 11.760585039887976 -0.38742102343141016 0.004470377066527784 0.8822046300098999
Ni 5.434662611176056 2.6521256751619515 9.550895098852584 0.9338264679512499 -0.8061416283070504 -0.2507692044019101
Ni 8.007816870326295 2.930735293694755 5.893737149614664 -0.9165998196603181 -0.32974320910396754 0.7111743335005299
Ni 6.692257935604948 0.2822795797148565 6.732492092438258 0.5011645704041692 -0.0442168037265303 0.04645494902842967
Ni 6.17250688861789 0.421832346966882 1.4858621520871684 -1.106266500323953 1.605324051687448 2.0521874375458915
Ni 4.040086511737162 3.6848386611902106 10.971579984711294 -1.013839455440783 0.33116760025532 0.5742672039271143
Ni 1.6868554312750814 3.560255785461388 11.566969197002951 -1.0779175168676147 0.25143614856194757 -0.42668922490341354
Ni 8.097081745150795 -0.1763493663289228 3.7460376199592917 1.6765119846861838 0.44682687619355305 -1.3907773199526823
Ni 6.266282585837683 4.26578317710165 11.489071045630121 -1.2667961544123152 0.6037230472943861 -1.498136303555336
Ni 3.1240510250695035 3.586954730186469 2.1834686127992247 1.1558692509527448 -0.4368096011668671 0.3956678368212347
Ni 4.935288037767735 8.13024955688089 8.73222841276097 0.05993575712368387 0.29369068635578455 -0.532787853736405
Ni 8.437461266301497 3.205181779996609 8.103467349511192 2.3455423378288125 -0.15947087380654473 0.09374216415016759
Ni 8.495800015981798 8.209596112280447 10.402197081738377 -0.7129414527032818 -0.28679344501531895 -0.732408560288958
Ni 5.32507616121982 5.057729874063498 2.154248914382656 -0.20521902657593688 1.1365970329866941 -0.10127138264767721
Ni 1.017185875267991 6.789446486280003 11.406070083608498 0.306940095166523 -0.7741637898488731 0.21270659320223365
Ni 8.559912252338426 4.668225392587588 11.508060418447952 1.017582981643615 0.6701315566266072 -1.3766110557546292
Ni 3.0906819190337353 3.6244046207826845 -0.15210987202951054 0.6410996881706315 -0.7815634247470541 0.7722647730539474
Ni 8.619239174064754 7.876124645710774 1.4922495863957972 -0.7149178597033623 0.5191607498712736 1.525411080110889
Ni 7.929293791631763 3.1488559733730312 1.8938363010826291 0.11203864846651027 1.0052265169607912 1.153836279683116
Ni 3.942147682286418 7.6758459613079975 1.5420122836803412 -0.3051984298850679 0.15444333868496626 1.6815922274225685
Ni 5.616632663503819 2.8546917948564587 1.5896064923083244 -0.3459072204583397 -0.7424844564677212 -0.6860495134084442
Ni 3.4069061235037594 3.3818175332240568 6.503107166409382 1.479503004724865 0.47697717452468813 -0.7528264618236777
P 4.954045007159927 4.652524436745149 -0.10507105269035967 0.06298997056897539 -1.4027604604564874 0.1770137677863145
Ni 1.704953619303255 2.005714761201179 6.937021746587186 -0.47219569397564487 -0.3725528480703261 1.0757086821417539
P 8.421906706317728 3.8257080761961566 4.08240680955653 0.19879281133461893 1.3352247794983585 -2.2262290100777595
Ni 7.734047464870794 2.6019118956378784 10.308657447840691 0.8089323036783099 0.41588210698558054 0.3016161118504483
P 0.05405667081418077 1.7693220484125578 12.290891228285197 0.6024503512295496 0.03016598206041901 -0.2630765610143534
P 6.934231990505392 6.995837197782284 8.956938736027663 -0.09348608227530351 0.9327196080403163 -0.1923082320515398
P 4.960824965364618 4.4666840439037765 7.691836963945428 -0.5030293915270497 0.6873402071954099 1.277431265528658
Ni 6.394305764245269 6.889736799210644 6.496197281880122 -0.05861909519478937 0.6495910134710942 1.256494515375991
