# total energy = -340856.51790933707 ev
CRYSTAL
PRIMVEC
9.35115432218156 0.00000000000000 0.00000000000000

0.00000000000000 9.35115432218156 0.00000000000000

0.00000000000000 0.00000000000000 13.68635957967721

PRIMCOORD
 96 1
Ni 8.698088552735245 4.579138783484235 6.658236130669014 0.4059370799577267 -0.23722848960299792 -0.5001320153745967
Ni 2.56477854364391 5.416534667101757 2.8070996852421524 0.6007343969797073 -0.8384940764958269 0.15404018970927666
Ni 3.6848317737059517 9.127961124146717 9.772238835689507 -0.12818826164317923 -0.45010477561387646 -1.8647558168603626
Ni 6.063475587440238 7.856699726155079 2.6891367417172134 -0.8655387393184448 -1.0537915703536882 0.8620883188759991
Ni 1.4603417415622277 4.774465698246969 10.98680698941975 -0.48262511683908493 2.5311261066723247 -0.2094142956042071
Ni 4.5017392778594205 3.7135491691117517 7.314387938169564 0.03978293632489278 0.46663311228620286 -0.9744133882346767
Ni 3.3057733757347645 7.964705560390505 6.95726921883761 -0.8841532690958387 -0.2556224187291533 0.07734161130495712
Ni 4.0240074978231055 5.766903723130582 6.076346516465489 0.5113857339115451 -0.17654582701096047 -0.9954146730766922
Ni 6.791098268625754 7.605181724126487 9.756389563962614 -0.7656282415740363 0.5727327695604588 0.5670303198590428
Ni 2.0105636711217474 2.9752381183564447 10.062622105964788 1.6374813531462828 -3.5606708886635063 -1.4273047254547546
Ni 6.252079022132386 6.598819830223259 0.6715251054644495 -1.4982671727062455 -0.702620530393248 0.4876765632200634
Ni 9.212532965257124 2.2314285887673333 12.20444138670374 1.8686888333661817 -0.11711349188625637 2.7645398505149226
Ni 3.0657011867887833 3.8730331087554912 0.9213804722266303 -1.3645757218566499 -0.3380085344365534 -0.7241656035538754
Ni 0.9152573362736124 2.5566430392469552 6.6809968406715265 -0.6442166365330584 1.110047821743256 -0.3028484415956526
Ni 0.2571268244852514 4.841578933944601 3.948788681422853 2.181084552330637 0.5015270959499105 0.468375034677974
Ni 8.179679250714159 5.108273859693029 13.36222558997414 0.931013681092803 -0.41233604150553504 -1.277333306498213
Ni 2.2276974781301093 6.905518994833951 4.668718167818284 -0.11674068192786992 0.10423843569580112 1.4078679568863819
Ni 9.102310907410114 6.672263797503349 8.068766142551132 -1.1141777847512295 -1.6404018692271876 1.7389064877630052
Ni 1.5348236869895149 7.946452106846994 0.3613033609614212 0.7141079622075572 -0.7772524560765259 -0.11799460893962906
Ni -0.0949385309661111 3.373700161872092 0.7898190798579546 2.0972676177139813 -0.71494922716193 0.2290467251231539
Ni 1.8303762754609316 7.994339368935273 9.115074298158852 -0.46760910304622694 0.7032519933296598 0.022625707819315874
Ni 4.564279799016695 2.470341234557887 5.292433625776633 1.709299977750482 -1.9662562847997103 0.7329346079957572
Ni 6.119975262803913 0.8177219897086114 2.4335032966022996 1.3964368322313045 0.37341905272536335 0.5311348915140143
Ni 8.149082273258028 8.862332230008924 2.355381881851685 1.5880873760941876 -1.0494397211428959 0.6930907365259418
P 0.5474165832157422 6.397405313894529 6.165896912220651 0.4222679559072664 0.3896902790815611 -1.7860291522824208
P 6.109034412063181 2.7763016579647175 3.2756112269619186 -0.6621053438880209 0.32269118735319263 0.43326327857650543
P 1.4721148450516133 3.5080201448121486 12.849643927424529 1.6577588724483967 -5.7731779211694825 -1.398970911507068
P -0.10639463031864964 2.607326296524532 4.754969476273164 1.3359158920281122 -1.4981686994551682 -0.10725871057936368
P 7.397099834654045 5.7111988958976445 9.180974689120525 -0.4186786958941112 0.9118787600355651 -1.217149437919465
P 3.060801181841652 6.168928556502826 13.092837531735686 2.287227147027687 1.4317211093548954 1.47186322879142
P 7.942187980404453 4.038576596501789 11.418598417730367 0.08685674988424397 0.2751612600930293 0.041191129526329064
P 5.339780391136011 9.03737649070615 8.256077247694247 0.8341298859898602 -1.0001907543090969 -0.3077453646766377
Ni 3.7637835709743244 0.9239239862449883 7.318616530225085 -0.7946806788553024 0.20956599069072296 -0.6794371502982491
Ni 7.984146610552881 2.1035889558814023 8.19599420993412 1.4406528646268868 -0.0877196121051715 0.30515446402100993
Ni 3.7469608440661397 3.7578829924979127 11.519918176513123 -2.7135137371760427 0.7973867649325559 4.7888508733655195
Ni 1.3051499818244678 0.8961669544042079 8.250069130941323 0.09926900750566775 -0.28106168473786436 0.963708857332979
Ni 7.3239644554717716 6.83335613571752 12.280715948444701 -2.559523169757779 -0.7640688675067163 -3.068346028038154
Ni 5.961940752104459 4.806820692745201 12.591655861611738 0.08183487118962035 -1.7208992525523072 0.8992129916424385
Ni 6.7766694372642595 1.2942184822382157 5.058670660757807 -0.4567135391796457 1.9235271213623 -0.611686525115837
Ni 5.682939707061328 1.9012767287226633 8.279344790269535 -0.055374877225878825 -0.6787146703099278 0.4301779547829624
Ni 2.0971553615996728 5.9474371115071305 8.487335973543527 -0.06829004262565014 -1.1136951886878563 -0.26777010983528077
Ni 5.04577074315367 8.067072648474937 11.559663388396313 -0.09406098094216704 -0.8121983760240915 1.2480394426301022
Ni 1.327733019891875 0.016124195668583946 2.355394973467956 2.0995543568656294 0.52463205739849 -1.9806927719400145
Ni 6.036469453304142 5.050081625368609 3.21296877822082 -3.152416216316197 0.4135668285888425 0.1875347219222964
Ni 7.842654292127234 1.8493778213627834 10.672732569271266 -4.259313408245613 0.17403360211206803 -1.9277090206541316
Ni 5.879052118800319 0.5339976765380076 10.447633448877474 -0.7343718546629159 0.8480251559147137 -3.4334671024207837
Ni 4.305131254933028 4.113628962352311 9.521792475964237 -1.1192040343212273 -0.47307089749174663 -3.8661940488778446
Ni 3.9257362154005873 0.6654908054789846 3.292952007828254 -0.6709638227199154 -0.5439546689865019 -0.050931753852860674
Ni 7.361752470722451 9.046512568632384 11.82847728574974 1.5358793266320645 0.634798685653268 1.412876980065199
Ni 7.6587825416015916 8.669689096581738 7.865975136283055 -1.8735875562193798 1.6748801055097153 -0.1730049037372375
Ni 9.020955863440573 6.302088996287456 10.337444120071142 1.0904079360251415 -0.5580296590223293 1.6686613782935134
Ni 0.3820685345980607 3.86612260559532 8.816930504781233 -0.7413349162443104 0.820475271320903 -0.4469929694577721
Ni 7.5486633464538535 4.669321317282196 1.6980396723859257 -1.395509692431345 -0.5500193871233431 1.3667560173374202
Ni 0.36940146074045827 8.443045165467971 6.9629902551480205 1.8954226498165998 1.1004856319761176 -1.4319144563126243
Ni 7.04068993283162 2.692075809570044 0.293914266206651 0.6056999685150988 -0.5948226594809627 -0.10845864442473578
Ni 3.874145896138523 3.162794223746915 3.2262857573147308 0.4617397887496435 0.5023591049329026 -2.7250101678514165
P 2.64098110149538 2.6746639599296658 7.817567014890282 0.6540562483312994 0.9888347058663294 1.6325173242727882
P 2.967130667422928 8.96040713818738 5.009933378727364 -0.2653180487503624 0.5178973097778178 -0.0977386869040704
P 5.399337894014402 2.8982874681466337 10.868475610408328 2.711090215336215 -1.9934333594351346 0.0493420407682376
P -0.14056468390130497 7.788174466131079 11.955787643292144 1.3844791456487964 0.6000828794386376 0.2526833907054874
P 8.315860113395589 0.6356045157632771 0.5639110846017047 -0.7883591075126487 0.95873248716431 -0.8795903323155044
P 3.2107188904531103 9.55416804300232 0.8879846942348575 0.056184260501051624 -0.4603279960037814 0.8222339058832226
P 6.059342377160407 6.478938029799177 4.979083920100292 -3.047761519018583 -1.323313372772753 -1.5695723480091355
P 0.4047581758265314 1.5044417860864068 10.153608839047966 1.230289831956165 -0.7677350035043939 -0.4963902889439773
Ni 0.7217454805953027 9.112971223516467 4.455854097945151 -0.5175340129011281 -0.4654604321343403 1.3453320431356894
Ni 5.736493768764037 1.335634745426848 12.502462679957683 -1.1801093544470322 1.1483580301773642 0.17199857395991025
Ni 7.515765984995825 7.120763868637503 6.116598560921453 3.4735724550821017 2.4776343054017715 0.31263303178624224
Ni 1.0287766111900085 7.103006026281393 2.7544349183304213 -1.438228057235478 0.23444886997533168 -0.9736618547806328
Ni 7.909131649320277 6.437811652399401 3.6496321580151303 0.3545576970444861 0.7107097351592856 -0.41410341781860294
Ni 1.2647623456285544 5.308874825582064 13.179348802285089 -3.0837621054829087 5.6446543876740725 3.400395259567479
Ni 4.570021407866959 6.491608844118571 8.301899774873505 0.5133865663916578 0.03536063888748104 0.9654505226144341
Ni 9.158698368920039 1.6402579537431448 2.6225116362833987 -0.11389678472117158 1.7099574088288227 0.543764921573199
Ni 1.8053151814565214 4.720369269584463 6.625511765568852 0.9816397307797867 -0.6387440434542613 -1.1778760942411393
Ni 8.660749392899568 1.1022299296245772 6.2914417717973725 0.09165751370699698 -1.850880344429851 -0.43573693692797855
Ni 6.634129789536936 3.8592401558985863 9.20410476972497 0.1962358492407201 -0.9644758174059906 0.2895779497389916
Ni 3.846877929677008 7.591987245156254 1.9627063327278025 -0.7992112197358042 0.35329939915735287 -0.643694188370685
Ni 4.8906537926517455 2.2576024701547754 1.141521610515522 -0.9196979989696676 0.110192596396707 -0.5568690630553248
Ni 7.687958143576875 3.8266607336928526 4.490412224438695 -2.9335762565227155 -0.024489757611248143 0.06620024997615695
Ni 8.329896196268955 7.526136415313322 0.3744875536617265 2.0195025457183604 1.1836255951304067 1.5669256544149077
Ni 2.77929402739808 1.716385702358781 12.84991791625077 0.12189857197972553 3.355388612949802 2.962930798425433
Ni 9.076772904527262 8.688541024011922 9.750942516478444 0.22199496048269507 1.2496502387606478 0.7720428868511284
Ni 6.473589169437041 5.35149738769852 6.952109251795956 -1.7575726967139407 -0.2040633157049389 1.2433569495527685
Ni 1.510258204172505 0.032469078582878376 12.111689155654881 -3.0393154451337594 0.5006403224695829 -0.8580460304858255
Ni 2.4844801801305243 7.451617065268118 11.535630921384621 0.2695359434864519 -0.7989373972491273 -0.9028202493777225
Ni 5.3758384428080275 5.7418332779716925 10.687377412301233 0.8299212472251514 1.7252063645680933 -0.665102478843132
Ni 5.890694306126996 9.03130759144911 0.353155700063644 0.1663902266341973 -0.5046823537494406 0.6963071865807104
Ni 5.159929637036448 9.016429904672611 5.762203832889308 0.40677860202241556 -0.7055647006232365 -0.30156443267690647
Ni 2.003391335636157 1.976104666865683 4.5642096653581 0.17259301301079952 -0.6315017600695512 -0.730349106656768
P 3.576882046397402 0.3794156120722953 11.709802719368929 2.465685617680328 -2.26542367799935 -1.246575713600382
P 7.234829250975488 8.75483135811538 4.322329898251279 0.21488097514573315 -0.6071829808185285 0.4612451085014121
P 2.1569933991124426 2.223068656662877 2.200534244598762 -0.5531034253653055 -0.8901202853125508 -0.03151966787483603
P 4.980649303360121 4.774362835547698 0.901531711728958 1.0799998533179398 -0.17653425704673467 0.60557038491577
P 0.110962669281767 5.365692440198033 1.8279365592572934 1.5335331949973912 0.8161239363307429 -0.16041883954211084
P 3.094446635658021 3.855256564090422 4.948262514936659 -1.4321911070127786 2.9941105664623464 1.8268659837931247
P 3.278280981565747 5.8704116520614855 10.195927488643848 -0.029874676072245324 0.9166391575386857 0.6096756653333951
P 6.809697714884997 3.287903319524903 6.7659754570017805 -0.7649145033364633 -1.5359042663327291 -0.42686354569774865
