# total energy = -381172.1944760185 ev
CRYSTAL
PRIMVEC
9.19180281222062 0.00000000000000 0.00000000000000

0.00000000000000 9.19180281222062 0.00000000000000

0.00000000000000 0.00000000000000 13.45313253735036

PRIMCOORD
 96 1
Ni 0.24466740739166143 6.413460922354635 2.5586651610823865 -0.26959996395516794 0.5648356262005692 1.134487185732543
Ni 5.6229199210502605 6.673074201127273 4.434166123011872 0.11676356474600535 0.4828454603800071 0.41283226441566323
Ni 2.931394603685638 1.2790853210454072 7.26560630532103 -0.1890151631225648 1.1287839647001785 1.6822956812474963
Ni 9.049973299857543 4.873503045550616 0.9336564519899042 -2.098201956602793 1.2418600532922677 0.42424873378272093
Ni 6.591818664222086 3.837779895896809 6.976001093135729 0.7807365579703844 -0.6727072877735834 0.31238594877244263
Ni 4.715771709205251 2.418317362225155 4.201171386017936 0.9439357884711098 -0.5013774577459236 -0.9546305491807946
Ni 7.431526618796352 1.4636291462089202 12.456080398404698 0.9326445318280067 -0.929505986199025 -0.4802892696170567
Ni 8.866973697567342 1.874778486228043 10.359665485924094 0.3997121820939374 1.169736238742824 0.2853124895944183
Ni 1.7890373495479988 -0.03754024188625308 9.655743438468816 -0.039877810031544225 3.365117667312108 0.4683904612969417
Ni 7.62214622562212 3.8396825990799965 11.935807813698808 0.27748913689525756 -0.20192621475727804 0.6036551701709282
Ni 5.230917106299633 7.523600907617537 1.8348594057726653 0.6672447219971154 -1.2981499861332482 0.7333742666363369
Ni 5.825847351848431 0.3123108035046668 3.140660701706639 -0.586861238542041 -0.28980317837592023 1.2850844111985418
Ni 2.3018664123324144 3.957411209564345 12.954734782064511 0.2351402396154015 0.7566499493348259 0.24539996967019673
Ni 0.9802506196512263 3.1426314242306743 1.419870649716744 1.5888936740455668 -2.197172716141752 1.3205471228815258
Ni 3.4005166440736545 5.265680504554772 4.899267668847589 1.4478681514284033 -1.7034820855171242 0.7592819876410343
Ni 2.0419222286583523 7.688069835428003 1.6592555280292864 0.2242963549223621 2.9008391713010107 1.2873420968844669
Ni 3.5207821921355866 3.3201527120417476 1.656121123268577 0.6074215791918958 -0.15581425089056392 -0.7770889339154682
Ni 6.441771675032008 7.464396505671121 8.59909423052108 0.2172078235066969 -0.3021390742334538 0.09702160623238776
Ni 5.1679900242122 6.057885222169083 10.40393964255432 1.5006202463194542 0.7262865065516202 -0.01287094242539719
Ni 3.4678098324993196 6.6333380375479605 6.743140556462926 -2.352476345944484 1.9771351364957432 0.23717655331913992
Ni 6.491333875823045 4.863318528029016 1.5185354611579527 0.26160434734420107 -0.014446000222000927 0.5760512924107305
Ni 8.485532264253825 4.117605949064754 9.60090881958176 0.5487315215498549 0.2413553672871779 1.0171597780632677
Ni 3.9510320984091187 8.73297559609632 0.5015167110571289 -1.2541136738486403 -0.34518396913907007 -1.4196135274580841
Ni 8.852708019594848 5.1714553338743325 7.519076702270847 -1.2185638017684883 -1.364315783327044 -1.3102156590485308
P 1.2405349000295296 3.873407323616776 10.952598352720685 -0.47299273595564356 0.3762387815623456 -0.2870526122139766
Ni 2.491989661806046 2.0766304760965864 11.497154761289675 0.6049173247128034 -1.0293632621079951 -1.799542356277507
P 5.586897245809149 4.6133382586089375 11.982046258591101 1.0528495181553932 0.8021782727839282 0.3731848252273702
Ni 2.5621139254994483 7.415257127809681 8.799317432930392 1.0935349116898974 -2.1750231766279056 -1.4790862289024205
P 5.790661130663696 2.5661950859503424 1.9315066164954702 -0.20075867681173812 -0.21732172337674185 0.2570208417385767
P 8.27264091920167 6.379662663395316 9.258620789548937 -0.3730935510651445 0.21237363534284714 0.2895992898952303
P 2.775952026241789 6.836605565050372 13.2536494521432 -0.11256752438678677 -0.22593543318768186 -0.6626663585978136
Ni 7.7402149328107095 1.0734463084161243 2.5495836598988655 1.6776836363967815 1.4755692168880974 -0.3498435793982685
Ni 6.462048792047035 6.676962333719004 0.00943998149339681 1.391051142439359 0.6481540239142515 -0.3697452034182019
Ni 7.875545845690244 6.237281637754892 5.8338028571868294 -1.132250325982224 0.8040461792306024 -1.0331273571361175
Ni 1.251951119128652 5.399770524053966 8.942592820984943 2.0355320883773977 -0.22746266846548566 1.6350532033207648
Ni 2.836314595343188 6.233779560881489 10.798237650468433 -0.5432303892259677 0.07542305412600558 1.2038761178493267
Ni 1.361544984119665 5.789374278269269 5.940661241659406 -1.2343861135127259 0.5124560841575885 -0.5450530442570032
Ni 0.5953925932305093 1.1833251192944743 8.018175050006738 -0.8420319144457563 -0.4606375568244002 0.3621298529647892
Ni 7.433199526909106 1.7459369861375436 5.011103414545748 -0.1564907081322982 -0.06610331938697647 0.06353427310821962
Ni 7.530908390857313 8.910846172414454 6.896949750546137 -1.819060885926409 0.9303793899429139 -0.8380423336703888
Ni 1.5349207688601232 8.745890079054668 4.223651778168278 -0.8620137568843219 -2.2772258128406007 -1.4596774853585055
Ni 6.148553165159215 4.1057944824444865 9.545602661210173 0.18192766014816408 0.20564017327375553 -0.4088974481376313
Ni 2.516393898286054 2.5652850974714267 3.5998427265279958 1.7145859087397697 -0.6450648434659665 0.34833434184259365
Ni 0.5403520779603436 0.17460932467854381 11.681058836977101 -1.9383665003679782 0.0411636187225033 0.593715542459713
Ni 2.798517902158331 4.370095580653962 7.274041622766492 1.6083893208763334 1.3431951992983449 1.280439970447995
Ni 8.1083282520391 3.7582799933297313 2.802838968662757 -0.08664926185912819 0.5765549715200263 2.1283548260370893
Ni 4.494497439983692 3.039462629408974 12.84530636952421 0.141834134561388 -0.22933288890500503 1.529163862285102
Ni 8.645524784092252 4.067786377794831 5.0151533228670635 0.24130805898901023 -0.19551234081113425 1.7499362632146054
Ni 2.1400447237333386 1.1946769957738756 0.10251525764138782 1.6592143739480005 -0.05035299853125522 1.343993526829924
Ni 1.3152550651315964 4.436855644516222 3.6220942427881857 -0.2081382571052609 0.6869583983759588 0.00503987641675261
Ni 4.342455829582254 2.963363693884308 8.534142194272988 0.4262937892372078 0.022532119664245065 -0.4986541452774896
Ni 4.430605218600438 5.367001747010189 0.45984843052561336 -0.4512625433674034 0.12955197475992525 -0.9640806388501009
Ni 8.269589240666317 9.06963456608381 9.45907194866812 -0.039637411885963994 -0.35962174183095486 -0.5411591085192357
Ni 2.5705152332744867 8.576457577722843 11.823043695916098 1.0874303414540563 -0.8225730343901962 0.5678780125713186
Ni 6.000068782448084 2.2766073381903946 11.085987037664918 -0.16352370371967967 1.5401275603854572 -2.1916924097534705
Ni 4.631170356074556 0.9196306800709421 12.07995826138157 -1.0671746765288137 -2.1861539964337444 -0.08015851192846193
P 4.485893912546672 3.3843850301292426 6.090179702187486 0.32708545976614634 0.27009001621770906 0.5349740627544465
Ni 5.358058122868927 5.705590995589317 6.806410492795447 1.759455258448634 -0.09058613501968915 0.3961095523443436
P 1.948073921893424 8.534579724087093 7.054364888874585 1.1338521232517051 0.4108936526320537 -1.4228631447436335
Ni 7.591785700916483 2.284163000106239 8.36065059281703 -0.8421018484517432 -1.1739219946893975 0.7712237333839428
P 7.754995351740975 8.551115777355468 12.691819807719886 -0.3271188841072431 -1.2414589611991071 0.29390254525627446
P 5.771027439845882 8.89403436506156 5.335687113172112 0.14376014793950725 0.06498231840865583 0.1356316052951019
P 8.927805048612425 2.7781304835094955 6.854599438245575 -0.48410427248777266 0.5745363984281008 -1.4898460385220855
Ni 3.184683922119954 0.660271095056062 5.165909000054357 1.3114392470429865 0.7821974587866272 -0.23206520023450355
Ni 3.7730236450487267 4.075571834781108 10.810062904792927 -0.24868044019368138 -0.5492184884886024 -0.9636039563239986
Ni 6.441762483229191 8.644412575951357 10.757541862674993 1.8856537433552947 -0.541121827523397 2.844583177021759
Ni 5.769740587451455 0.8502481948648981 9.102483311812097 0.31642952271419694 0.5013252643517495 -0.6538785851028545
Ni 0.023059475727833085 0.555513037527246 0.5562226447047438 -1.1611528679491874 0.11949510474455549 1.836989959601004
Ni 5.548916716567946 1.5018946213374604 6.785705956949413 -0.1493175874226267 0.3284553435304795 -0.9629424114805998
Ni 1.8651822440867516 2.717896599647539 9.137798218236275 0.5221141760726428 0.9143264502451091 0.40146721711183114
Ni 7.692077461456358 7.992741331611187 1.971367788593099 -0.5032818738574881 -0.7310664444387668 -1.826670837063183
Ni 2.1355591239584824 5.464012033944278 1.4613468215693772 0.8784608466967516 -1.5748107135899394 -0.06569219999148686
Ni 6.287174743447353 4.124508992980568 4.726744883408578 -0.3736450526932404 1.2602053885686748 -0.9710524421822437
Ni 0.4104599548078233 2.4876603226790843 12.643321098514814 -0.4231537009463293 1.0170312229052034 -0.7375559088178524
Ni 1.6489634664147232 3.22131325634701 5.981505017478206 -1.3759045166059078 -1.9627235890561034 -2.0719584495252317
Ni 4.695411865964868 7.44805348026191 12.167227994870137 -0.06681140119759461 -0.2899561590140167 1.0204998981800941
Ni 0.3770872763189472 0.6822064132993357 5.793107069393387 -0.11432075963246763 0.20502105163251788 -0.1272878613160969
Ni 4.540189891788634 5.019772203782771 2.9081365850169507 0.10949428477810175 0.28803965871759424 -0.3579996328464996
Ni 3.7776379300630256 0.9132423771128984 2.2005828562685488 -0.6948239171669646 1.2482142776450695 0.4900509769895109
Ni 0.44264413319241885 2.062962265307218 3.700795377690438 -2.2771756763289557 -0.6886157314737238 0.6527359868579791
Ni 7.602815864297277 6.094909803917284 11.468028695702404 -0.6591632305405615 1.2842796559090592 -1.6102533706682658
Ni 3.8989697272517674 8.237519040636657 3.6177759338246047 -0.8473453562388696 -1.4597026821694863 0.6304982585057012
Ni 6.088043527212738 0.4384710547133515 0.5798942945002109 0.35105842564197604 0.04450168195680078 0.8966994811919654
Ni 4.426680318797439 8.30836945675263 10.041364384523371 -2.1800748801192005 0.39429538195374025 -1.1232771759493365
Ni 7.88381846822584 8.239164373340959 4.205933659057594 -0.19437257077973621 0.9071967811788634 1.6450799914291474
Ni 0.28981202774869075 7.416847309697078 0.036885785525659257 -0.27567059562928004 0.2135861675937096 0.04070647658042666
Ni 4.48947871564543 8.695325971756542 7.518686969831392 0.35285305564855357 -1.006201222169235 -0.5730428446017098
Ni 9.273609862403156 7.823602967969517 7.691868807532405 0.5753174995684995 -1.7061886858150102 0.16810001023645244
P 7.493966535334468 6.138956923017925 3.4737606056432586 -0.2927877149255409 -0.8515755922701335 0.13287923936094534
Ni 7.831848015096662 2.8601397482457043 0.8515653802086214 -1.2991146640393625 -1.2334949691570243 -1.3373217712367031
P 1.5518336860440085 0.7284908172057138 2.40800324028383 0.2317165586458332 0.3963692337636335 -1.170529424068081
Ni 0.390274755820969 5.451290578845095 12.453685933770783 1.6193082817816822 -0.9542132591377178 -3.1511754019305602
P 4.117697867092927 5.366146909348177 8.732495783989256 -0.38576369033364527 0.045120032267090035 -0.3702295992537882
P 3.6690643551847364 1.2417390261985997 9.674900993900694 -0.4357176536542689 0.059671961939335945 0.5699498074986828
P 2.2535726803301683 6.456469367736918 3.692669823999919 -0.5650623974993945 1.456861356065949 -1.1231010553827883
Ni 0.7120117531148066 7.274475475859471 10.414661880540734 -1.2958581047752777 -0.5261178979153971 0.730151388823665
