# total energy = -340859.52598646027 ev
CRYSTAL
PRIMVEC
9.41504157658775 0.00000000000000 0.00000000000000

0.00000000000000 9.41504157658775 0.00000000000000

0.00000000000000 0.00000000000000 13.77986503432188

PRIMCOORD
 96 1
Ni 2.6322196464424628 1.29035026963771 13.39916885495487 0.5271784779694276 -0.5391428494201553 0.828164926655677
Ni 4.8140519519584215 3.3482523836990303 6.636383136799269 -0.09771914652004461 1.2643795745510225 -1.5036001548833846
Ni 2.5157273377842353 5.518626583691909 13.685638440106585 -0.11088910824309935 0.5810538878316445 -1.2946841390718349
Ni 8.927549494910023 1.1914264284454368 10.064248170040296 0.3926362490837625 0.2091070487764334 -0.7679995700196902
Ni 1.898834987674773 0.9765845961273174 8.234805804343587 -0.6279901473718669 0.9504643336182469 1.1524370853427444
Ni 3.575851597269222 2.340729961155247 1.4360960537854692 0.5674918328764936 0.7086698219111215 0.9292923275263221
Ni 3.524257169770064 5.125755731377151 6.445738902677426 -1.2219450595358956 0.887571036528136 0.752209397064969
Ni 0.6788075461167552 5.225875282841758 3.9397184726945826 0.43576804727623014 0.8672883750196999 0.20864707842087937
Ni 0.3667732987408691 5.906102617218893 12.530058840723244 1.518644707921333 3.6249258419878343 0.12385980947115441
Ni 6.886161363665041 0.2724496468325538 9.822631842663396 -0.30312612073707146 -0.07569713372299866 -1.1229295628019305
Ni 4.93656047214438 8.290960877952342 8.866460939547698 0.8519270620722813 0.7523073560954141 -0.3130328383278222
Ni 8.612220924508234 3.5368356652333626 3.396708777861424 -0.9560580256559406 0.5472523659011672 -0.8988358108086779
Ni 6.732263095069922 2.678014408368723 5.117263363931122 0.30237612994492435 0.9684705403876807 -1.9221564662670187
Ni 5.163067540898896 9.224481074192589 0.3946192255239915 -0.32295266854469545 -1.5343760026136606 0.5214891408941342
Ni 5.361065863947674 1.6321445217366053 7.7149326325280265 1.2558661377633726 -1.7105806442351186 3.8054460802655106
Ni 7.933594147188556 9.382917392797669 1.1055113501136722 -0.9910062595963511 0.30573681888704124 -0.5407343622769912
Ni 1.7883777206273048 6.841995403920779 5.361015022723495 -0.3629520917557685 -0.08902496118015636 -0.17761592014668764
Ni 1.3817138324938838 5.144802360360873 8.766860156870537 -0.7867902203636321 1.2887456621002127 0.6225522641857473
Ni 2.808036131683208 3.319094000128794 8.858386599944911 -0.5361505995610508 -0.44916940828380064 -0.9204734436831116
Ni 9.09536319486349 4.846750391138089 0.5696476717899775 2.2111829143779147 -0.9404195477877352 1.733841414535272
Ni 8.27250739658403 2.6052549675450924 0.7651227637128837 -0.7944071134789416 -0.36046892032259853 1.268159610418745
Ni 8.615629169536463 1.3722987909794389 2.9123190145055027 -0.5456590532721183 -0.9869099780397906 -0.27370987235848343
Ni 1.7823897542241178 3.50262140436987 2.6918140347164448 0.25964542384561734 0.33088426468694626 1.4754396332887687
Ni 7.89475710094147 0.6389386113196865 6.0162614274503525 0.23868579087481476 -0.07322116137868034 0.24845315467422371
P 6.83017952682015 2.261511801852707 12.421983579178931 -3.260617750424804 -0.140448567067771 0.24961837862691846
P 2.4767584809559477 7.437412044335792 7.244695559576618 0.4035035308155696 0.11421637284411941 1.7206873936518172
P 3.742855603652447 7.61393465769012 0.9480118281392798 -0.32740350522719747 -0.4786599615437498 -0.42436031965992077
P 3.777173429972599 9.405212211103875 10.338756886452058 0.2856999548408241 0.6154020262942111 1.1863033990728857
P 7.158444364262788 7.931475762847805 13.351062700336815 -2.3554649962591627 -0.7823177864145753 -0.4009085163948838
P 7.131376119908759 4.531374745528727 0.779187894231313 -2.814094264404283 0.2235777315887827 0.45673410800493597
P 4.398971016711087 7.277036227178737 3.655701505857382 -0.33844742174618486 0.18195954182736404 0.3251000539050014
P 3.811491256292751 4.590030454163719 10.48567766778082 -0.02696624417619872 0.3271510228967592 0.5071840371253716
Ni 1.4935174504779176 8.351876196550801 0.31011452041109083 0.26557027397048455 0.4057751004585657 0.29910054451744617
Ni 2.377975865386391 6.066873866119554 11.057225294948411 -1.3892799094715493 0.05306731213862473 -0.10560651968792135
Ni 7.104364365803816 4.197893975087086 7.060954433893164 0.5963876899752374 -0.7200994039043018 0.9219659690682379
Ni 5.60930284851753 3.8664468536125662 2.3074110707397777 0.5206751296332711 0.5301133922280353 -0.14807163083066754
Ni 8.415286501150588 9.02931667863966 12.096103571751904 1.5331943236007337 1.2854369094419538 0.1621533057347143
Ni 6.365415417501089 7.17825361160918 4.71772948673659 -0.16328793355978974 -1.567225959264146 0.19847116632914205
Ni 1.9324655159643702 7.505925301436408 3.0610182971763438 0.45589927080846643 0.08638778066762541 -0.8319295359044319
Ni 3.2001820258013547 7.887432198643232 12.534606305774721 -0.04449473997826531 1.4287471143282362 -0.24365213374115455
Ni 1.3734380110026867 3.023913618567916 0.6665096188905871 -1.4334746017108924 -0.945751758633926 -1.700900183722561
Ni 5.066996457285501 3.635364074682029 9.120603038155414 1.7891738685589895 0.14208918799498757 -0.6148947476404893
Ni 0.9898033144135981 1.907176714456571 4.315964244703134 -0.03617105060391835 -0.2062181572644126 0.8231589888006533
Ni 1.935403008916877 0.6635928390294121 2.4327252732970397 -0.664874679103042 0.2532922279340799 -0.4431044330366433
Ni 5.864742339845936 8.429569119128 11.521441448851332 1.076316233818766 -0.6993490587308279 0.40015775427178824
Ni 4.18765040991937 0.23228696274023447 3.2904939285203647 0.8916806878211353 -0.800780363995137 -1.258929864290361
Ni 6.0138860124762585 6.0647366516957755 7.270725324851605 -0.5262266555791195 1.9442918647134773 0.17049782104466765
Ni 0.8197912022665083 8.88674470498642 6.715810310023429 -0.14449188389920922 -0.29059816347338985 0.10393581685371778
Ni 1.3097264250744378 7.873742728281229 9.286939518095265 -0.2441966933907149 0.10217898206361113 -1.7943826664534388
Ni 3.665906469354889 0.11170476004813217 6.931781947323283 -0.07072436309875561 -0.8548005269653343 1.445892258648955
Ni 8.912193562199963 7.13271305580381 0.5280265977670707 -0.37706333434616995 0.49957922819492023 0.5999193572775797
Ni 5.487453381237583 4.354974527714086 12.449529166137744 -1.3206401968159642 -2.773761883333823 -1.3127469101108167
Ni 8.098809295684037 5.569298337122652 9.01747443942279 0.5523521490215778 -1.2010142229204994 -0.3576538194713066
Ni 6.623086273668419 9.048410382830953 3.4062452734114053 0.5697821715725672 2.802927963374818 1.3646605682609723
Ni 8.860589719659291 3.436612548312096 5.662008250915393 0.6207257524999696 0.03391593602115449 0.1446464071992025
Ni 2.7553307292853453 1.9548544846857205 6.0056789207881165 -0.013716578255144118 1.3528394072563281 0.19007934272102103
P 8.54299212425252 8.649786940150868 8.292487997685985 0.4738504559702485 0.1514354050965779 0.7251953303699704
P 8.400118869270818 7.769254597553919 2.5357022898612818 0.636322321386646 2.4550080833618235 1.2173080749845164
P 1.4101566729090218 5.629931204475678 1.8197966556651588 -0.4813835311225 0.037437318910851655 0.6399766303097817
P 2.5215081732741047 4.016221334024356 4.633465806686459 1.179275288581511 -0.09746974951339987 1.408402746343929
P 7.128175005793848 2.856118748697478 8.72162088239363 -0.6801148930915641 -1.8460798377174141 1.424827981779488
P 5.865156601672571 8.72908983482704 6.77980340569296 0.8771300437004701 -0.020155391901952386 0.3153707424323794
P 1.3005750047223972 2.3488928021482707 10.152095214890823 0.5303694741028996 0.7163679618863276 -0.257113401452383
P 7.047139743479019 4.799025545701368 5.034322497213771 -0.3239607980942356 1.7742349878609702 -2.232586062644039
Ni 4.040135539471047 6.166447345176325 8.679853875227248 -1.0941244656447802 -1.1445792798612224 0.48816404437944316
Ni 2.617607502012044 9.30927293807168 4.889784662892314 -1.0473514711552996 -0.8358152441120832 -0.6881855859148406
Ni 4.741424321715994 5.075018072655807 4.4759342735709176 0.47133180331345276 0.1319793532544953 -0.7667297021683311
Ni 4.71976972623277 0.8165411299357218 12.25455777893586 0.3325487968735628 0.8408893162008809 -0.5688270067481493
Ni 1.537118507731312 0.7515415663282969 11.581770210363443 -0.5212387154462249 -1.4473184495725204 -1.1620928632649534
Ni 9.17074943226965 3.1383911083420526 8.13876014134228 0.4557827998352602 -0.5543789496436194 0.7059153990944358
Ni 6.3267949172088365 7.710994320662533 1.7221108924320354 -1.183484698677168 -2.649630565368837 -0.9390432362654989
Ni 9.182857175657228 8.898908938623082 4.181499563297984 1.3142818586981042 -0.4520994374464021 -0.14330274868711448
Ni 5.737300337906409 1.9600045123941219 0.6459556417604024 0.9313150143833058 1.1940660737374404 -0.43536926917591473
Ni 1.4849591777412872 3.9488284668639593 6.724532404482411 0.7915495894254884 -0.051688429513227115 -1.0784944724170071
Ni 7.292203859058507 3.741932929584032 10.815195647249029 0.15109524814833977 -0.18556345712853847 -0.270289790933341
Ni 8.343299093731142 7.637830033053781 5.967136565340433 -0.16025788848421432 -1.2674235035836687 1.5717341315471447
Ni 5.446290819736429 1.0828145095347999 5.61791290398249 -0.9883294840951364 -3.1305564401286277 -1.0921586001676609
Ni 5.071365036548203 5.798017940633064 0.2618257139876541 0.6377073746596308 1.61386525638924 0.7264937374664199
Ni 8.800710055627421 2.1842802163097153 12.389311502115504 2.86485555411755 -0.6397822549107884 -1.3060427586177634
Ni 4.395788732679205 2.406098594390038 4.198077568396618 -0.9723932724808544 1.8176058986474373 -1.448603229822215
Ni 4.303907342539737 7.447250762718387 6.0538801673254685 -0.1914487122647219 -0.9242311109533308 -1.153776115869142
Ni 8.03731024451168 7.415324356942904 10.47108529493758 1.0431446321628037 0.5100736999683408 -0.02680760711114738
Ni 4.62316198525305 6.547182208978964 11.3820028010141 1.449121049998898 -1.7001270530019623 -1.1024152448986626
Ni 7.378398564123251 5.629752318686903 12.621336726701639 -0.06742949439756774 1.3129744527405904 -0.02317515256488267
Ni 3.5834495357713796 2.3445618830516257 11.030919668957052 -1.006877165190337 1.1343784280688205 -0.37744977115131123
Ni 3.5750701488235235 5.119871330430623 1.8991409765239922 -0.03854649281463039 0.24644769420842072 1.7869040986882065
Ni 7.938216932572147 5.87459988831156 2.8345046378927665 -1.2729686017716142 -2.5999553096308965 0.4032371645280604
Ni 1.2969407986978214 3.8267718686706953 12.138724523183644 0.4541336942676114 -1.237223840071837 -1.1485660324231122
P 9.20902157602587 4.879938412476508 10.967614812822228 -1.3062584741729957 -0.7705475332525246 -3.126104060784229
P 0.9989076595580664 7.944656820968028 11.354071197353196 -0.2469727134739553 -0.19276228886982286 1.414266661323874
P 0.302307567987313 0.8124710074890273 0.46800288360002984 2.1617385437038577 1.3768969624261642 -0.4314051423218441
P 9.206197063571537 5.3750095404305664 7.034965153296691 0.16982033536166882 0.18508034684453287 0.19009374089872422
P 6.2934280100816435 6.588194129815887 9.652312800162935 -2.130615854157124 0.08781628558403586 -0.4722394027293867
P 0.49351576309587275 1.614161792444015 6.53909751283051 0.39483814183108773 0.8329024413406624 -0.04148423528671565
P 3.222166147737583 3.4788107643798387 13.13700702398515 1.3291508053901366 -0.8946917067333171 0.7364071399253898
P 6.418987003718281 1.9398469085116952 2.7606718823364895 0.1513130205861007 -1.227150772106551 0.970619211299567
