# total energy = -340876.64347728 ev
CRYSTAL
PRIMVEC
9.21194770459578 0.00000000000000 0.00000000000000
0.00000000000000 9.21194770459578 0.00000000000000
0.00000000000000 0.00000000000000 13.48261662362089
PRIMCOORD
 96 1
Ni 3.522086808697741 6.903175548420234 6.615178747845244 -1.9314540895188608 -0.7721233623800767 -0.20258724538004466
Ni 8.746983695399976 5.679119595772636 7.88412175724808 -0.545904336513705 -0.22994455434707498 -0.27408576764066345
Ni 7.235791338077186 5.781538028470063 1.1159869113320198 -0.1439028441649586 -0.20289217821497318 -0.5422351151922339
Ni 2.703955324192985 9.274496659061198 4.897897621457553 -0.1337906954316212 -0.2279295807995752 -0.12924164260835805
Ni 3.875180757725657 5.827164804612386 12.210787433236648 0.3960555591779566 0.27651340324554957 0.19571365818866293
Ni 0.30479478690560285 4.109993300400365 9.94016672707778 -0.5959927685296639 0.18872077181059754 -3.2136400961236853
Ni 1.5562479927179258 3.4683074589866796 2.5869635904947192 0.4846953691045524 1.2891912342780636 1.2778367284971928
Ni 0.2559926524478624 3.041278419040474 0.5796608774637808 -0.4141306715121126 -0.4754306559731748 0.031183624691655972
Ni 6.964388939792279 4.508898264521312 9.631940489715278 -0.13487852917916127 -2.4918507061114696 -0.24461038388936582
Ni 6.134152956226144 7.730178138401479 11.756086624089164 -0.15405921587267016 -0.47872938132910464 0.7500036476629018
Ni 1.3260137879682594 1.201643284294221 2.212915224408264 0.7592639899189053 -0.7889985408688606 -1.2543394167062012
Ni 5.058160636313367 1.937770011839767 10.293560064400593 0.1359409090054046 0.8044935511806662 0.1387431543408901
Ni 5.185359207880742 6.33069906883923 5.129286083233391 0.3501672812862744 1.874249872393727 -0.021437601048485664
Ni 7.828027445121399 2.027964190157855 5.1086577691176025 -1.3264930560523154 -0.05329948275408885 0.5868039029415443
Ni 0.27063780663947684 0.5604733119425116 4.173679178490885 0.8008739521502078 -0.1524759305459503 1.8656317917074128
Ni 6.268969808405208 4.885261593023387 12.00814393254995 -1.0443900745341304 1.848056758938127 0.10137294122254799
Ni 1.9264853761090286 8.144706565542288 10.792524281455176 -0.14837810632749285 -0.5606519271365248 -0.13208322582221121
Ni 6.592226259366298 0.714647229477495 6.912011648496089 -0.6714042526914437 1.9421341949405264 0.43895621519622463
Ni 3.8747662200865687 3.2533006035128587 12.308698460005056 0.015219645163231854 0.0008610624487146461 0.09422373177227643
Ni 8.91748763233078 7.366094335963955 12.297089563721075 0.03711695945695543 0.2670975092482884 -0.5892176545893595
Ni 8.062793928058431 7.174034441800557 3.1561053450679455 -0.5142789962989401 1.8636625837961838 -1.8308041425052664
Ni 3.426457581333828 0.9343770504526625 12.036066266724188 -0.021269450901737562 0.014694368787381144 -0.7423366180359473
Ni 8.500324588194875 6.6745994942269204 5.361322144920962 0.7722583452960442 -1.3607661183025725 0.6081795404038429
Ni 5.4143129519230015 7.933062070918851 7.52723709180939 -0.3888690687318464 -0.18851251245453343 -0.18311962357373623
P 8.73252093776956 0.5552657980008086 6.479637836589904 0.9291072080987095 0.15355707942527103 -0.14881596519585982
P 4.520947491897479 4.300063413896139 10.672043983225294 0.07340036726902198 -0.5278886166625747 -1.3298195493223872
P 3.210161053205065 4.969560124918885 2.5644477483289476 0.2741076220175344 -0.34174897531559206 -0.5859929770044746
P 1.5839114711664213 1.7139381106271316 13.02548838847926 0.7349894336422568 0.24332997451504543 -0.042136267048417754
P 6.681563726563605 7.907784486881997 4.811231619045483 0.06268272374120172 0.07313117276803534 0.4841873191198823
P 6.656940190801757 6.3127910428306135 8.464130846328695 0.29720821259073976 0.9848081012054395 -1.0442270665937048
P 1.8715821687986611 2.334141690388506 4.59111397507908 0.8897119941305388 -0.9694871545776529 -1.5539210146251237
P 1.9181301396945145 6.58636746073385 12.50065057438229 -1.498796305736838 -0.042263793765217536 0.5584826873993479
Ni 2.7759006344436514 6.787731421907898 1.1690532563038487 0.5757149921172343 -0.042372294318623806 -0.6103562363401874
Ni 0.9926610425084839 1.2082482506770285 10.980606456672833 1.5228744297319645 -0.8342389007638987 0.18203847469441553
Ni 2.1284573258204054 4.6224263059463055 0.46479710364616833 -0.12288638981429159 0.3151653112897927 -0.7506207124216105
Ni 7.241078995962446 0.3758502230243591 3.458736245497507 -1.2891012456674185 0.18647774141269174 -0.4935193951540855
Ni 3.499618868659153 4.675883237493632 8.577276591930975 1.0187458916034648 2.482047089757487 -1.118165308644068
Ni 2.645827935245264 4.914859580454294 4.7493733913459675 1.1396044523544502 -0.883736236163078 0.4784185349569051
Ni 8.227512761937069 2.1246251556457216 10.477044556603383 -2.496456323204281 0.9083746035370485 0.17760460729277802
Ni 3.739599313901163 2.164733975214403 3.2943287754455626 -0.32625293656252197 0.1463338222039544 -0.2040967400460356
Ni 3.8016878402890613 2.2923286605257953 5.61649401284343 -0.06046720414712166 1.073480049921551 0.9917932742740209
Ni 7.763866230538059 6.5804533904161895 10.280117069362335 0.2980250520650803 0.3202674084030484 0.9803135557691955
Ni 2.673307174743054 0.7644875504224633 9.154305615983922 0.16169282115852798 -0.2737201567711286 -0.7247898674014356
Ni 1.7164898200944088 5.009659732540031 6.961330573210561 -0.3674651491347736 -0.5923081205892251 -0.07865698768227097
Ni 8.462933293149108 2.4873271659529523 2.911193744310291 -0.026118294353606634 0.524922077835083 -0.9180882312803866
Ni 5.270661842057588 5.967121923516147 2.4486047444883328 0.03301604991470443 -0.9843789840878209 0.968319873742429
Ni 7.4596232392898205 3.2118192037614186 12.78053625515245 0.3921030022881118 -1.6862510663508183 0.4265367584859493
Ni 5.158064207333658 4.273873847053291 4.471105328563004 -0.4694320151875786 -1.7116682208723424 -0.6437250416086204
Ni 2.8931410907253703 3.0116343718718896 9.756790014661153 -1.5111165178650878 -1.412301052957071 1.646292266569694
Ni 2.1436386153585736 5.549553553688691 10.486145039573504 0.6009480556524103 0.6881421342714148 -0.011099966567903465
Ni 5.218310344214498 0.513232602592004 4.896711122615007 0.25039356623004616 0.15027223802641215 0.02864543165083454
Ni 5.195989795336474 6.142674007696293 10.08066919327563 -0.23704465572696595 1.4298701721890859 -0.7392402384988107
Ni 9.269706446342841 7.916066027716228 8.997354296267046 -0.4594296525592282 -0.27304704196350393 -0.349806555512746
Ni 6.101155760154712 3.0958592081871057 6.541805585726607 0.2529870379888353 1.2940999844335905 -0.33613985665893076
Ni 3.6380283803769835 7.708935387385085 9.038799769423099 -0.6754290575801206 -0.02116043612769904 0.48762591248778603
Ni 1.5711805596726411 1.6014049595359492 6.62555969152277 -0.0908113636566178 -0.7949388176126955 -0.0019506959684676083
P 6.598812801854035 2.2139073511578156 8.767570555751856 0.9823912642338306 0.48223610893078234 -0.8263204172477705
P 1.5476900934576352 7.395056699014927 5.114145326264379 -0.1371189884739058 -0.6320584039039695 -0.321382238733782
P 8.920849993181163 4.608193847004273 1.9747043942877849 -0.3005750721804436 0.28140107035515405 0.8252554663183659
P 1.5999771076679783 6.487200845516383 8.590125416353207 0.8898603467829449 -0.18054826330213422 0.1873938254690579
P 8.559981160433455 8.940158235215144 10.666717635160385 -0.4696495305150235 0.5660306749499349 1.9058389600539178
P 8.532326893932495 4.743185726186508 11.71113508370118 -0.4634691127359244 1.041609940685832 0.10038949426335614
P 1.3010401982000706 3.017990615671244 8.174240990535202 1.3632809143046263 0.7727982769599143 1.6763970563748742
P 3.211736296233601 9.004144422795314 2.2079269548179012 0.3472197686221762 0.07832660092604575 -0.3865802726976697
Ni 5.235407718840008 8.054908500968217 3.101527319505574 0.1088913610867802 1.6501676903647 0.20957396111052293
Ni 8.992786091484293 0.5865560201939503 13.186282011513107 -0.47894098311927835 -0.8631442709443393 -0.7719495558063737
Ni 1.9384148481672376 8.636302145763388 -0.26890411811333403 -1.5715783226955709 0.24792967807058588 0.6907232647350298
Ni 1.5096723859794663 8.310005752115648 7.254402235682745 0.63569445799466 0.292933753585102 -1.2120936206631125
Ni 0.8696990456125921 5.884850020078413 3.546292122041486 -0.5940279314938093 -1.1670599774622417 -0.42793338172315976
Ni 0.3342776249923194 6.3882553170397625 0.8481145313426388 0.5727862485062135 0.3890539310491429 0.628696172299956
Ni 3.088379106788445 2.494540120873089 0.9155680959750941 0.7567581927779161 -1.0390642914458428 0.32353296652819763
Ni 1.4217074989649199 3.547253849364171 11.70590453989064 0.09895816113346828 -0.5792204341673315 2.383179688565612
Ni 4.558688840949589 2.0429796646403884 7.885618698722566 -1.0262198313830067 -0.16396079125709828 0.9416714179169654
Ni 4.111485635901084 8.376359410212391 0.07464625326801486 2.5312968279222345 0.35067558838126056 0.33919612698675133
Ni 7.374504844063681 5.08028773429315 3.654948885609816 0.40123221828288963 -1.336409029614447 0.6378850378880756
Ni 0.06846687886133794 1.1180909201490814 8.683357694968436 0.14303792506150204 -0.3976036203913669 -1.0328075119028535
Ni 5.173485007507745 1.0359940437145188 1.7690946464947197 -0.26430426277386737 -1.0486038555051618 0.9126135813190606
Ni 6.709604894861047 0.009612667253081932 9.288174558761604 0.2724310056460598 0.09317112213804599 1.253724923050654
Ni 6.413496053286476 3.5391565474806455 1.9525524240496572 -0.11815838821100295 0.23972554499323875 -1.3404114659056205
Ni 8.666913447423177 3.001519653478134 7.1968045337183035 -1.0466418466827845 0.567414442671339 0.1359455369910949
Ni 3.151370404034803 6.972394122200451 3.441815740264674 0.5915367896408392 0.36591323126662145 2.191465124234013
Ni 6.780850097099031 8.335808417162015 0.8677138709187358 -0.1186864928003311 -0.6533167990621136 -0.4022079519325976
Ni 1.2192749518767785 8.04755736683505 2.73926287670627 -0.2723829260169438 0.546144477548969 -0.5019305020359163
Ni 7.666210374716381 7.982723680081635 7.076876952340538 1.1601447383996473 -1.0713606895857033 0.6161106223254615
Ni 0.2647375542431194 3.598518337398096 4.759808685513951 -0.13639548004431992 2.311412228914322 0.5857088701051526
Ni 7.3990270484026395 1.5026344580625 0.98278951952966 -0.6600559175581601 0.1776215765736425 0.4247372433833653
Ni 6.618406614261612 0.8891316489383002 12.032965525183807 -0.08072852549931904 0.1388511406736641 0.5976788979828352
Ni 4.6235133157554715 4.628303528473825 0.7503711620193749 -0.6328461899125876 -1.6742239599829554 -0.6546563438091435
P 5.360644145582364 6.566681528850922 0.2139290576121914 0.9377168041445915 0.9066010565763936 -0.47468375050482126
P 4.14198639419045 4.514222770196713 6.5322868803383844 0.031840027328732264 0.15202598749272525 -0.9938884662401528
P 7.670512354215364 4.518469478010485 5.850228757656508 0.5202601535830395 0.39459748657519145 -0.10573173241187597
P 5.343325684216007 2.274807536313661 13.605173217006634 0.7290951796450089 0.9250060414461423 -0.8876900786045034
P 4.802722543107129 9.088866704277436 10.727767053866303 -0.5116960660631122 -1.4525084784138922 -0.5732783576512837
P 6.118833487474946 2.5107070887975347 3.7001961295136856 -0.40060564044248426 -2.2557874404611664 0.9858247153954118
P 8.618891564921677 8.996839348399824 1.921529348335039 0.8669901270529907 0.3178659980504074 -0.6406420318079225
P 3.8400924495637128 0.28991933402560605 6.816972906969189 -0.11624163080426432 -0.7434830729355647 0.5466435286725747
