# total energy = -340864.53467200877 ev
CRYSTAL
PRIMVEC
9.28583940065722 0.00000000000000 0.00000000000000
0.00000000000000 9.28583940065722 0.00000000000000
0.00000000000000 0.00000000000000 13.59076458989115
PRIMCOORD
 96 1
Ni 1.2789757756545141 2.278299218118884 1.01022037475945 1.5971394589941268 2.039185625969585 -0.4121108128686064
Ni 4.6796079480510855 7.755319321182934 0.7925668041211265 1.4802501673035346 -1.0028446469921761 -0.9187842289061467
Ni 1.7988806263313304 5.903825129973952 8.454230079769378 -1.1278498829216834 0.3137815435683886 1.1093371688294766
Ni -0.08165224120758327 5.647777400016952 6.682307173204428 1.253099887872145 0.39069120954224973 -0.9945530964073453
Ni 8.802232689520578 3.1213698444526075 5.613461581272623 1.62197888663531 1.5483216661604753 -0.08987985298128393
Ni 0.5999478559519432 2.7141022232085326 9.00624629096568 0.8142483165745847 -2.658826372935492 -1.5045211240357572
Ni 6.106897147324705 7.662581645144616 3.4779033546720544 0.390137908141941 1.8073004029563713 0.383799624628739
Ni 5.395462577416253 0.8112044119689794 0.3288570664993905 0.09627032988866002 -0.10383348694789858 1.1773335914741079
Ni 7.567968229588952 6.989024013311694 7.524295999271959 -1.367017498528923 -2.647108056057299 2.093033525027976
Ni 2.969147082532497 5.708395358280508 6.512925109036275 0.004808734242553008 1.5704151556254051 -0.39722335423381266
Ni 8.302097390489457 4.1171646680229586 7.9217847032600055 -1.118925326738544 -1.4757036855834327 0.338331722103927
Ni 1.4962179836165088 6.124623814347549 11.317831528262191 1.0074667191452198 0.3463710474686357 0.022240813676071374
Ni 5.9202239219919415 5.982364757883444 9.311331609126421 -0.6572091921379842 0.0025322795035504775 -1.9872439427949713
Ni 1.9224751460139184 3.8888908830975595 12.73402972120156 0.06822833614977927 -0.23873078518013724 0.353885610678126
Ni 4.190429939269812 2.545350667521705 1.9981417352765434 -0.24146078251679062 -1.5651719049485946 -0.7224900156236653
Ni 8.224291343876356 6.383596583650908 2.2463355024425953 -1.0799618009911531 -0.2526404532826939 0.4755985490096068
Ni 3.1338685840087876 1.8486434385761832 8.894149497374075 0.30603969483944066 1.6520883044261807 1.3560435160159228
Ni 2.288114350147772 3.9394615633523586 10.469549688972355 1.2097217779968263 1.084782362308248 -1.8137096489168247
Ni 3.723212940184206 8.489513482957804 4.856279395987144 -0.06662936709377557 -1.4068850241478223 0.10131483429110294
Ni 0.902214921917067 7.824545252380056 1.8834894787385332 -1.096367753153002 0.1983734644090132 -0.9582257227312205
Ni 8.137394460691556 7.260504808010427 5.083869743147807 -0.06038724283880568 -0.062405558820415104 -1.2283489061797104
Ni 6.505593938991993 3.0271000049471497 0.9122213422333673 2.2073378296002115 0.16782335953629807 1.8032246902251006
Ni 8.991134516260088 4.3114244239778605 3.2212696882618626 3.5769608840727813 1.0897440771888973 0.050422418316609936
Ni 2.3165754472797877 6.792247794935005 0.22766834820989915 0.7579876943096429 0.1448739498289763 -0.48616604011280795
P 6.591664382488454 1.9436932885740021 12.483402135582555 0.8763527992148133 0.49122802801674764 -1.1875156742134323
P 8.289255074883071 8.414753191600589 2.9372771538320754 -0.7839563504592627 0.7706706890939501 0.27774007656379907
P 8.139242342691318 5.819760427743564 9.258803473969362 -0.7521129806964209 1.4000957691401306 -0.4056545157203013
P 9.205971691870634 0.5938879172934265 7.871593813828273 -2.0665735310642344 3.7347281449246577 1.1894519720041967
P 3.5103629341613445 5.75491741264638 9.719774817612556 0.6348763329687389 0.40338474584951817 1.2279791815451173
P 1.7521728551815619 1.669566029704755 4.221168852756309 -1.0698761346203767 -1.3917317134461515 1.4353702760717086
P 8.591276994693452 3.0053061403569896 1.6284046903060314 -1.0188767607543743 0.5212392296668571 -1.3543496732532674
P 0.6824330369352987 2.658424331396602 11.295854732639894 0.023524308374185295 -1.00507585031554 0.7577866340424304
Ni 8.720062298485924 0.8495474991720855 5.787205204110567 -0.4639432241588655 0.09363314937612907 -0.46076739753404516
Ni 1.773028850013049 9.378140436381141 8.466610889167786 1.3584076453727252 -1.8669859917424623 0.5283892104480772
Ni 1.6429063853765271 -0.11420282192098254 13.016921883686765 -4.839490807009575 0.19376938997809856 1.4777104316008163
Ni 9.2891820968951 4.409417885000426 10.231766276127574 -0.3769149816937638 0.697931866668327 1.1426897761479933
Ni 6.269018613826456 1.5219490440252579 3.064024215921293 -0.4172273081595653 -0.9170559333611302 0.03880643134423639
Ni 8.872730780687384 0.9077752824269042 0.8893568203840482 -1.3116012265421475 -1.2809310511518004 0.2238027031153952
Ni 2.313074685903354 0.7659526604049532 2.3455890518438935 0.706573344393409 -1.3330172303240786 0.18988908108708585
Ni 5.294943368132706 5.849233681347812 2.4778816171002367 -0.413491752376533 -1.3327994578863176 -1.146650046347322
Ni 5.858213087849168 4.89665515338999 7.0291843392452185 -0.16828358700216825 -0.004525912894811561 -0.4643237474267358
Ni 3.5927283278190876 8.937406650679062 12.653164919157692 3.3384537848676765 0.20468886510407974 -0.8281939801213996
Ni 3.08454220620609 7.520331874519705 2.399571349418857 0.08714779876210152 -0.43390888258030436 1.1487349539008087
Ni 6.483753645205859 1.8925468862891264 7.688023915954408 1.398821016192765 0.2451436306850165 0.8158030626562143
Ni 7.0391118299283635 7.865012939590929 10.717336736381675 -0.6015198689954802 2.103275257360642 -2.689225811162956
Ni 0.7599697942117534 8.918807114771909 4.0988789934805885 0.4505182090022112 0.00797479067536046 0.5202172161602461
Ni 4.5961189678507735 8.090705261220178 10.73999232684911 0.37796964821052326 -1.0514765490672666 -0.4502032488649537
Ni 6.801821495144828 4.152683002943011 12.230559877315594 0.31960046424301086 -0.6286817741222528 1.4040966627694076
Ni 6.948027033266717 8.828975906401558 6.686153367798909 0.03284892820922084 1.6113165218254573 -0.7760247543170119
Ni 2.496702155980227 3.4910576744753863 3.706133496153238 -0.5328652439415597 0.8974939520688027 -1.7361083561925776
Ni 0.08757474944601713 8.169282032486448 6.990980539630035 2.4379197604209693 -3.0667786835510347 -1.85176634657923
Ni 5.452598345981766 1.283739411161439 10.072564277468665 0.8466974382422258 0.9876208880638863 0.6841466399587764
Ni 0.13830236038320798 7.912352147805942 9.576758965254074 -0.869869762593631 -1.3746940412375743 -0.34018214504910443
Ni 5.044355711622239 7.466641152295459 7.361043517556283 0.21461897973359811 -1.8692441916490194 -1.2337857609245655
Ni 3.1735748324056883 3.8816850718824063 7.802171951424142 0.5525892047330483 0.14071827578938992 0.694544695363649
Ni 7.309524753119697 8.350838760422885 0.7368396973614634 1.364188256610244 0.2696562711144001 3.696435677102363
P 3.2445650730498192 1.6430642446428383 13.756028254395675 -0.7734173986011519 -0.012242564812778916 -0.7942731590042386
P 7.654001529728635 5.057328028977353 5.065441066681837 0.14376374748393306 -0.1498138103327549 0.555099886970044
P 4.471205859002525 -0.06570845531013747 2.3694954448508674 0.7449023218805946 0.8266508040039957 1.0694871267120742
P 0.3843993850590774 7.122897956982908 13.061322123796629 -0.47627757735450227 0.7219567688280147 -0.09099596886359812
P 5.5181192273401685 5.209652935128606 0.32184532932340837 -0.29140214743192394 0.08516265001127268 -0.4463990446275151
P 2.9082134057363183 7.958837058815036 7.0633515845624295 -0.12020910009244459 0.6176314298453621 0.9671988727641085
P 5.768966887348089 0.675726803868825 5.4725926149359765 0.14690486421607601 1.408670141072703 -0.778234360373821
P 4.667118494334099 3.8998110299906266 3.463769378833672 1.846405339377633 0.778210449114421 -0.8193722680647115
Ni 4.101870890869148 1.4635225438116708 4.439178071035792 -0.8834788687366333 1.2833586867566866 -1.8883315472977737
Ni 8.770948697273347 1.8841803451746253 3.377264358062894 0.6827266196827984 -1.5719994693933894 1.0408296108763817
Ni 0.7628214754284717 0.4881565664698463 10.800226779953922 1.7506399741498497 1.1233016014293689 0.600429721255095
Ni 1.1539976659319031 5.059695917972023 4.841642127664405 0.6657455117437696 0.33481085343486205 0.34666980965597716
Ni 0.5522037851480368 5.148802830885181 0.7913178587494278 -0.3468384740233575 0.06409117405295414 -0.1560065694070281
Ni 3.4036964993308496 2.144072412558267 11.424532320697708 -0.35032360435848053 -1.0856925328273432 0.6696839275662273
Ni 7.562638157891146 6.229720942354126 13.477594223307886 -0.19742215623933743 -1.006953526954227 0.7162401780592117
Ni 8.283052134300954 9.054157506875093 12.16033664698895 1.05952487329304 0.7614247450156499 1.4134968730373851
Ni 3.7967010715717344 5.693370870463345 12.297739209554186 -0.03983795793254429 0.29757973699754553 0.05076771747117063
Ni 8.469660358759354 6.32175289461364 11.396521586766639 0.3938384969219798 -0.8358466115706508 -0.2223058068548946
Ni 4.076483406510605 3.9685540975496196 5.384796862517123 0.5968191210857012 -1.1213840726916815 2.5827859969404616
Ni 6.921450961491242 3.9668826464945584 3.2768008638145156 -2.8442419916322565 -0.14290577035901195 -1.225280808777348
Ni 1.9093356835532977 1.5388585571989615 6.505926372035166 0.03840713902328869 -0.187801859540754 -0.7216932307539828
Ni 3.221870482057765 4.622630038751884 0.9712653507534076 0.22297583633872567 0.5923983663101862 1.0800708157651917
Ni 5.991084160887347 6.044338448669439 11.441996198471339 -0.4719277850262389 0.8092729748471804 3.058973071463687
Ni 3.429269700473287 5.833902760837221 4.209589411280412 -0.2982487380401122 0.9749579478842371 -1.3988822084480037
Ni 6.565664032743056 3.0028175354527873 5.311542734277303 -1.753247844086342 -1.0162136120999141 0.8740673456147463
Ni 4.42458166040551 1.933246719479869 6.710113618673213 -0.8051538104724844 0.16253640010574588 0.6884357542524338
Ni 4.792885900388266 3.0943201948781986 13.193098396393744 -2.3460614435570757 0.8696435055154378 -1.5578612302197945
Ni 4.8225634424548 4.108844556104431 10.874228418248922 -1.66416349042316 -0.685840996942064 -0.6109966981376638
Ni 8.784376020749004 3.455929344801515 13.058413798960823 0.29566837890744563 -0.7608488179075219 -0.22270047119015193
Ni 4.249877881794825 -0.048399651051058264 8.585584775267048 -0.6875515518752675 -0.4611995999754573 -0.6886640682131558
Ni 8.130207221154793 0.8638904063923504 9.722289422866504 -1.963106426316819 -0.010528667445465737 -0.5727199140446524
Ni 6.917290905531979 3.64617761822427 10.059910464397932 0.9118121684636876 -0.7133271181774747 -1.8586530463967343
P 5.17253743586705 6.5975887478947275 5.248902320237122 0.35707017905369476 0.08181893035002039 0.5959122930007157
P 6.234001714222921 8.454162293143257 12.69751130140023 -2.783023768251723 -0.9310180519681772 -2.8044379722614408
P 1.259326939918349 3.5298910539879773 6.900588466572319 -0.815022218626132 1.5663175885172638 0.24497985141364262
P 5.075128982713756 3.290409261154473 8.852834013044719 0.5614885641052072 -0.9017355009539761 -1.0945857215519148
P 2.905845516741648 0.2034007360582481 10.525557228075701 0.6758306638939136 -0.43784009931391044 -0.6478981991497035
P 1.7769939033492224 7.203471183676058 5.224901211670362 -0.7935388519413752 0.11297067336247642 -0.012643399795623388
P 6.321140029226784 8.755775636029067 8.765907415174498 0.21907470151210656 0.26926314944103946 0.9815960220260449
P 1.656092277033122 5.594393110486132 2.53335893478556 0.4805250397769466 0.13136820203305763 0.7960593043703839
