# total energy = -381159.7289172597 ev
CRYSTAL
PRIMVEC
9.29765180340399 0.00000000000000 0.00000000000000
0.00000000000000 9.29765180340399 0.00000000000000
0.00000000000000 0.00000000000000 13.60805323533795
PRIMCOORD
 96 1
Ni 7.963587715512725 1.9463518780618256 6.97336546127273 5.051337623314676 -1.6564154710466246 0.6976937825155919
Ni 6.240184235181098 4.027240780818425 11.66897353596805 1.6017651306915963 -0.018287485455278182 -0.4124622826707542
Ni 8.568818373598855 5.460306481596236 13.057145523978843 0.6840782486146864 0.9905185213266555 -0.861630148292658
Ni 0.9477654560667927 8.494269799721682 2.7009669813496475 -0.3349913448767844 0.5448455562318875 1.1007967354586332
Ni 7.193807212018983 0.19869919150307863 1.3841293689135392 0.36453769107533346 0.0673194511822647 0.6304653483852368
Ni 4.275237053084058 8.64973583910809 3.004481393342816 -0.4329043525751899 1.5922484494504128 0.3386626230807845
Ni 6.260657664923869 6.26037873536334 12.97940227686842 1.486397417851853 -0.6685680687942293 0.7331732063691244
Ni 3.1983736987527918 2.769733345437071 6.337352136886706 -0.3794922555026367 2.1095700892304183 0.19914916623277315
Ni 0.4062990252826124 3.9851410124827007 2.4206278967755663 1.3413877137759607 0.8257030953787458 -2.1066446880535072
Ni 4.583342645643521 5.854601308358916 10.792152883856406 1.5435748955041093 0.6407127371448579 1.5474626605942898
Ni 4.183227488717819 4.263085021897045 8.616075549508746 0.06834943510867583 -0.51790579441825 -1.5217775971233598
Ni 8.967985170018762 5.294315500125896 4.013559285874517 -0.8202287025277357 0.7641470290428195 0.1427630741335606
Ni 4.525873858522692 0.8833541121844164 6.420579139157114 2.3345603848960117 -1.5200973812074596 0.38362247562092644
Ni 7.8685564142407625 7.755562049270784 6.908481796667859 -0.37565951202010783 1.2923935432654452 -0.16990800997946867
Ni 1.7656520110996323 3.806328568880082 13.222060767110746 -2.808271487074918 2.84100214453872 0.787665938100366
Ni 3.21019101446717 3.371970159573533 1.533627245469845 -1.1479350837073325 2.191943349422012 -0.38008772299479054
Ni 0.3074101281885456 9.369522867703157 0.6914645210190331 -0.7061218586782871 -0.8420997915692141 -0.33671706931863943
Ni 2.8293684854780032 5.808587228523779 9.555329934918621 -5.298061711112934 -0.8647869487540849 1.3084500825076757
Ni 6.595745043638427 8.826233167358323 12.879519460773674 -4.057840736085986 0.9996083994430657 0.7499278001196439
Ni 4.853523115623164 4.390862653575019 -0.11851252144242831 -1.8826082716607513 -0.8158123186275951 -0.0945122095469727
Ni 2.3061245228831306 5.760806594805295 11.942304980216461 -0.9951053693663894 0.36212908163384083 -0.6875034722461515
Ni 4.489947731126658 6.498221971625747 8.437184075863978 2.064853977269966 2.0813064663990346 -0.9663496373899356
Ni 4.2257363537423185 2.088996455315953 8.471748097239432 -0.6178638575711424 -0.21081426127552724 1.3663071027254599
Ni 0.0200578246975837 5.996483478147599 7.6501480599907605 1.0690754930959523 -0.5460825139627822 0.8417997438302922
P 8.308028532156994 5.9677723287172295 1.4826519385181125 0.48396851824085685 0.14733346711306242 0.6793962697579847
Ni 7.756054824827717 7.324476413474432 3.2209446787907345 1.2446005921518823 -0.4917805580861079 -2.3671154360138975
P 2.3681026712324993 5.4645648062203005 7.487573035871691 0.17781903729642923 0.18585039224133798 -0.9286598361486458
Ni 6.530484824126843 5.878989049601099 4.937287522180189 2.9269577227649335 -1.419563133836123 0.9720153203161453
P 2.3634352499196605 0.9562356170548327 3.1523326557268034 -1.6413464925286443 -0.6956117031755826 -2.0632799479146273
P 6.144660158352203 4.511146377726802 9.430680033379371 1.068460485219773 -0.18171580124767417 1.5279104494939753
P 3.569535967295665 5.9916394014464265 1.7579972541935365 -0.016221346954868838 0.3248342018381244 0.06308612982720747
Ni 6.58901354357768 1.594919227100314 5.072510713593863 -0.6218855771360258 -1.0330371114151564 0.6308692686918748
Ni 8.504794741805613 2.6392779899780265 0.8212402181155906 1.3058946630756736 -2.104485732728975 -0.09659248911476913
Ni 4.240965907747158 9.692616275315004 13.102296781706748 0.25870825674332865 -2.0443358027119567 -0.14402291468259068
Ni 6.575076363203287 2.2354344745932644 9.574816883782324 -0.024048813419087618 0.6329536620247292 -0.5594311673555462
Ni -0.3785436744796518 0.3470590354524291 8.533515188888002 -1.0369762985685624 0.4073753550661501 -0.7230204342058387
Ni 1.4619721009005509 3.742026007526311 8.380574391789576 0.030702057069547123 -0.568712335547156 0.1955989869876696
Ni 0.8705726299558119 1.5619125624378092 12.65663242754679 0.313706210245763 0.3373608735502254 -1.3262811971518254
Ni 8.718519868734347 0.27639688011861546 5.481011422874245 -1.1482847537372676 -1.0996271406305642 -0.4415427449764782
Ni 2.494076558419057 0.7364493507758214 7.3567727375227925 -0.6658342148028339 -0.9723125398415899 -0.8778568945641655
Ni 1.7056635602820318 3.782610258583166 10.812333437560621 -0.07717988891611223 -0.41667374964894044 -0.1427263073583542
Ni 9.228867987980797 2.231957152738679 10.180919661627708 -0.22144217330301863 -0.23873078518013724 -0.598222686301447
Ni 4.163060881491629 1.2833363126862667 1.5889306094357734 -0.5299722386644808 -0.3616534275490029 0.18244728009706
Ni 6.611030383555373 5.179377925884238 7.46000270834388 0.6375963030030631 0.06223046669513154 -0.4268679165731229
Ni 6.22945474475278 7.372006010588439 11.12646204909709 -0.1269011674006395 0.6490706221912499 -1.4130073349954761
Ni 2.735731832008682 6.402167928631848 5.563258452621997 -0.7489903759070391 0.596946647802501 -0.31347044008587305
Ni 5.5818918770304835 7.430553325343311 6.635300974382134 -0.6316457418465832 0.7176987648826092 1.2633112811875082
Ni 8.462973903030417 8.015384934902814 12.460213950083629 3.4007783539385104 -2.7954889905982694 -1.3010982701282947
Ni 5.321817954793978 3.5116766787900966 2.0774868918833573 0.7091570459601851 -0.6363457184254138 -0.38795272756516413
Ni 0.9766811538415506 1.7407343036924456 5.58656859599534 1.0281448163198617 -1.0749512351504389 1.4187321532943953
Ni 3.7818199581616696 4.348762885239295 3.6302338289622096 -0.1006247502026138 1.383405195858327 0.12565495369836427
Ni 7.2772629365290245 6.922557512057315 8.89566617309541 -0.19212542661677234 0.5249290198136185 1.8100039179304634
Ni 0.5859826588792811 9.26309264505761 10.583636301587935 0.20731653253491394 -1.0162763470170497 0.8455437842537568
Ni 8.785546642129276 3.4449753232157834 12.070602350642217 -0.4248025494036619 -0.4190605047135621 0.27224331511528593
Ni -0.2900235189156204 1.9337163689698975 3.267838316506737 1.3642610188297086 -2.7949495731550313 -0.9353776144884536
Ni 2.7612259938409607 8.34461479284628 1.0502711397957087 0.6909523500267004 -0.3350607646621391 1.4553518613999579
P 0.32390416286778045 6.992373581057526 10.323342024998615 -0.2588555809544703 0.1328311597318293 0.13362948726340856
Ni 1.342311319433948 6.141089859977441 0.5094667018351821 0.4085493207695932 0.6698986146801947 0.8844036945437478
P 7.754901915977534 0.18444775049049053 3.496575432383099 -0.15502517933036528 -0.4141802938031254 -0.08817469736471911
Ni 3.007818320651935 2.2248072583371394 13.001325210560736 3.066125623348068 -1.4000710865497823 -0.8958623300026507
P 8.202239847500662 0.8093950094451592 12.480490269603628 -0.11074178403195765 1.5082625933560605 -0.013978573667279153
P 8.32627052541554 4.954523509490429 6.09794596532014 -1.8238490513436718 1.5441752480922695 0.250371197632543
P 5.013145205461442 3.5962574191942682 5.158963071349178 0.7487931722945685 -2.2742795857280833 0.162552598055662
Ni 1.7188383331909811 6.26827244192629 3.0948387649455267 0.7324620392347128 -0.3907354325166238 0.017974067979917432
Ni 2.211995093856877 8.904472909086488 4.893292892363277 -2.298625361562299 0.143831624607391 0.2200794886275371
Ni 4.725568828556856 5.316350935407626 6.222990087304937 -2.509628856030497 -0.4697490322073652 0.6331513798578322
Ni 4.033144789849606 6.533906360069323 13.182842341135279 -0.9450526756843725 1.532685245174799 1.0164321558686238
Ni 4.495228797472659 9.25632395438879 9.042782920970007 1.5118032595194673 -1.5265457079359646 -0.006225669194737666
Ni 6.12571154354032 2.595402370106939 7.045270712681298 -5.27902680596867 2.9083416503256427 0.9960739039272459
Ni 6.022935298137692 1.601901763765537 3.0038417148840044 0.469906640831152 -0.9615465595743377 -1.5497871949624082
Ni 2.960232937625822 0.701003911989098 10.82662206918128 -0.4624527556562681 0.8714720740837444 0.28597583421003003
Ni 5.4113729390275696 1.0040441437293683 11.184445926139695 -1.500699436296822 0.9779995629240383 0.48978255381947255
Ni 6.1854489577534455 2.106792161277653 13.687388725522743 -0.7977716590758003 -1.269261328123356 -0.9389185377621765
Ni 8.184834642923702 3.1864541088662195 4.882610819960248 -1.054533076505403 0.4488112536134335 0.7560534534014075
Ni 1.8776887179117974 8.379406606696165 12.651366237444016 -0.13274939865130042 -0.3839947713586806 -1.7866744991759036
Ni 6.42384075548489 8.210477567188262 4.734065022970545 -0.2959054346189162 2.5694265449144202 0.29191482540228436
Ni 9.15130697484992 7.264171842488233 5.184885854939469 1.6494488099208044 -0.3748881810717221 -0.5873883146901046
Ni 7.230904843569236 9.356506154878506 10.470621481783517 2.134474565781582 -0.25262579799467466 -0.6847629333865368
Ni 3.853049270268557 1.620357603020487 4.324271940059716 1.6860199241766187 0.9484197923843924 0.05558467924383976
Ni 4.14452136336852 3.6694857264849414 10.904296513666774 -1.2824549439954946 -2.0151761504288648 0.5200020148256463
Ni 6.333607042654013 5.424371056548185 2.6156721812705244 0.775519018325187 0.46070723372007105 -0.7492454293406386
Ni 0.766594198147307 3.9701160068222476 5.840127653463107 2.3187591561976966 1.6110046470119934 2.74707948894663
Ni 1.4835054629733289 1.9590896613259474 1.4004588351520626 0.21993062175449865 -0.6992176753592861 0.4937999025089818
Ni 8.238156677244678 5.164278539007645 10.459544259169741 0.08613735521971617 1.0265219360044577 0.34544133656551473
Ni 5.604764100993797 7.609495936074177 1.2579676691562256 -0.5853268041753854 -0.20085200785649282 0.2865928989687387
Ni 1.8612783621007212 3.142020629874075 4.1816320116315975 1.1438845677870428 0.02555213743749148 -3.0855737047703506
Ni 2.457406618861615 8.062942424972873 8.992991205120116 -0.5827703563021189 0.16887776894274142 0.3788672203241282
Ni 0.9062997875986688 8.246840684229124 7.328753333402532 -0.038856310745565344 -0.3720095739723464 -1.6726653572465837
P 1.7145893062189346 1.573274293203325 9.001087600497048 -0.8398948134980955 0.1768409896538761 2.186057065844564
Ni 7.001736316639256 4.146269321947831 0.49583820350777363 -0.16424284127389135 2.0097128133214484 0.35986342552811573
P 6.407514078541973 -0.13006392430910332 7.843463910975645 0.5736028308702379 0.5185593688418488 0.7989086008937208
Ni 8.294556234383483 3.7282096966281473 8.617177321272832 -0.3079286843320374 0.13391719370715646 -0.9398958140737813
P 7.59798544287638 3.4710087488650836 2.765401569362068 -1.2967924436640892 0.5256371016242366 -0.5960701587348186
P 3.5721765004686654 7.8834326574689335 10.84148157663582 0.49988390391953264 -0.4635958681217758 0.9786014581740952
P 4.069015131333534 8.356711038121185 5.403553613680762 1.4924168845730554 -1.203444686738863 -0.7573351483273086
Ni 4.786505639880253 6.726274780313613 3.962719724642241 -2.1881095774982184 -1.1535046073753101 -0.6226209126401535
