# total energy = -340869.4668169686 ev
CRYSTAL
PRIMVEC
9.26236548197060 0.00000000000000 0.00000000000000
0.00000000000000 9.26236548197060 0.00000000000000
0.00000000000000 0.00000000000000 13.55640813711631
PRIMCOORD
 96 1
Ni 7.601947485445596 9.274499121703753 3.4500514301781537 -0.6863999547693276 -1.9493826489728234 0.3439174437218206
Ni 7.948600773766779 6.204877121598294 9.00038404819279 1.3186411641080644 0.19866657016939981 0.2846015795703227
Ni 0.2550901749321211 5.9569606486862865 7.050417157623456 -0.8089605858130843 0.4206687297409465 -1.0244804800943967
Ni 7.621750422719969 8.815937934341887 11.193512113265964 0.3289546517644012 -0.3777775868043752 -1.3649256489969008
Ni 7.567676733380497 4.591261916526683 5.63473499669518 1.4662299417650424 -0.046044086743256184 0.6182600645682965
Ni 3.843122136580158 3.300699492678454 2.05840510752256 -0.018002607225007704 0.5172637899588769 1.4339736528344982
Ni 4.104154118931133 7.310581256334298 7.930281667433172 -0.17361862606183648 0.7210674242445259 -0.5521773140066104
Ni 8.45296435814538 3.4106345078840365 1.3925003127475941 0.5065327766946179 1.586908782405054 0.14114636446574402
Ni 6.351518890975224 7.138301259466504 2.5270233712607184 0.289334723379934 0.10918806639159259 0.4931512131813895
Ni 5.472205491908178 6.328279616128918 9.5610359534835 -1.2121265307835771 -1.219504825525519 -0.8203338606470325
Ni 9.425660925407108 0.6638402135221791 12.708224706587329 0.28645997293530023 -0.39449952754474643 -0.3134637552176537
Ni 0.5533337103699976 5.415010385421154 13.274095954793898 -0.28568607088375314 -0.49367057601996917 -1.1128017303393094
Ni 1.547231832084972 6.44877372791672 4.340178640876552 -0.5055094776364262 0.834149426373886 1.8454707433785054
Ni 0.3655299890532571 3.8732989231282904 8.280498187732583 1.0775580766456667 0.31096952804089023 0.6757645865426685
Ni 4.838826419552618 8.927225254899229 6.026324650866045 -0.40384831574949803 0.6320470910500599 0.9327818287368194
Ni -0.0985348958429546 8.273404142055108 8.130659049811634 0.7711756537548267 -0.8200366411215878 1.259116012159238
Ni 5.89107744343249 0.13595577838841538 12.527124159127213 -1.6201444045297322 0.5972076147733715 0.19253294646783617
Ni 5.779132494930116 2.095712062973318 6.478363280497034 0.5299976925857776 -1.764153178144936 0.8336272353218288
Ni 4.315567609711099 3.8281356293257445 11.072860541265971 0.0052699901496876984 0.8641297747860602 0.1316127139436959
Ni 0.9037540027087154 6.422570496135054 1.851439404618718 -2.5235223261831377 -0.972758112019441 -0.4322862593752168
Ni 6.849963823848525 6.19343810030089 13.895182941996595 0.3582446589777701 -2.723045587925878 -0.4806415107501529
Ni 3.0225691837566213 7.09305460437515 1.9762395900916727 0.9757891855362807 -0.222256698784514 -0.785296409426925
Ni 7.8323858748044035 8.073309261822047 13.523804695415256 0.6420512534506232 1.3742124736154655 -0.0771444076924865
Ni 2.367469864484127 1.1243770634287704 11.900750213741066 0.13950471509726298 -2.3908965975938954 -1.5400745956603348
P 0.8450769177540128 3.737512646027116 5.78499371976979 -0.3772862489902535 0.5416743575927574 0.8593734910479973
P 2.783646467670346 1.1741808023082392 2.630770200127195 1.291489029173305 -0.663847009169476 1.23780208117281
P 7.981204300055739 0.39051892472796784 6.335587622447664 0.03533492785586818 0.8134656727722893 1.0439725273807376
P 2.553124717022731 5.240692668160302 2.9228561150318613 -0.3810351745097244 -1.719507257300787 -1.6382755669128044
P 5.786440501248863 7.957168461783055 4.463243985305779 1.1310215957814458 -0.4444689174843378 -0.2751003249481068
P 4.934386243621704 0.8776100500657567 8.283317651767344 -0.3375807028705154 -0.43669852951029947 -0.8725503947495876
P 6.430350883090374 9.533660106239283 1.3283232352047145 0.7375795629669362 -0.8411130021759127 0.3007049128900886
P 2.8685730962338294 5.201633273171512 12.055226091792768 0.02461497033520277 0.6126851415836803 -0.9433454631852786
Ni 2.6076893117296223 3.026172243906168 7.056286718592012 -0.3159029607867656 -0.21352214712499357 0.2842030585803234
Ni 8.046957832193613 2.691096912363734 7.100886860576839 -2.4098739100273465 1.5347452130276216 -0.7784266788902852
Ni 5.499473895713489 3.003146003464591 9.099332045533611 0.3150691520315606 0.5876122577754525 -2.538722430962344
Ni 3.994478449957395 1.6942718831750911 10.112579248617232 -1.7836182288480833 -0.725732433820363 0.4370338013625312
Ni 4.8764130984391505 6.572704177276455 11.749677328745774 -0.29100054111813106 -0.061694905906635684 1.3705831043929944
Ni 0.4407867081151291 8.409375666464744 5.912302153799294 0.7419874622266447 -0.12906475071086163 -1.3376099919010835
Ni 2.884800760454925 2.65900281617304 13.361303903961065 0.6717842617386818 1.185075954423688 0.9239624306729763
Ni 6.518093270742448 1.6789704554962959 10.597396463243674 -0.3248971938655759 -0.008473584688649923 1.5120667975934992
Ni 8.225777059050044 6.884540233972583 4.532490355444667 -0.5369509839751592 -0.09501434599437185 -0.29793763455759653
Ni 6.572241059005305 7.883208473880403 8.268635876335347 -0.7996601343477647 2.7988278251635155 -0.564283353241525
Ni 5.15876704599387 8.891416950173912 10.090251390528548 1.6213086000411625 -0.5018623678021421 -0.25051415096831053
Ni 2.3001880420514578 4.7468789179985 9.696423948871487 0.6414678701433275 2.3156095548251217 -1.6138030356927369
Ni 8.659283547942694 0.4996851636034414 1.529081300802062 1.037631415654058 0.8316351445924645 -0.4815786778524415
Ni 0.499270209632491 4.37229033556155 3.5302107192584193 -0.7769423810352748 -0.24893446518601642 0.30549976317557065
Ni 2.564758247994019 5.468102264025789 6.918011643901678 0.8320894585210636 -0.5628594763108049 0.4966178315737512
Ni 4.592151103607291 1.3400605046687395 0.9407682674121065 1.642280060086507 1.0327038964454538 0.028850091462472895
Ni 2.5385364914815067 7.30660770156783 13.0360179664342 -0.37044068682332976 -1.2940282506553908 -0.7766364197590818
Ni 2.725654797756945 4.9968979478615285 0.5546702697005363 0.7190354814161617 0.041599420708341266 1.7810103589115909
Ni 3.223377266127253 7.63922850627317 9.945279625637387 -2.1762310808930776 -0.8275352634914781 0.9872172248675644
Ni 1.8051609220192428 3.3879509749631103 11.30201794548678 -1.1822086601782222 -1.2685745864689764 1.74784132835879
Ni 4.464506445712934 8.573727078530448 2.827812204716835 -1.4567734243378332 -0.18229764189307315 -0.6754843362980882
Ni 2.9137827018634908 -0.0934137340005781 0.8517189599988458 -0.9048851023265512 0.4500165867754443 -0.4445439936966473
Ni 3.725879115055829 1.8872347420324422 5.266040983613426 -0.5328446751162694 -0.12969878475043467 -0.5429246850600907
Ni 7.820993165334115 4.172176930597643 12.62613977173562 0.09212571159266715 -0.3901013984770508 0.7178437751009057
P 4.966406240889015 5.726531521692901 1.3866038909193128 -0.47492749108451116 -0.37088163101549027 -0.0645359748998566
P 0.9172149983779607 8.441090005673093 0.5876405856602458 -0.8290357592964045 -1.3685259647536494 0.7611493798670762
P 2.809460680104246 7.450646746260897 6.170578582436926 -0.2975236869486295 0.4596525672033116 -0.9617185663758275
P 3.8846638455023115 8.556786212171781 11.829646739334867 -0.26629866749607684 1.2302234974946038 0.8670914285175454
P 0.5428626062592965 2.865081184469359 13.332334003627551 0.09147162294843601 -0.022092718133981306 -1.397359086935258
P 5.304204707865811 2.6662367235684026 12.610794810939336 0.4953541343699791 -1.0403300455321438 0.06753362407559982
P 7.79139990780763 3.149593263167638 9.258226998128627 0.002547963232834321 -0.4305818750896004 -1.3004611507649282
P 5.413685867165666 3.1472869341773113 4.375547909480819 -0.20952099638540045 -1.3929157064519238 -0.3693040021157253
Ni 6.717752819800629 2.4155508033949182 2.533570937378237 -0.13778567552362722 -0.5373669884666552 0.436019501165404
Ni 3.9738233750641054 6.445587474211208 4.099973087179191 0.7807694680908489 0.45092650018422337 0.7524752491318459
Ni 8.085211401390602 0.9345448840843931 8.682432051607856 -1.3449785164510126 -0.13335309367357034 1.6266647221467534
Ni 8.784177283306422 2.3679978193132376 10.986045316392739 0.8965698975926366 -0.2540036521788077 0.6920610097098469
Ni 2.4749781399488833 9.066948037305178 4.67664888465169 0.866730702744017 -0.03899592164722316 -1.0072252925583751
Ni 1.5146746176231285 2.6921342972911098 1.812776438870033 -0.649076792838837 0.42599039906417596 0.054330238011448366
Ni 4.79813684824938 4.073162244225776 6.259305559533467 -0.804363453360705 1.0769541245130807 0.14581343092411017
Ni 5.973669955909377 3.716783472210443 0.870549348903804 -0.38181961808423276 1.0866762368968512 -1.1466451612513155
Ni 5.389307321372331 0.9827647584765291 3.714510487735639 0.017821858672769305 1.322810979215038 1.810126559551257
Ni 6.148117346286152 5.05699217472595 3.9971339701241684 -0.3753993163801857 0.9091017115110602 -1.5751089615566485
Ni 2.88253148092629 4.085814635393594 4.625744776759968 -0.1423522118483871 -0.3912892481375648 0.7977896567979292
Ni 5.287828845797947 6.382668225892771 6.164681234372103 0.7623408290720162 0.49103648083123175 -0.7097460856944358
Ni 6.751338156824426 4.399521689905169 10.578377122084087 -0.698921484275106 0.4531376489029293 0.504105398200048
Ni 1.826510674319257 0.6313709915318539 9.171872112816917 0.5726921461305106 -1.6935936227588189 0.21483340973724938
Ni 5.065772897146954 7.814463197710899 0.5963907422753536 -0.7624519007285837 0.2756037469470866 -0.8651759566623873
Ni 2.7427994361549177 0.21879096483938562 7.133639510949108 0.4508226276165075 0.02334253138068238 -0.3944079962722046
Ni -0.12093963156464839 5.0975057610861505 10.756332170246552 0.6504757300688926 -0.6942500469413656 -0.2275323453611565
Ni 0.5343467874893906 1.475457762422148 7.196934811303718 3.0928188163685384 -1.4263493035200208 -0.02445993281457723
Ni 0.16294816370412088 7.269743487184292 11.62680278904426 0.2687715545166016 0.7807111040490876 0.29342611984048816
Ni 7.472385517908678 1.7213828267682112 -0.16769975716611968 -1.2593597527389278 1.2383229866732866 -0.22276834831360987
Ni 0.80171515402624 1.6034266031063107 4.859741766914293 0.6440448868418843 0.44592699008710296 0.03484307582111419
Ni 6.566794788136582 4.802971803000186 7.824189607641592 -0.5177924087688374 -0.6984262898062423 -0.15532342729707443
Ni 7.540649151076185 1.849824048088947 4.753811798517615 -0.2998605626119223 1.4959372390214882 1.466392692595152
Ni 0.6986731911684537 8.301395010363413 3.135719166000527 -0.29479446094292455 1.3916815769345063 0.1784582135423249
P 7.38553231733721 6.726811413184323 6.782217030671623 1.3213217962640211 -1.699452652642757 -1.2608342804019255
P 8.951362979191567 2.040934433861698 3.120088924349215 -0.31145366676616043 0.22856515750104506 -1.0939388319965353
P 4.169574205913779 4.635054380246626 8.495855593709663 0.7399907435115901 0.8766135090753677 -0.7974561847179105
P 2.0559116787506886 2.6200360448384803 9.207159872605462 0.04791225030024651 1.437302202987099 -0.13997934074083634
P 7.940838911542306 5.726031353960059 2.4363577810811443 1.6083348134893138 -1.2757613340254028 -0.0017064411681454485
P 0.39177768018895354 0.06874712864258781 10.512818099620095 -1.3623458040848666 -0.2859570651569527 0.8002903117325959
P 0.9839225541544041 6.430628754053063 9.121958151788915 -0.1774889076505201 0.10343085219284123 0.07250176671415255
P 7.053133809402023 6.553086487310542 10.994274001834532 1.252146008599308 0.757103749042793 1.4546054701522368
