# total energy = -340885.9485353012 ev
CRYSTAL
PRIMVEC
9.06013627365693 0.00000000000000 0.00000000000000

0.00000000000000 9.06013627365693 0.00000000000000

0.00000000000000 0.00000000000000 13.26042524910885

PRIMCOORD
 96 1
Ni 6.381978002784396 2.364786128527113 11.615615462910037 -0.8239727429512004 0.6987448494879256 -0.30911447711002243
Ni 4.701594556717488 0.19453924275596401 6.416401083956481 -0.7487972860596265 2.92475634423824 -0.9903873950654299
Ni 2.806594606254005 1.8086477931093903 4.880168027603829 0.17608611376572256 -0.6503443466973509 0.8352498585269165
Ni 3.7492021079812656 4.603699785947267 5.2490596238281 -0.7974767535432008 0.8963073879598692 -0.842917145264187
Ni 3.495844461538094 3.0238023095807316 2.9871631191138395 0.2584416333455033 -0.1736592494917848 -1.1358174745081921
Ni 5.0738393093195535 4.755937253161708 2.9670994476774064 0.18458309549314017 1.6920782145555566 -1.3690396711652746
Ni 5.740357283080044 3.0852300324703292 0.9976161181762563 -1.2761228311298798 0.5224090816052422 -0.005616574855829036
Ni 5.929668827295108 8.397079117646774 12.4094636836791 -1.0606193919087992 -0.7548056970372355 0.44289514523931467
Ni 2.3683558221581604 5.744751449097957 11.659705709321532 -1.1726518697277224 -1.5822928808995975 0.6436191121583755
Ni 0.728694063893551 7.687208392554909 11.34796635775211 0.0889308588044533 -0.2305353938535384 1.2342778700696355
Ni 0.841095924618171 0.3851672247491789 4.832973778557824 -0.9787292420012111 1.323242667435818 -0.5579216726895552
Ni 8.292760710367892 2.9445532989442555 1.552848439982038 1.2944501686841579 -0.5506580491486065 0.23023508900430023
Ni 1.5467554984417349 1.221396950257615 2.593182193947699 -0.7035435564281497 2.176499504063116 0.16187356971076639
Ni 2.1410460670582916 6.903850903398512 0.5284414993006873 -0.19777388315180133 -0.3387929780110617 0.6469479194212923
Ni 8.129460816951653 4.475299536862994 4.184698388873765 -1.3684935688538171 -1.53319920869674 -0.721865494665789
Ni 7.526544998749418 4.339315953846774 12.972195986164527 0.6781562267032966 -0.289200768905231 -0.7200364118768502
Ni 7.90235038484641 0.3303488711586908 7.19187081860732 0.3753301537051471 -0.8213011096563081 -0.7194532856798705
Ni 6.864493672095795 1.1456723325715892 0.30758980922673373 0.1767653992209343 -1.449399243360949 1.7698769680025905
Ni 1.6114539304704392 7.144741802541375 9.311762373840402 1.686987430296211 -2.2752180383819525 -0.7418337102575998
Ni 0.31320981166160355 5.537808879994522 1.672417774390723 -0.9937640248471465 -0.8458769992234593 -0.43122902175529604
Ni 6.627861036929055 2.290873538064969 7.341555139463311 -1.630243440636947 0.9369794117579348 -1.2661194400602644
Ni 3.5074142553625807 4.45815775932507 0.8868650142525927 0.6182227835724579 -0.20855220471422792 -1.7793391418567548
Ni 6.281528273628502 5.931752658602573 4.896557813843841 -2.085539787754092 0.13235190610256561 -0.9391558505839632
Ni 5.367433020269023 3.347684055577388 9.41573740196036 0.3157690063120626 -0.14595946958367123 -0.03586920309278339
P 0.24610138342513627 6.053647729953109 12.734039436102503 0.012182915219437082 -0.7931531864671825 -0.345217907700799
P 4.18759491439114 6.359037738130051 12.951828800168094 -0.9863916436424753 0.6298552256050637 0.5932684276199653
P 2.5679143803242774 8.739117376426726 1.717105989786099 0.5135937973064574 -0.7140783945212025 -1.8966071570430048
P 6.510921860035834 8.123281804118214 5.88818608805878 0.7260607636940593 -1.5788031225787842 0.06517103738069421
P 4.647759227895956 1.4272251226183634 12.839631698519774 1.1920392731153986 0.5978028251552092 -0.30442941292952735
P 4.081609442066286 6.301904519761053 8.517515507082086 0.9383336117929839 0.505690997519613 0.5408968559967846
P 4.803539208333086 1.3098057585108143 4.022086159788989 -0.04423531566929156 -1.0785723768427942 1.431692055889173
P 0.5864390546554762 5.880571949664027 3.9760588562751638 0.19951246310946283 0.4064399877360742 -1.0828298665675675
Ni 1.152965742147714 7.7256414899734445 2.9760898207486965 -0.19427975395561378 -0.44850683499913724 -0.6790684541049208
Ni 2.1023411655561732 6.8965031330056705 5.198815732964302 0.13587226055099824 -0.6981887198741396 -0.7404396581235506
Ni 6.1246520167209235 5.95635092816677 9.437536995477272 0.042677741374184563 0.8479431377238686 -1.4743165754279188
Ni 8.534865667750756 2.7119886648951295 10.324527039608313 0.5906893540388795 0.2854587853642955 -0.26757444888470694
Ni 2.6163679882908797 5.526456529436902 7.2720439631279765 -0.711744089961071 -0.21618863821356316 -0.16739424241867945
Ni 0.8772975105104961 0.287036890439853 9.092951932434152 -1.7386689178309023 1.2712076532164494 0.3714164204730378
Ni 1.543022722360538 1.345964761763378 11.287486325100602 -1.4633425929149186 1.7200201923814635 1.2530502655811322
Ni 4.303718679033614 7.199401603749774 2.0060101742801626 -0.19194210696137265 -0.1959453145834948 -1.0888249078087378
Ni 6.063541398595506 8.071095420070415 8.054355912576193 -1.1081758015315237 -0.13185208364801165 0.23029782392143563
Ni 6.927570339759126 1.0249278985082166 5.048296973571714 -0.04009583957962127 0.36093840375984937 0.2619473325059166
Ni 0.6556313141994077 7.9593658214458545 6.915417979182162 -0.9505481515813048 -1.3743268877061428 1.054008571460501
Ni 5.084702412526726 4.817908584218469 7.280225266043803 0.8277273248976261 0.06319283060840084 0.46775745569863314
Ni 8.156840548304508 7.926368805698965 9.15934642194441 0.6631034461352322 -1.7059148633283332 -0.07728041904971852
Ni 4.6273014405383295 0.5789617243161275 10.720510254856842 -0.861084560201833 -0.04572784105441802 -1.0671124558323106
Ni 8.497266102855207 7.675874162269528 4.671435175603198 -1.4028828449669646 -0.478134428057583 1.4046977866885164
Ni 7.212855905887097 6.057597949301173 6.8714065559549065 1.616592682622732 1.0326280489021957 2.1242516025019933
Ni 2.4647466103325595 5.400239773157406 2.661194823768883 0.36403555462793435 1.5477603943403668 1.2540661084401563
Ni 3.333550243231109 4.440898200017595 9.492382529476117 -0.3388739677606422 1.2714457373691845 -0.29461628349384744
Ni 1.5186962568799232 3.734261943520359 3.9692565060767113 -1.7105109673394476 -0.610085242066988 1.018653846110291
Ni 0.927821359580384 0.13811996311317623 0.1046255458933307 -0.19812766694679426 0.5532466358113892 0.6382627329424685
Ni 1.0059740937464117 4.106144290677648 8.370457719687113 0.6674550382357086 -1.0594855354146722 0.05462488643373173
Ni 5.44328447986072 3.2179882070280392 4.545249223786508 0.414383410952867 -0.9583776749280528 -0.32803445394297703
Ni 4.3100426540449615 7.068663839546693 6.177952797511411 0.4265804672396911 -1.0409201137076591 0.3758505449849914
Ni 8.173683341350491 7.741532968726889 0.2477032154910479 -0.5281778657682193 -0.17948665480683926 0.23856006393022783
P 0.1514818518620816 6.189296087932912 8.165597169863917 -1.2380617625921 -1.8965889022105593 -0.8544732255329026
P 8.64408560867024 2.0416110731477706 8.114743531839283 0.8589446310406949 0.8501357744998133 2.272195706615861
P 1.7557637785803961 3.503092570433622 10.615208822809004 -1.0113588551107744 0.7104109729719442 -0.031149686129926996
P 3.9677416513175454 6.448551882989818 4.09228681248301 1.0962517964004281 -0.13356083880900224 -0.7001615273297942
P 6.906423982056425 4.405554609015778 10.623841320503576 1.3986824337323716 -0.94437210467758 0.2909840860578988
P 6.3800663140632015 8.185778623069902 10.257429483535187 -0.8709753369529838 -0.8267942715603954 1.2008923526306543
P 2.329578439567087 8.766660190229732 6.104211443621923 3.590304652369539 1.3597736724823164 0.5119053538604409
P 6.995476059974101 4.607939929651152 1.955541592040603 0.13170424521623766 0.3618550020368478 0.21489408777185573
Ni 2.6395619367565684 1.985818754924446 0.11022380400151391 -0.2873637156964922 0.4452662165746525 2.055885198112453
Ni 1.7118492988096174 1.4154016449825337 7.381773989710982 -0.008784945281481644 1.0421668416305665 -2.9380936847770944
Ni 6.74273450278705 1.1540257780736847 9.487184729384413 -0.22181369770982443 -0.1270549193696844 -0.7988078136497986
Ni 2.80866031728923 2.0279121473352233 9.257885368392722 0.9269855337700165 -0.3352407418834291 0.5803537764408262
Ni 6.586718958810815 1.4628133372954044 2.7587788318702087 -1.1483433748893448 0.4922847514160361 -0.7954252703308107
Ni 4.2229022648484795 6.530247130378536 10.754111581682896 0.5085264100858791 2.306753132875756 -0.9242082281351955
Ni 7.22739742435875 6.428103155768311 11.587834367527092 0.5471502931056641 0.3568102405240887 -0.5598078339686746
Ni 7.689065720459388 4.2315003340257995 8.430805474351278 -0.3533611056332237 0.03341534223565213 0.22077882868740686
Ni 3.263107684902699 8.781047686387355 12.714732286032039 0.44067525476986047 -0.6830940303245461 -0.43836486146912895
Ni 0.1660306184426296 5.19099592947964 10.597864098222004 -0.23878529256715653 -0.1531539304495814 -0.23892130392438854
Ni 8.794447627707962 2.630683003359547 6.084280956186446 0.22573128759667577 0.6831307970997526 -1.3121375586615918
Ni 3.697051964477944 3.0097228580511692 11.431692887658798 0.3409226227595548 -0.6373006261395154 0.38602491441483194
Ni 0.8902390089434609 3.7366809998642414 12.820338138653492 0.3629580052930394 0.07495022825464512 -0.4497517631498319
Ni 3.585784432795474 -0.6913943895035534 8.440486229794866 -0.5597682389799908 1.4135158992007784 0.08571440874968464
Ni 5.889106597888511 8.043824410350991 3.689037368066714 -1.1521087554690481 1.4109203705594604 1.3787036766175997
Ni 3.320766391166622 8.609439648149618 3.866514562482606 0.4290664668863384 0.5997931161123605 0.5037521286256873
Ni 4.16028766412724 2.7665578647423335 6.696607537775912 -0.19281731047747439 -1.1353171378330058 0.7039991559083295
Ni 5.184372969976351 4.726926697307357 11.93226087818812 0.32117269382613717 -0.8105209883216685 0.34663741375614493
Ni 8.403085987893943 9.052652446975017 2.2897971938939827 -0.39900821404837733 -0.9014629640188798 -0.41547587268609737
Ni 4.412521853691604 1.0163479496031358 2.0030937164633245 -1.1427383699977416 -1.2882838919724457 -2.5070022170409274
Ni 6.209690454337703 6.117313306464201 0.5055112007960734 -0.80294189042283 0.9537430043695188 1.243358492214665
Ni 8.122176467511647 0.1827248252562538 11.279807859739401 -0.2523365488890299 0.368733474324236 0.4247603833118168
Ni 9.681570855839958 5.210982589759057 5.999984543717847 -0.9635407071862309 -0.8248114368024118 1.1602267565904922
Ni 7.4014426392126085 6.525354656874054 2.967616781449825 0.8226820491642348 -0.8611591221935103 -2.464380011495027
P 8.47388189153101 1.743858759719492 3.4840173598478166 1.9263450504270694 0.8054561722042516 1.8497930249029433
P 1.5923461033946043 3.501199001984665 1.6846571122744332 0.7785986856917753 -0.49360192756556276 -0.23925657577662024
P 4.741223592103787 1.4808883088536269 8.361851496387285 0.7474014341533645 -0.9784165958567989 0.19077199791267146
P 8.402759822993644 1.9672817164241339 12.411571977354086 1.5699724116610316 0.8406167792657846 0.9924964709886326
P 6.3225435098410685 8.186032306881247 1.6085030441363475 1.256844442516242 0.40287566742358355 -1.2022198131928263
P 2.1137750573388687 3.4172930813828124 6.223461861239206 -1.2053498741813757 0.6537921960366354 0.6862379752701666
P 6.713361541487924 4.022836339059675 5.917902428516832 1.984238323199428 0.4762289835047541 2.0637751423834914
P 2.3980821287659433 8.804930205198119 10.39336232978914 2.90654804876033 -0.8513516491847853 0.541509292769803
