# total energy = -340868.9717712825 ev
CRYSTAL
PRIMVEC
9.32003848288837 0.00000000000000 0.00000000000000
0.00000000000000 9.32003848288837 0.00000000000000
0.00000000000000 0.00000000000000 13.64081840363178
PRIMCOORD
 96 1
Ni 4.561963041842279 6.953484877379104 10.739770953119061 0.5370391728135913 -0.9037286201246049 0.24795230377840521
Ni 1.6470558137947722 7.465723504046833 2.570039713721701 -1.9913512800951256 -0.1000771052292599 -1.5936535573280555
Ni 1.5149256303871124 4.505996211669253 10.230613531123304 -1.4816660738144547 -1.118120057228429 0.6110337220231864
Ni 9.292497616963416 1.2454553621451943 1.2056205863179614 -0.7828260935095614 1.7872707379990058 -0.0842005432083195
Ni 1.9191356927691545 1.7085867068509457 13.387180965039159 -0.03712364432517477 0.22942621994975973 0.5065841987578437
Ni 0.1612236150593036 5.696985269812587 1.2218971012578739 0.08615843826563871 -0.13408225853011102 -0.5256846670327204
Ni 8.188641597169395 5.61861306749369 12.574842696161047 1.7068306902743833 -0.27881428346458437 -1.206842142456186
Ni 3.1371342219934935 4.940114277053001 2.3012880204350434 1.1756014392743497 -0.4249611864687133 -0.3892413644696006
Ni 4.10010854238777 3.9615009323406003 9.560931496943013 0.4081104334599617 1.5370280955245272 -0.6690915453978671
Ni 3.0345112799393394 2.119339436140809 6.623558316500487 -0.4022622022093008 2.3247248868628287 0.5367627792237529
Ni 6.458059599859108 3.3061065169205497 3.991698788534376 0.20378872188731356 0.12074800331505012 0.17748145145135238
Ni 0.8724916602690785 8.416460614113518 7.265918658315712 0.8622621254497022 0.06853146921249488 0.08948338887381363
Ni 4.152421917535347 3.789881746527759 0.37719313527037374 -1.4009156939382648 -1.4895202797515508 -0.22958331435291432
Ni 2.763540485526254 4.315224347087791 4.954686156982315 -0.2222232744434173 0.8208876762679734 0.4208199106068301
Ni 0.6331074077609734 2.3130284727196333 5.439398982445545 2.396543254356711 -1.0769597809400355 0.5904623256297379
Ni 5.159498659308267 2.1808516891203222 10.491917581780275 1.3676049956012768 -1.8540147762937746 -1.1202103640985543
Ni 8.59904948504104 3.1726342479933365 13.65063980855808 0.6063232039213945 0.2207214930869102 -0.8676354739464736
Ni -0.2503408895691226 2.812200405648381 3.481669010950911 -0.22735416791207944 -0.05448116176701585 -1.0506162579495002
Ni 6.262842076994126 0.2387914980703025 11.91125783105639 0.27642315752458846 -0.28340473104874414 -0.711046292563098
Ni 3.72202254744536 0.04249191875518117 7.369915374019743 -0.6067654336651357 1.0965392457338599 0.4029083204337319
Ni 0.9187731066093309 1.5612741810033424 7.959622159288338 0.026895795949579488 -0.4872279057184189 0.2745881611983787
Ni 6.495218592681732 9.374467354077783 5.705299676006986 1.201701735905827 -0.4873222652044381 0.10954853505480487
Ni 0.7843511257762675 8.89704839061179 4.661599843615429 0.10965266473283697 0.19716993101921526 0.05670953687690233
Ni 8.214383543037489 5.1455279218512535 3.4049800075544527 0.23780004583575176 0.6380272198928947 0.32848362566525363
P 4.125617487297608 7.604750515818863 8.12492142710945 0.3468909245278477 -3.7935166758177763 1.5541400726144656
P 6.47601931372146 3.626361674023887 7.9076228694324895 -0.12894647996544242 0.563439774294307 -0.4144947397197507
P 6.384226256207032 0.36804924566458586 9.627443950486693 1.1888367070177008 0.3314241963508163 -0.6728522979918798
P 4.882824001437082 5.713202136507187 0.6629072983180484 0.4010882365058577 1.8328515119525983 0.43973037435808787
P 8.870160080029077 4.034327711853011 11.255216604976223 0.2350844466768016 -1.0897250510255039 0.022441359722651672
P 4.352318099642103 3.441265712785534 3.5375146806256446 -0.3986420889582102 -0.5542115708278197 0.06481879624759804
P 0.8801350237036994 7.313909399685729 13.343093455721844 0.3425683858930939 -0.5939263729189385 -0.8462888899498973
P 0.17127527639845583 6.821690215351332 8.735443585984779 0.4785535178728726 0.11285651638211532 -0.5458464866925761
Ni 8.219966245997295 0.13863463815832697 7.376708749958646 -0.5701511248762117 0.9788369712236691 0.4228140582187235
Ni 0.9457602095983426 1.9984958191510567 10.92675888213845 -0.18770724294441865 1.7023114622477908 -0.5262647079059065
Ni 3.011332344612059 6.029505597358506 -0.4031801981465519 -0.5719002463568343 0.5907739433328858 0.8569823651080016
Ni 4.572578565500411 1.0122773231611888 13.325838336757256 -0.5258913837268878 -0.1798052144885226 -0.34234418569742975
Ni 4.957272467618953 7.897297198966429 13.06274763475238 -0.3804847013228931 -0.943726243563465 0.16298402916612575
Ni 6.542517787207646 4.449032137394892 -0.0718183513650805 -1.1026803256345912 -1.5899028320363715 0.7762170728334762
Ni 6.472897100880832 7.845776027076921 7.936869149712749 -0.7338769173043683 0.4405790955116283 -0.23674486509836
Ni 6.9276124509743875 6.7183869104990706 0.5200143346466397 -0.7338473496180137 0.47990437547381226 1.058217981556158
Ni 5.531200427994469 1.5415622999349075 7.433181658213005 0.9623700839168973 0.4462812881027282 1.257250162595093
Ni 7.54242741950462 2.167132592698225 11.130157534649706 0.9495261380746938 -0.2730341864476975 1.0586424706880866
Ni 5.974200489906926 5.019110921940024 2.412706282661435 -0.2686838798988018 0.11884487275506628 -0.7811885579061385
Ni 1.6758547322351807 8.582170895624994 9.694052400425177 1.2898815754768689 0.060628669425650414 -2.1063675231327204
Ni 8.519279276972608 6.727362107411082 5.901904952579337 0.43244566777121657 2.7185129901628473 -0.44429896756537673
Ni 8.130158356647206 8.148276511161171 12.54589652111502 -0.07702048052011251 -3.055564817113086 -0.06943315509115784
Ni 2.77963619172256 8.082943042466264 11.712142668161707 0.5222684422623198 -0.9632632851551282 1.1432944996115277
Ni 3.2675961185400424 -0.4562289243183838 3.7057870406741005 0.20893658463684014 0.5484893236320617 -0.05964805067993598
Ni 0.3673521067974847 7.078466591387477 10.869153589226968 0.6335200760511606 -1.4823263331062728 0.6919044295273244
Ni 4.713189983788579 1.1313314927915372 5.060866557667117 -1.1619457961641277 1.061248540852366 -1.2573488929564862
Ni 6.6147108041136 7.664808842818861 2.863208043425893 0.5994897259393289 -0.33735753111611577 0.6214628877763104
Ni 6.254742963685157 5.912073114397618 9.537537268730304 -0.29502997399249836 -0.7305033728464452 -1.2230022971558163
Ni 1.6358251676068463 6.127403279979235 7.070608867071261 0.3122298828105526 -1.1143418211329195 0.2283838947281744
Ni 2.5139591790810454 8.743146597664714 0.45198457886279736 -0.23233850850054824 -0.25245610518602973 -0.24130240256205537
Ni 0.6713121088842492 3.9657042696275338 7.96342753093857 0.6238319022291191 0.06709910764134251 -0.2750995536171585
Ni 4.959677037508152 3.474193408206234 6.002287357418905 0.6354972543821894 0.22588092580066263 0.09178941129917095
P 1.5691682534690465 3.893017290690076 1.3372978158627724 -0.7809234771702098 -1.1369605869736998 -1.1495098843936205
P 8.211074929430257 0.7409141551344011 13.016219207396377 0.23710379109967553 3.6477621231560597 0.14027193228059068
P 3.3135718676230637 5.20839158038865 11.30706491021112 -0.3919991297203959 -0.3738350572168594 -0.3857595765685873
P 8.811779359928522 7.2759022833750535 3.636887725314048 -0.7831395109849222 1.1276058852316775 -1.305601300204971
P 7.750497275226987 3.4744916494328018 1.9739356541432367 -1.3434530809454217 0.6041321098073467 -1.0379435475778382
P 5.290174916736412 2.818528711674607 12.461405713632328 1.2885697986439806 0.5435522913417606 0.7791458164444969
P 1.4824359767679334 0.25045832205208346 2.212431706998471 1.6089099692664937 1.0584763774238672 0.9340995191069784
P 0.17092577496107225 4.486685092249018 5.790472710295451 0.1967143315390354 0.42547540710097054 0.10726590966821525
Ni 4.132020353630475 7.5261732726567 1.8115414422696563 0.8293851722160233 -0.8137901459912437 -0.007884544954399325
Ni 7.58840316858764 7.716180894095084 10.051591438864763 -0.28380093804589834 0.7373810738028849 -0.2328074777171668
Ni 7.975995602626885 5.4817203444992835 7.648079374016098 0.4288345533811905 -0.2716704733309515 3.8316420219345875
Ni 8.175630823660395 0.41510984720924543 3.1758552532402637 -0.3335962643014706 -1.1113344017651634 0.0610151062307917
Ni 2.1879069581363053 2.417068060599982 3.6130983274761377 1.0329615209822147 -0.8369946091321648 -0.9083715182132549
Ni 9.002280943398407 0.28419686080751333 9.978626722785064 -2.139332922315148 0.8919689084855154 -1.912605846464106
Ni 3.24837819950311 1.871911058549883 9.085630978189482 -1.3966286365271368 -0.25672336510281596 -0.2721157883984862
Ni 3.88626958293899 7.184509987508826 5.803459251704792 -1.2001834994890879 1.2897165106539141 -0.3527774652156118
Ni 5.726622991702717 2.230238572232207 1.877603737961987 1.6365141041370073 0.67073705142109 0.09606721273891843
Ni 8.247180757921564 2.759421028584293 6.6634984087608515 -2.0637522595653555 -0.13120288009978695 0.014991845423141923
Ni 5.245559893249604 5.77269194116904 7.055563529194773 0.18302423564645254 -0.717694394007235 1.8087520478012333
Ni 0.7602215465393041 -0.10953188646835314 11.834132649866076 0.5151791395157063 0.6304234394037078 2.6754773512286114
Ni 6.322508962384254 4.273163014103466 11.101266347829828 0.6841831496236669 0.25004723863422096 0.31192880663036604
Ni 1.3897202354588127 4.072800830080198 12.734289911914608 -0.04049538901088509 0.7984314041469863 0.1984043176469486
Ni 6.686344618719743 9.142118798505166 0.9136592015775341 0.2485205175770494 0.771122174809072 -0.8979922318614599
Ni 2.850654883798907 6.044324458303572 9.302328393394141 0.24283863670092376 1.9751564155028178 -1.6654264162959835
Ni 4.229396114104709 9.160880035663919 9.991190134454213 1.2768882485409945 -0.42735205529839304 -1.2058155009638847
Ni 7.203494905587504 4.893411564980222 5.730712624522021 -1.3242178868648937 -1.5827093996117256 -2.0077194370405036
Ni 8.179181758264212 2.5140430594260175 8.88359677928977 -0.36386251938517983 -0.050585683367351586 1.2049955761657505
Ni 9.011060419505483 8.275988996400303 1.3064251888938878 -0.508732098338782 -1.5505850082733554 0.20059515465068034
Ni 5.121128061502714 5.576999096349216 4.615043456144434 -0.20578801170552943 0.1442687121448096 -1.0668304058155174
Ni 3.637629600365134 1.5386730880525363 1.664316524782357 -2.383854088924817 -0.9497079150681966 1.2435626378056712
Ni 1.0620370078062826 6.270335387811631 4.679973367179642 0.5620068985025225 -1.011954065492612 0.15236383044811824
Ni 3.194200816689487 2.8404867219806267 11.6978475933708 0.0930022006603495 1.6353216264908028 -0.02625302015925801
P 2.917209277515074 6.4268561115295 3.704791660580432 3.246125984566532 0.7222897266874011 3.219430477553217
P 6.3687083923872 7.243822711442405 5.786912455653304 -0.4969219930777313 -1.248160798699315 -0.5978051391480543
P 3.312751704250003 4.1692725468364005 7.312352021280748 -0.7949030792787535 1.3438364324267695 0.8200500108580264
P 7.597788447186181 1.7066574589165884 4.729762875947394 0.6871044370355198 -0.509026232540433 1.6827757062077084
P 2.613702229291159 0.3955228546544356 5.658729308478496 -1.6390538398397256 -1.7035129387550596 -2.069723903767758
P 5.2758779779378395 0.10961017479032707 2.4859571239178715 -1.2743513410517537 0.0557379169922524 1.0247075085035384
P 2.8761824687854047 0.8417523098483165 11.19021772565737 -1.625731668809523 0.23964892611903243 0.5695404878754062
P 6.526785562506219 6.842427300636092 11.778410004697303 -0.4672645752226146 -0.5539547176220073 -0.2877018157622013
