# total energy = -381175.68470076786 ev
CRYSTAL
PRIMVEC
9.15376353933035 0.00000000000000 0.00000000000000
0.00000000000000 9.15376353933035 0.00000000000000
0.00000000000000 0.00000000000000 13.39745821640795
PRIMCOORD
 96 1
Ni 8.390687414757977 3.3575088932152917 2.341192168689561 -2.2444154511787993 0.8549095417393728 -1.254457430341304
Ni 7.922628028633008 3.1392374039197315 10.6567134549363 0.42409960979936634 -0.9429533699531825 0.16003060296475666
Ni 2.627752564021722 0.08181176077077257 9.228972594083064 0.8038926843718737 -0.00833011713225017 -3.2057036148854277
Ni 1.4159132831086851 3.541398847019381 2.0747306917489396 -0.09161843293894543 -0.9180848888462769 0.7808669129006616
Ni 4.755187879545753 5.307223891495736 1.0153812099018682 0.6177923809032586 -0.10602355262068193 0.0601869539025415
Ni 6.895328618728506 7.640692114592192 11.011196605767346 0.5595118999948107 -0.9877170473221182 -0.49700452548920865
Ni 6.572145846614056 -0.05879004571192021 12.838957844450942 -1.1287309999750559 1.1053275334494512 -0.8823121021220418
Ni 4.881793581724276 1.0483072970059206 9.12285209911337 0.6747628847510314 -0.48273464583375575 0.5245024737991612
Ni 2.0342316961485896 8.803210918074972 11.208326563015223 -1.2526167775881394 1.3404549175490463 1.430940522435129
Ni 0.22704171005018733 7.378226255394389 11.90871944983671 -0.215784460796609 1.0080017657130833 -0.7662201095217642
Ni 8.551619729847316 4.542298803154607 6.556876453814981 1.0478001286569438 1.016620874840662 0.41905484828660733
Ni 2.522108980127402 3.168749137259588 4.030290367987665 -0.5279428669392778 -0.21338690709870992 0.9702600281879354
Ni 7.402410498410488 5.369304715165373 1.216610222419468 -1.9230157289435206 -0.7599255347623042 -0.5172967000793415
Ni -0.1674726790692777 3.3880366942973086 13.104107587090198 -0.957748783094802 -0.816628386770987 0.34292422657061583
Ni 6.750040085363056 5.394743023773146 4.600955203920261 0.6693286011093376 -0.45279749195469116 -1.2163773356401308
Ni 6.316417157310215 2.767914989859156 1.056942957437937 0.4644096222723228 1.0717211582489155 -1.4573892035449612
Ni 2.2278337929655785 2.5931238769172933 8.346495790984768 -0.820317148476484 0.5214580305458825 -1.5936885243310488
Ni 2.7004975221023186 4.159653183715186 0.5251147936644631 0.44189370055799376 0.8329806028767655 -1.3758137566643143
Ni 6.296773180961787 4.815913946225843 6.811173494516355 -1.1400245706110046 -0.5597872651433843 1.1815013496985523
Ni 3.1312736297244226 2.0577934832505718 10.355806366160108 -0.23187596704183291 0.8698489366580244 1.7214078167576095
Ni 7.950519545843474 0.7476739057566704 6.179993128462855 -0.09022695190805752 -1.6287396023979113 -0.16133543781910922
Ni 5.018614883905058 6.691831303629759 3.1756126290890627 0.34514000327501204 -0.999623054731085 0.6279909187028152
Ni 3.7987477524526123 1.8440622606226815 5.405431873345401 -0.9593233266707738 -0.08845366205771862 3.730550359397885
Ni 0.7630320900611406 8.959456506281553 2.4723939754927566 0.5155714898581185 1.084922744540854 -1.811918618454673
P 8.781113733123851 6.375797620764201 5.019277616378322 0.8853930550402106 -1.3080772725492893 -0.749667861590038
Ni 3.202819444794001 8.122930680290189 2.543574555400964 0.7578334281199658 0.9824660833358242 -1.2272055366038863
P 2.086398994009583 3.7654372072839584 6.181238955667431 -0.18062796750013407 -2.906728540202252 1.3751342140987863
Ni 3.2311045738325115 7.181109113415333 10.39105476304962 0.18504460851059099 -0.6496056687591134 0.2577173535849691
P 6.522532448753626 1.6396312616527613 7.5209846885442255 -1.0745074627448012 0.223010546231403 -1.5918728112785487
P 4.567023118213837 4.122754363276921 9.746195012907075 -1.370148845069053 -0.7535314583105023 -1.047232429078932
P 4.841617713973459 -0.443945627087381 10.979592322104446 0.241463610730268 1.0207531518414807 0.8017085322363613
Ni 7.05421964457008 0.9583898787064746 10.43288196972553 0.027507718501965532 -0.5528136620390286 0.28066959150576826
Ni 6.2099497347060355 5.347848293655254 10.058878418352535 -0.5247073907211157 1.1118622492441754 1.3204213959369389
Ni 7.11183343167959 7.415573610241355 5.776354267943524 -1.3333298764684909 1.3116444210752574 0.3451729133954765
Ni 7.202876762882511 8.966568980476675 8.28240205473404 -0.9045775983884614 -0.9867312863700813 0.4983222158593676
Ni 0.5383566278609386 5.617252705542763 0.07777312033977231 0.8260013433454549 0.054642112824912346 0.9679691752712297
Ni 7.613816665123886 0.6645714643404511 2.3043363709394784 -0.03827447010016634 -0.39975409107546633 -0.3579872915513254
Ni 4.086203385849488 4.700814524695024 12.185925614306589 0.7437304130596804 -1.4423505640442835 -1.8690482735881293
Ni 4.788168889230462 6.484507715411888 5.988381975194693 0.3931926358078648 0.7205002388871462 -0.4790916497645297
Ni 1.6652617992928354 8.562137404043188 -0.01652803527247071 -1.11321542083796 -0.01307097425134523 2.3689478612369457
Ni 4.792709155898132 8.833811949264533 7.11601944770202 -0.43615345564010694 0.2555529989437986 -1.0100671328825441
Ni 5.069399963486177 7.634861167279076 9.187534422353474 1.2703046817862058 -0.8577601238142905 -1.6803840660470803
Ni 4.612993318223998 2.8746570253666226 7.475312901222302 -0.08894371432025971 0.007829780457063935 -0.5186470434596487
Ni 7.55551634575616 7.315211747853578 2.7526684814686893 -0.302277399583531 -0.329641907639413 0.7851647689450671
Ni 3.23798820394156 7.994210458756359 4.8722535294641025 2.272071522333171 -0.2267471304556998 0.9777938746711353
Ni 8.699956466439245 8.50957649435415 4.300436234714048 -0.1360650932880947 1.0134201085151773 1.178829202183028
Ni 0.4931059136573876 0.3992889921312731 8.106480452006982 1.1774377211521398 -1.3111199160303546 -1.1493407058056075
Ni 2.611614479071918 1.21822860779617 1.2906952914681025 -0.39915245293572543 0.7786549928510074 0.27485452748588796
Ni 1.823969749865552 0.6014846420684414 4.541121629175853 -0.7366992172445119 0.8041983885377505 0.03807161006074088
Ni 4.027253149277317 3.1408759275760074 2.2604861825426887 0.6546272903434209 0.8856568502245586 -1.1258223109686933
Ni 7.37759464571683 2.929909141507868 5.526357665307616 -1.8417153901011312 -0.013582623780441125 0.051228716267989194
Ni 3.847052162140709 9.032155695544935 12.94935314694846 1.071154744222484 0.07131108884016106 -0.33590537205062154
Ni 4.929301613992842 6.87746962625144 12.269405190776654 1.8490335210290996 0.12739713320045154 0.12932546057141597
Ni 1.4486837562342085 7.026245743488628 3.6320641277921113 -1.1500955816937612 -0.1865628449273303 1.1995528078836242
Ni 2.6600470414482156 5.134986678554437 9.740192890217575 0.7601744175483166 -0.6827667288921145 -2.577745863413393
Ni 2.3049267886815445 5.542832608752119 5.34793067752624 0.5831979307578408 2.4327973515927392 -1.544393791860979
P 2.523921425289093 9.293449873022048 6.832690330865197 0.3308888926726366 0.7075187390258137 -0.34145278423141195
Ni 2.9602996361382417 5.363620228067343 2.8479509205220093 0.2239988782866013 -0.011002264647774599 -0.5149528824375132
P 5.552691211980104 8.737926277200327 3.3132852312700325 0.3270646338305399 -0.5932069782544106 -0.8301667875770541
Ni 0.47868965161119015 2.1959054660768 6.144731000928178 2.3959084489861895 0.955618624125677 -0.8393844495205802
P 7.737731160850202 6.287491264830703 12.715567859369902 -2.6917688892997838 1.8629473028967143 1.9416379720303978
P 1.733255954146575 6.905617448838307 1.5280468852840094 -0.220531231452975 -0.6167438850340863 -1.2965247918249994
P 7.13545014136223 1.9841148412988014 12.500230151257785 -0.14432861884846754 0.8295972882268294 -0.13436970786354277
Ni 5.329842840963102 2.5962544640147596 10.996606422215732 0.32783725033050637 -0.18717451036940025 0.9833608272359515
Ni 8.305475030868175 8.195748868478328 0.617891847663466 1.3138769099502017 -0.8042840062730212 0.08201047753553618
Ni 4.0237655654055775 1.249058483071802 3.394004948062069 -0.1989643039154767 -2.015402664617374 -1.2259996892212435
Ni 8.056419435114195 5.255569204387544 8.804715796784981 1.4742168166252612 -0.6235053721276359 -0.3277624312285129
Ni 1.2409299411345212 5.604821894787326 7.67110274750214 -0.6337375913786053 -1.4938554167917948 0.3353471855543063
Ni 3.587369047029543 5.017424894657483 7.228169526651542 0.5737077318792184 -1.3858821966439099 1.3061468882957956
Ni 2.769306361902475 7.206858649980164 7.562610512424395 1.3930668873178074 1.345135353743851 1.0038000689269098
Ni 4.775371927937312 3.9918280847533567 4.924074815066955 -0.008214931710624561 0.34526598732991504 -0.14166624152495602
Ni 0.39018740514001393 4.137116618118807 4.542086435842733 -0.286345558844623 0.5217246539437079 -0.9399076411483233
Ni 8.657821693311652 1.8959457918169462 3.899933453550248 1.5402733419347021 -1.7240262282170633 1.9407041473622189
Ni 1.8602278068628142 2.417591309136556 12.530723168038719 0.8324954357102308 -1.487933137770089 -0.28237269023980405
Ni 6.381198341195502 2.5517946349726737 3.2706543241638344 -0.6579998063600797 -1.301212941329288 2.2656869589630655
Ni 6.460415010030218 3.169362439410261 8.901257793688043 -0.23837365895103466 1.0434739904777641 0.28826874400926483
Ni 0.8425938557776523 6.9265887208859525 9.688666355797583 0.4726168406734635 -0.07676876952062263 -0.5482766934006236
Ni 5.813628392682945 0.7011444108001486 5.039775638855972 0.7252583223974219 0.3505812288952414 0.34935609823888863
Ni 1.7452473842567526 4.577696406388239 11.589135937508003 -1.650383405919932 -0.43488127379590263 1.506623772201057
Ni 2.7899297909392913 6.552346256287098 12.68882605484786 -1.9256850482455674 0.03437256394259886 1.0601913032324453
Ni 0.04492392484864006 5.497512325946402 2.45390520409082 1.658665443423066 0.9300068370948433 1.372589593300062
Ni 0.6679583568143181 1.5268935110902064 10.100638802555315 0.593487742719623 0.12362481064221288 1.101592234776735
Ni 5.441491293675954 0.6975671200466695 1.4745641916162733 -1.4862122984242405 -0.46995420623963574 -0.644920090357986
Ni 1.188790104563856 7.724064592029976 5.889348323882478 -0.8431652567192511 0.11074512646606734 0.5268830582161959
Ni 6.4670057197090935 4.146856222422034 12.4833359654476 0.08589078642654885 1.0174199737031897 0.11149023216220798
Ni 8.680129414821959 2.433106938172244 8.165763885568474 -1.077568361058312 1.6063041562125304 0.7099152642824483
Ni 4.302625814929585 2.2224696875880485 13.165159527748854 -0.1395042008766307 0.6623290298630528 0.046657551957539005
Ni 8.77441317828366 7.394629799484036 7.607183848133173 0.13523899784237356 -0.9711902533116887 0.13466101385171647
P 6.696380724060872 6.720134740195156 7.8309750567847916 -1.0915263659003007 0.035665314612093414 0.5651811824654459
Ni 6.073695965858712 7.455950860787914 1.0134616657078956 -1.322405773356819 -0.1748409285047118 -0.1685900624989935
P 0.19749519240924748 1.7509776401719979 1.274729297271025 1.2379702313195582 -1.006585859202163 -0.42977609135885336
Ni 8.442982865307172 5.14978831404158 11.272648227975678 1.8466357102208844 0.5330675897603528 -1.598539424665447
P 0.7413312630670963 3.754763919109556 9.747253187961071 -0.04151148898022528 0.27037875110272147 -0.5812467205687409
P -0.5380097002264533 8.574339370712552 9.991543334466684 1.015063043435239 0.5328192211949727 0.1991054574790313
P 5.757781281917912 4.466038799911944 2.8276542808401035 -0.3933052501263291 1.421402758148023 -0.5831035712718216
Ni 9.078903965447742 0.8130766301797296 12.280137063037092 -0.5008696648715697 0.21653805113318192 0.8006322684530469
