# total energy = -340888.01981577213 ev
CRYSTAL
PRIMVEC
9.10494000735249 0.00000000000000 0.00000000000000

0.00000000000000 9.10494000735249 0.00000000000000

0.00000000000000 0.00000000000000 13.32600004220605

PRIMCOORD
 96 1
Ni 6.665681024488803 2.0346900391664158 11.244758373606425 -0.34594527278512677 1.5470715958034582 0.42003855235611537
Ni 4.9999777823889335 0.5968160678625134 5.994035097020824 0.14860590606758275 1.6571729180379393 0.24443246355060486
Ni 3.2761030788455914 1.8781943310289289 4.683063047482563 -1.5948815161978855 -0.32973832400796116 1.2908423967282414
Ni 3.7009577875441844 4.76123715153758 4.600041473389588 0.5003675284241705 -2.6366493226178203 1.6531128890359528
Ni 3.5801716539537782 2.685310839264656 2.5580456303943664 1.6084194027833203 1.496784931733764 -0.3269535621739724
Ni 5.18380652030468 4.690218619801928 2.694263726733331 0.20046737082356442 -0.5538135640584527 -0.995200243073041
Ni 5.3530673542746525 3.03494963890322 0.6990090035481278 0.5176250299530375 -1.5968687218312434 -0.6934614896017993
Ni 5.846837353576727 8.39766822954195 12.173554210043232 0.9715733476827203 -0.7824108603490139 0.46401290105453635
Ni 2.324673272147032 6.547526218548603 0.2608902183069066 -0.5198904289484465 0.572373329338511 -0.7180548626704473
Ni 0.5412686501172737 0.47567211013143906 0.21632608964278457 0.49502246206217326 -0.9100051971619361 1.6044755876442238
Ni 8.38914600573367 9.199995539355502 6.907491841096728 0.16734719123082792 -0.08644768737128337 0.10523242417795425
Ni 8.707472916828785 2.614137523549579 1.4522005943405756 0.49936916906664325 0.00596778754766069 -0.28720019353543436
Ni 7.288176665031731 0.783065809315249 4.9625227908503495 -0.7400041132480288 0.30336034823506464 -0.6558416223664962
Ni 0.9294049569205411 7.620679967654078 2.181359696092478 -0.3817568831670974 0.46407255064787817 -0.3156628197515015
Ni 7.937968915593055 4.516286951629342 4.0276102557443085 0.3800260165189197 -1.4958783607590949 -1.7890818230658154
Ni 8.062879586988108 4.114485950924938 12.684140122968715 -0.9155639221966361 0.06082433037622429 -0.4502544138178633
Ni 8.506872879495463 7.677139700383922 8.921290595510905 -0.6541092130564219 -0.9279535541102407 -0.04317524983589338
Ni 7.068219525330463 0.9073737336845464 0.46341412945506605 0.08063982244025468 0.4723581876954381 -1.3446766689398777
Ni 1.9047989656099005 6.949919040350804 9.061906377853502 0.4019539269402626 -0.5917051968979036 -0.5482790073934686
Ni 0.4707991462615774 5.222757453479696 1.2097178331631522 -0.5731899117025354 -0.7405450733531633 -0.3688571443862938
Ni 6.64350139073136 2.2881988826427975 6.927747601039331 0.6179289064811229 -0.5032440786410172 0.3454799031129341
Ni 3.5830488149830684 4.3952640895998165 0.46568125950662725 0.18898893787031967 0.1355351889265537 -0.20200206230053597
Ni 6.186870441551045 5.766240424996727 4.617085921006145 -1.0281808117641196 1.5626630224838118 1.348758295208419
Ni 5.384096989679153 3.544334610247172 9.103550552270493 0.3908238784653721 -1.1756832003548785 -0.07251102268553318
P 0.41969129724381254 5.755396441497091 11.951982764485972 0.2769522905551811 0.9929638975433543 1.5728589891802074
P 4.255512366060005 5.9945650045268515 12.561061365494842 -0.2734951852445161 2.2192564354146684 -0.05599708419091002
P 2.446315270094252 8.678073065678218 1.0231730916555146 0.4670596583006602 -0.6814883764003231 0.20421655345335152
P 6.89703754902764 7.808797132293861 5.870595783924292 -1.8268256174734927 1.2830087596164355 0.22117837811867067
P 4.952122217927062 1.2973811056508493 12.439768086748325 0.217365946351116 0.4322551490269652 0.9979122426875651
P 4.337229202255836 6.446716323243839 8.18401626076721 -0.8096488701293604 -0.0580591089262613 -0.0008584913455533601
P 4.799213856136223 0.9593237896491763 3.672045961175801 1.9825663348136435 0.2078317816084356 -1.0905498609196445
P 0.5106523789872345 5.895685356494904 3.319973411084296 0.1616578541555345 -1.0780810390286724 1.087573809010456
Ni 1.1085355458137758 8.932319409291853 4.349033756921896 -0.7723326501774053 -0.19818371699571027 1.7169060722325142
Ni 2.2742501146147185 6.525619732990143 4.80623467534409 -0.3823664917266383 1.4587881407750167 -1.3395272635284543
Ni 6.299717067491005 5.9126478596517655 9.246684761007714 -0.14390670081970056 0.17089994157909277 -0.1930019156844547
Ni 8.930962773236903 2.6217128336013817 10.050615450749298 -0.23401023977601634 -0.3292883809547361 0.4410210681450534
Ni 2.666072101116267 5.563609986050965 7.01390036398665 -0.6517970199834774 0.2320124926196972 -1.390191365542225
Ni 1.0522123871834237 0.1703643526938647 8.897676933708802 0.14011252388459097 0.5558555341891459 0.4182932875302344
Ni 1.7158168316733353 1.3819659979360048 11.558625685106138 -0.9992335326021501 -0.7566972576329936 -0.8817752557819654
Ni 4.578865204016411 6.935150827725774 1.2591367158172035 -0.22463882586344536 0.45922627829917045 0.8308021071682078
Ni 5.695995813158194 8.076919404415849 7.848787849613007 1.9558875399708766 0.40972045825955883 0.5820332210257783
Ni 5.632425122314819 3.122803204636208 4.868801091309202 -0.5349277828975432 0.053568677255075484 -0.24812251080768236
Ni 0.8374751095647252 7.474418212038497 6.408433692662336 -0.5494277762859312 0.3065444023900011 0.5643928822361958
Ni 5.087967922221414 4.901043504717189 6.9453510919698065 1.7343818604197743 0.8722830000208138 -0.5060558370581995
Ni 0.9544526467673079 7.982009510209126 11.830316183200843 1.0725539385628562 -0.616273373155571 -1.3450075699167352
Ni 4.640614906866565 0.6362695937236582 10.27258660317107 0.7703788688851441 -0.4974961204136464 -0.2631223266506243
Ni 8.215533010459898 7.379772361090791 4.349419806376459 1.5260535987908943 -0.43724951691776304 -0.5743006282682109
Ni 7.369884396287596 6.115451292456885 7.074653075910516 0.17942829076507807 0.4809680408516362 -0.538662567349627
Ni 2.60084431119906 5.343325068510916 2.555500799673838 -0.34861202098401256 0.33551122193599636 -0.5339548774613128
Ni 2.515339819977327 5.475109969580382 11.206819909755641 0.3819975384229937 0.39174176229395113 -0.16473289353643242
Ni 1.0331830626542553 3.3871651365521926 3.2579141402752945 0.2366301938973667 0.8985043956111881 1.434553436597368
Ni 1.8432040467391708 1.1800548492475647 2.7246869731360888 -1.4374235590563116 0.23380403730248123 -1.8967701649834299
Ni 1.392728036975946 3.7251951377339676 8.082884961081644 -1.263857126388649 -0.8032974739900359 -0.9718646536708941
Ni 3.948903512701273 3.0342485585258294 6.801576805952967 -0.3835355723340749 -1.1517382595035068 0.6485864834659797
Ni 4.501819202023194 7.5579924559874145 5.723917022058266 0.6715834585817854 -2.8761087584338663 -0.5621130850630836
Ni 8.488881518122431 7.377004459341094 0.08021543159541972 0.0868570069945601 -0.17928405187772994 0.7111079990389689
P 0.35652941820491557 5.887846003184084 7.690848097996896 0.5561864351660034 -0.6026107880668138 0.8240583606864711
P 9.0889334816489 1.8544941722971464 7.922667153486011 -0.8358941769791347 0.7123752957871666 0.2326807223313154
P 1.9501506715810908 3.2095095479334677 10.211074539254033 0.10085486393554888 1.297485613076372 0.8847605636625342
P 4.278538759234295 6.529935474534079 3.607454606562225 0.449240113620736 0.470414433705506 -0.3802795272906225
P 7.197828345748029 4.060402607526249 10.344187851064556 -0.33975122815927294 0.9073070815044826 -0.005741273359151403
P 6.712789983873452 7.9939916112045255 10.167325302716877 -1.7181900811512605 0.11658461596597985 -1.5819776636520237
P 2.6690676263651167 8.518891400250727 5.919422845480548 -1.0133977399176741 1.3182243882856202 -0.3499644212468489
P 7.040440353493863 4.109305240084221 1.44668391121511 0.33437633700060476 0.8765006376465873 -0.04425382761205282
Ni 3.010047628095911 1.5501615539299423 0.46268118178779427 -0.25694499419531874 0.9869971384369581 -0.8914271770494325
Ni 1.9553586972417054 1.4023337486401912 6.879027977774676 -0.3828208056552375 -0.16463904827104547 -1.0272472442062568
Ni 7.1866383745296805 0.7821981085364789 8.985229125928912 -0.6221825395511543 0.5594813038671913 -0.11579940106052314
Ni 2.987494691799858 1.807157589413344 9.035201588932903 0.598326301758847 0.10372550061512459 -0.1717131815090075
Ni 6.687323466788245 2.4401421207972303 2.8777100571705017 -0.24819398747556612 -0.8971463389213968 -0.2648357097973052
Ni 4.180123463140619 7.101589130306253 10.287498673847564 1.3103650401422013 -0.44017517520499033 0.44262877895180547
Ni 7.4954688332401425 6.40330396948543 11.315119528676524 0.9857162148420056 -0.9913932106221247 -0.3062124729718791
Ni 7.8717395822795755 4.0490942720883405 8.190279548969896 0.5816830367752112 -0.6526058890380181 0.20194884046509737
Ni 3.522837846987188 8.698222297823218 12.323658250324511 -1.2075329978756237 -0.8889563469114368 0.6417314082173593
Ni 0.3256609402378151 5.375802389370028 9.765692743401846 -0.8528675716086797 -1.3782915287808457 0.9080552725244168
Ni 8.922067246890014 2.797693113266343 5.779126646530762 0.18042973544639893 -1.7380657370292647 0.2841950881605234
Ni 3.58047211697266 2.8133080853082206 11.660943358469288 1.180926708142005 0.9625127801423488 -0.354019565152829
Ni 1.406048564146364 3.8010574975315903 12.386597058334237 -0.813027042572974 -0.9408062417031926 0.7165086012292499
Ni 3.4121399868792306 8.597640026017608 8.034138933491088 -0.3124741376108748 0.5160471439429564 0.019181200914141158
Ni 6.153846824293968 8.235882551284153 3.457896862678913 -2.2346786835070094 -0.5680320216506798 0.0651502114450878
Ni 3.177897196371136 8.425174253179565 3.1514127469977176 1.4352478915612314 -0.5470718744592449 -0.023461830567366046
Ni 3.283915117336513 4.632119997878184 9.0316561253101 0.8861895827995769 0.01843043879104568 1.285283414583225
Ni 5.235404215092623 4.696865225977188 11.305857983742998 0.7018893086541783 -0.7738125771570415 -0.5787239541468872
Ni 8.023901338993195 0.06639777470285223 2.452210718722308 1.6472523164901178 0.1995615711798434 0.19166777025406345
Ni 4.9416970616658675 0.4028981459703205 1.3727108264604546 -0.29376113458240377 -0.25562370428073394 0.6138326249245621
Ni 6.428570177891384 6.015916088747377 13.308276473693537 -0.8482699249356681 -0.9989106020450926 0.3452225356864893
Ni 8.00285071779155 9.264549563715217 11.190388224598802 2.3105287978681046 -0.12096577575281103 1.1835556611244198
Ni 0.46178161371914267 4.999704634189951 5.5888443271670365 1.0845509630237322 1.1998505416297014 0.7283210204831456
Ni 7.274974502080872 6.118128144806921 2.3044521109762997 0.6649929498484612 0.07146509791952207 0.4045551120085355
P -0.29592147482651227 1.625923759387938 3.7425273014534532 0.9275671173050992 0.7869306025962383 -0.49360989798536276
P 1.9295279825578533 3.3542871983345717 1.2380196285538063 -1.2237697714494602 -0.2298525088539009 0.7851380294721898
P 5.039520536661747 1.5312596985602993 8.12428876508353 -0.30918981043264815 -1.1624569314725917 0.7098371027463453
P 8.656339573979114 1.9931441981010591 12.588245984751655 -0.2380173040528804 0.6177221897869555 -1.7067515002970155
P 6.68756930016733 7.906311039330893 1.2110790216880856 -1.0457753849174312 0.4173851738936683 -0.5488526205087516
P 2.150559505175123 3.454823945440351 5.724076358507672 -1.1804189152676507 0.6667538984036259 0.037075307585742595
P 7.176577415867129 4.205262202387047 6.0467927611604475 -0.654139552073725 0.10687278799485465 -0.4405109612778542
P 2.5948350508214277 8.501564699495221 10.333686213307644 -0.746091199982373 2.1600480433753124 0.23999242550138025
