# total energy = -340863.0422857019 ev
CRYSTAL
PRIMVEC
9.34298797262392 0.00000000000000 0.00000000000000

0.00000000000000 9.34298797262392 0.00000000000000

0.00000000000000 0.00000000000000 13.67440730163497

PRIMCOORD
 96 1
Ni 2.4307651066311493 0.5653301704831106 6.601018872487864 0.23999731059738663 -0.1805390073307536 -0.7844402320742169
Ni 0.39218498836142435 1.794741219811318 5.480592840234422 0.360043916970038 -0.820039212224749 -0.44790082598402214
Ni 5.908514756500155 8.685017122503583 6.891080333932151 1.848742986371874 1.519584446126783 -1.6467257545626866
Ni 0.9784070136123326 2.003089845240363 10.279667049403983 0.2297177830482495 0.29008060040702305 -0.5997995438702638
Ni 3.9069104463020894 2.9006426434059267 6.735547617899984 -1.568237688358112 -2.002137314967036 0.6169621716924795
Ni 5.801929952962284 6.215945766354089 2.8557626677507266 -1.0119548368235607 1.236861828746728 1.1488344555931507
Ni 1.546722268661568 7.675273728187708 12.37446299029003 1.1430160491391606 -1.5270756122975055 -0.6067116976090647
Ni 5.2985017474020495 6.133344412209776 12.46604015270563 -0.7845117087421005 0.6592709597630194 -0.6110517197453154
Ni 9.018206749411682 2.819171790771789 12.184142593902594 0.4129808741783856 0.16170310557117312 -0.03335594975262642
Ni 6.210928581965955 1.7358149964668794 7.6846475477344764 0.2956737782240843 0.9077423692696882 -1.6293507536193486
Ni 7.824453212592441 6.600372337739896 1.9284739426724715 0.5287507075525538 0.17908119183830448 0.3973853337329737
Ni 2.050617623606173 5.397714933654562 6.1310572488239 -1.1369855266743647 2.300428990429941 -2.2754584365275328
Ni 0.9461830490784863 5.149322262997316 13.448656182271138 -0.3517446530757233 -0.4281426695204884 0.017119176178789868
Ni 6.198053944932716 8.61913037333203 4.344085657573425 -1.3642710461320378 -0.2600082065016748 0.8087893503425426
Ni 0.21909866706216868 7.94028757394084 2.5291495698757895 1.4798976690601222 -0.40567534165590774 -0.4433065217451204
Ni 8.448032239812655 9.189762689327742 4.105398482525851 0.8357221701776445 1.0899433376838972 0.8477379636915982
Ni 7.1760031521483665 5.714330100405211 9.758973002597429 -0.4165493082559343 -0.17663273029781193 -1.5253324043541536
Ni 7.880174791160101 3.0965277232599786 5.9610298216935 -0.5762973469832656 0.050756661727577104 0.6835781690498163
Ni 3.898511100371116 5.6981667317060065 1.6040629869954548 -0.9478402657318385 0.0873984813203269 -0.5283305892959997
Ni 9.265823952090875 4.214761890601956 9.801774163492182 -0.6252406096511877 0.8617785009450643 -0.3772219714112213
Ni 9.115700825929713 7.0875998026501765 -0.07785231350280732 -0.7710856651441818 0.13230099825997213 0.5887188605760699
Ni 7.399917195064622 4.475683507748007 11.864599334810714 -1.578676881413565 0.5808191461130191 -0.5516263265991468
Ni 0.6471672682345946 7.932813183790919 10.080088686517099 -2.0499737177240243 1.4166626723598763 0.978896877927327
Ni 0.22611057932156325 6.3186252010386275 8.339569495749615 0.20554324268457508 -0.27435907590670816 -0.6371569014727995
P 2.559259216295977 6.479464734077238 8.371321639405247 -3.40297073360414 -0.3028787806129558 -1.2034860814997597
P -0.23037378460332436 6.13304543660378 3.819193806398924 0.5066613318526823 0.6583026823124791 0.09767260955282533
P 8.639600859355125 2.6697493886871824 2.988678813488001 0.5962221109316506 -0.41987040220936717 0.965392158572673
P 2.732609009848017 3.822300349804985 1.8787954085410223 -0.6995010109276598 0.5657223996808967 -0.04387690388860831
P 0.6394125884540517 8.075359146937597 7.065798875180396 0.8781872813203908 0.016800873607422676 -1.2640345325067779
P 6.1966431537919195 5.695718868931907 4.9466345538080665 0.2726027553372337 -0.22334710363521534 0.1871166605482713
P 8.168200415587304 4.115782279041628 0.12307891400120992 0.7716829324085483 0.08222182221539388 1.4469471822760307
P 7.200734040556918 0.8608582140232954 0.5848542118534729 1.1465212340789415 0.044285709291252764 -2.047770796535435
Ni 4.809321598065101 4.566058227648239 10.619352855651131 0.6300763404769343 -0.6841834067339829 1.1370456904883386
Ni 6.375785599710148 0.4093144219875056 9.567544527870268 -0.39529708374537725 -0.4933882688928599 -1.6384092642771912
Ni 4.2396796387642555 9.017730257039625 8.328876446341384 -1.5184816999809074 -0.3820232494546066 -0.1726806876285994
Ni 2.081720429617531 0.1474986809197702 11.335207900765962 1.461357701274406 1.4716176884395171 -1.0663339257950732
Ni -0.06766752262477135 9.51816870653989 0.7176180668914426 0.5529938963706347 0.20269523171281864 0.8379042654306279
Ni 4.117501388776111 1.4698668519450062 12.26401486134342 -0.4910544785533608 0.18137641563038437 -0.03428386088353451
Ni 1.2981240522751991 7.787585783177956 4.844418531312824 -0.1940745799233432 0.580155030166459 0.6155092412960368
Ni 8.882565254165993 9.306409890604945 12.132138590135751 -0.1960712986383978 0.008478984005288622 -1.7192025815761744
Ni 0.554245649890778 4.124901035024532 4.516998199301695 1.5040441843993388 -1.6054536352867768 -1.0069067328766916
Ni 4.301044381895105 6.66478289485684 4.761222963151591 -1.3778868371432593 0.40335132150842146 0.24076118534660473
Ni 1.432074466749469 0.7125233357055029 2.9658968723110424 -1.7576562575666828 0.14270830963622522 -0.7586021879651903
Ni 4.050904572540316 2.285229387424502 1.0017756944160603 -0.6001674687326438 0.1267913812956526 -0.35725581270193957
Ni 6.552330695051279 6.457704915753281 6.889056642799059 -1.2427967061739242 -2.6243537930799192 1.5882503840346132
Ni 6.3144208565792965 5.364201636819854 0.7659306562229939 2.4460421324177872 -0.7085824044036376 0.6455363837857463
Ni 7.462730101287019 2.6692635533274376 9.884408218093403 -1.359371551947891 0.8729777120949933 0.4393876463066885
Ni 5.0650765430200195 4.023249328985608 13.43481734890856 -0.9144130964216446 -2.2890639431261097 -2.235443586697492
Ni 1.7269485011515358 6.140510483766013 10.482553764230973 -0.6887157473866977 -2.819882331840969 -1.1148473000144283
Ni 3.4677339670681127 7.520357649342909 10.711217782087502 -0.18066267739281144 -0.5478221223617081 -0.13268820639606183
Ni 4.395632789242354 6.351353686907594 8.961645236250924 4.22724223874268 -0.13166387889660552 0.3297753478934836
Ni 5.065805296059637 1.4018592445684137 5.311851008209808 -1.1546970850215146 -2.9345237080376494 -0.07472499961771648
Ni 1.1595395159079782 0.19877580024453378 8.576150761372448 1.466658544662029 0.8134723576405087 0.1989717601146444
Ni 2.8601127628179803 0.2927587819896391 0.6200800783312812 -2.031616298262759 0.5772645959925413 -1.02631393375871
Ni 6.3799152002679795 0.5659888511150725 11.84765676093838 0.3042502070391857 1.2167192923605818 1.917281140452588
Ni 5.484249685615271 4.113596019922777 8.281398185810318 2.341925309901515 -0.5775926687559213 0.40747922763386596
P 1.8158937439355942 7.49601916641723 0.7237891102589712 0.11191343574255565 -0.05359953049301092 2.2463370936815443
P 2.0448997151414834 2.4591864751762236 7.946772541694665 0.007400920449761447 -1.2459308809275318 0.4624915793140035
P 7.496420914887788 0.8957935135840257 5.885519795203924 -0.2894432239333402 -0.5582759707051805 0.03435096667604406
P 5.746114944517749 2.7734378660419603 11.607383146581485 0.3859732352412901 0.5519168612563721 -0.22415237314533007
P 4.465294105439617 -0.06293156216602772 10.410859413912931 -0.6218297841974258 2.173203606920664 2.0699295920206606
P 6.184170265229238 7.6214020611821525 8.716449735980307 0.4299285577763176 -0.17921746030585264 0.8280188879961159
P 1.5908585424968509 4.03323698282344 11.049358258171155 0.4115071178463365 -1.0564207804464194 0.7952092976652627
P 8.086542703199417 6.608070959594315 11.49600539035998 0.8617926420124512 0.454268677183579 0.7502587010965014
Ni 3.947944848225155 5.060320962287133 6.967123845018677 2.3094638469386997 2.2783990072130953 -1.358037663627816
Ni 2.534733873616549 1.8448663487542252 4.450732124830034 1.7072017004605566 1.479167475762317 0.6255236881092453
Ni 2.72763854039832 3.71957420018201 13.355765395786689 -0.10598987116926908 -0.5868460690333893 -0.918548972966889
Ni 2.081860574432842 6.022078771840516 3.30697758661992 -0.1250322325127008 -1.0426160133528433 0.14613327615737412
Ni 0.7920620584858861 4.126825690488137 7.26995717063164 -1.577475404906296 -2.3239026480718494 1.2044350756765902
Ni 7.141415411729607 4.392110482884204 3.5428067417339175 0.34272625162719683 -0.7385581248301215 0.006518774955124257
Ni 4.107121329455408 8.361805806445629 12.69496390561987 1.1812020732905786 0.09292095380045287 1.2178536630753412
Ni 7.066587423341212 8.84687504120012 2.201046265464712 0.9274231355280673 -0.9766384209104536 -0.1820302471642994
Ni 6.469280877497971 2.6677967042605157 1.4205246653703036 0.8885120602851665 0.7599432753741171 0.1762555494640513
Ni 9.102573928228914 4.654442891171053 2.15738368110518 0.8898618894448417 0.020295259913926337 -1.263776907970017
Ni 8.891188831801465 1.729405706913322 7.826409634214183 -0.5589794245301083 1.163875666196989 0.2349219529570083
Ni 8.568668896832378 5.299295901355478 5.830342912818439 -1.3093193724865062 1.9518362527196387 0.6829770451307077
Ni 6.267481686437795 7.7266227885176635 10.959176003817285 -0.6828292066989338 -0.3528972786229277 -1.2267139416794488
Ni 4.750591577462098 3.288236487617762 3.008957768263505 -0.5239211473743945 1.1137700077898496 1.5045139249469055
Ni 5.615976469019939 3.5017050702995025 5.442263233246859 0.5290510124017921 2.8983035493633507 -0.492958380444293
Ni 2.8329340116353308 8.367308826193508 2.532267324867075 0.6606943224731073 -1.3924755335907115 0.42235820162822746
Ni 3.1957502525001784 4.298895494727003 8.966116790158114 -2.468168532003181 -1.0210583417867254 0.7946963625845861
Ni 4.227449667881447 2.0187954075428842 9.098621844437144 -0.3983965486063074 -0.16903203513241857 0.6269766185056879
Ni 8.319014922837333 8.615234347466386 8.322517608921338 -1.659803156571935 -0.41986397445146395 0.1544633932896243
Ni 8.079544805421554 7.678384943087612 5.9728169349599245 1.7733369015267328 1.7408060187785632 -1.1704944570650875
Ni 7.053656728381848 7.885958100538603 13.16638864115568 -1.3936795812011418 0.5855836573811979 1.4471127613196173
Ni 0.5246181016352602 2.546935815536295 1.2118892102192553 0.8556243084182104 -0.005645628321551568 -1.1034228602275706
Ni 6.850801779712996 1.9429490334965622 3.9443823670199487 0.4242312502812242 -0.6769755761316341 -0.8073284495262999
Ni 5.2010637288101425 0.323927923213578 1.0841238535940452 -0.6013411773257709 -1.6994986753893442 -0.5716459642541832
P 1.1766652123389845 1.4415762852275558 12.754433890847716 0.8381829730133112 -0.592523836144457 1.3863604218319092
P 4.2285801693916225 1.1516260053367493 2.882564896529574 -0.6361855386984656 -0.9149167755309404 1.1396360769233342
P 7.899169085128588 4.010075716346373 7.990120267369131 -0.5317707253258004 0.353787651647681 0.1560875591566086
P 5.326343850710504 7.251316975896507 0.870099363144904 -0.26554867670392973 1.6157457612414046 -0.25002975513272424
P 3.1016009655742374 5.476448290896291 12.008221610138982 1.3663161015865244 0.3767236916185641 0.8098046789809344
P 8.403596990371375 0.789121820260661 9.959302541694377 1.9846353015275304 -0.8642259340442922 0.6651395027286545
P 3.0521578747325107 4.092004375377193 4.624889152518266 -0.1236842031252386 0.22740250465151157 0.5078571519329963
P 4.073346428965453 8.640011950813372 5.735743293885966 -0.3113317964763155 0.41305415061848216 -0.07550301543432159
