# total energy = -381163.216517063 ev
CRYSTAL
PRIMVEC
9.28096383602146 0.00000000000000 0.00000000000000

0.00000000000000 9.28096383602146 0.00000000000000

0.00000000000000 0.00000000000000 13.58362870822483

PRIMCOORD
 96 1
Ni 8.387058567600922 1.659148632786958 3.58575237043103 -0.4889212342604418 -1.737874189843749 0.32985402365021904
Ni 1.1976805464888125 6.799159894560372 6.848974540117603 -1.5840582003301364 -0.17246008697736104 -1.178775723237273
Ni 3.000145823590479 3.996884221001597 12.452900350269292 -0.6643458031827656 -0.4354805979427984 0.1430374108408698
Ni 8.219138088026643 0.23592024576810247 10.215418662038585 -0.40371410416447895 -0.41470299907581476 -1.349878267745475
Ni 7.510239504550013 8.054465945812169 7.589621444852602 -0.11362913288208172 1.052675197361058 0.4770131699689462
Ni 6.464896699272289 4.796810498263918 5.3318320795447685 0.05090012928397686 0.5288574083337473 0.2614858194884658
Ni 2.5654625990649187 5.501764672089353 8.312256782975663 -0.8701890936062626 -1.5266698922186546 -0.09173438969151944
Ni 2.7595089919759364 0.17353546272480427 6.220460241043161 -0.46451709438446454 -3.5114885134015843 -0.2654823422423686
Ni 7.028028463968527 3.8724543381931977 8.89181585374864 0.42145471597735157 -1.693658414558483 -1.4634603494397054
Ni 3.4545418154081293 3.1289656023165615 2.7270089126428676 -1.6850236217016206 -1.6870262539539462 0.583366338014905
Ni 6.542346342893987 9.077729338007089 3.914937950377538 -0.24009629806909616 -0.12454063758826293 0.6841672087840669
Ni 6.231415490813208 6.466140348432902 3.467411728027687 -0.3011790243130297 -0.5210062877204447 -0.5109368192995846
Ni 7.0852363253566795 5.899713841557432 12.604806526659718 -0.6262497676419924 1.131060162328865 0.3969636728145228
Ni 2.9899182013890284 1.7254704007103427 4.399655779304409 1.400108367545621 -0.8780080754300491 -0.3405780949359425
Ni 3.946794858913365 6.21400440256464 4.006572619201321 1.6108007585313033 0.05200544653301367 -1.7335665636073303
Ni 1.6056809998445256 6.449156184523051 1.8910724955061085 -1.0679616912064833 0.8578799372216065 2.2795254075080544
Ni 6.423800591188781 2.3612164268441056 10.643791759218622 0.07053770100924626 -0.6319637873076341 0.01664532186616488
Ni 1.5495218873753958 4.219590230390002 6.200124721074377 1.3276863050294683 -0.0041721290998186205 3.270974925289412
Ni 2.9261394175701785 1.3182959531404095 8.895198765084782 2.3286075097466865 0.4561676939785047 -2.4717763039590976
Ni 0.8922347440641665 2.9995982467212547 8.998868987874847 -0.3851378838241883 0.14433376105479012 -0.3903160855910181
Ni 5.313565286425988 7.403016528784709 9.506461608489479 0.33128432833884236 0.32070552438173155 -0.7505983438241074
Ni 7.195215747395878 8.76731821990388 12.886992377395368 1.3616004412784097 -1.3971089185976648 -0.7700232853179384
Ni 7.5775172117535705 7.114109404003425 5.385488116054069 1.7673359467482919 -0.11075232555491894 -0.6581592147560794
Ni 9.08662978237296 5.120641890145075 5.188524716193945 -0.8705613893440168 0.5549196526384378 -0.6658236732798727
P 4.7133467900446355 8.504416355928825 7.797886274435691 -0.663159239073832 -0.1847494458676754 -0.7539240657632306
Ni 5.770708443553646 1.3190662731428782 13.055606144971868 -0.08009860522480398 0.8212535442478244 -0.33967769460886016
P 2.282253986109126 8.455162280590258 2.974447762688848 -0.09207557508102207 1.3575201005614492 -1.673225857735744
Ni 2.658745567074706 7.842692911880488 8.048313594852695 1.4574704504048577 0.9541656937292342 1.843966648029153
P 6.504080928795454 5.832890901584248 1.1671870115477163 -0.7408266091493241 0.9394926650980917 0.9658415874052658
P 1.737897611352578 3.058226095583838 0.7822061329163768 -0.2733074947137422 0.7750119967817813 -0.35847168738691165
P 8.537976321337581 2.7586829861901565 10.29054992088177 -0.6830433795922688 -0.3507056702882476 0.23465532955918297
Ni 7.315951806577981 5.232496066889077 10.461812475551096 0.7982198023568123 2.1259536727947643 0.5601731877278934
Ni 1.0850931735978833 0.4630430658694576 4.350156686519273 0.8404013208208688 0.5683163856603181 1.074982859719323
Ni 5.663903111163175 0.1278991071086738 10.943433246829487 -0.3406493144935101 -0.2614585657949562 0.44739380444061655
Ni 6.332466625594878 8.180816988144798 1.91508791765536 -0.5112116702275261 -0.7801950836446175 -1.3472014922442603
Ni 8.521307710199824 6.1358494056876705 3.1697127461579875 0.1979723723158526 -0.14286437559811524 -0.6693900504748923
Ni 7.9878286251166895 0.4104747583274978 5.625455790172492 -0.5148340974714618 -3.18872970603525 -1.0530883736390768
Ni 9.037004468478987 8.570042051560824 2.9536240640197042 -0.5333190436495266 -0.5923831968015347 -0.03976365305118313
Ni 6.8036240381891355 5.974054362277599 7.510170825417263 0.19976674521211402 -1.1021373086469277 -0.5052755072487493
Ni 1.8757106440833844 1.6270643406359444 12.582460749913409 -0.34628311574051973 0.2052421665043885 0.636422080189304
Ni 5.4096418245652105 7.18039404807127 5.684517988144902 -0.1732545578541984 1.6455872700828693 0.762406392202629
Ni 0.8272457225546911 5.416314837598643 10.204279649183611 0.3071031031069485 -0.18435349598083733 1.3653305977448036
Ni 3.7622521730207557 7.309520098605563 1.9594249383275675 1.86772595523228 0.1441887508364936 -0.9300844844103144
Ni 0.5434774674766235 9.151540843785801 7.671951947381507 0.07814353838096219 -0.5359312844613932 -0.13241052725464295
Ni 8.142876407782246 1.4848428500596849 12.069732971981113 0.8887558008648565 1.008907308246488 1.7682718282989998
Ni 3.6697209630856666 5.933477988171661 6.298511291124616 -0.9527752411396108 0.033957330782051195 0.5174676784395669
Ni 5.069104697690757 8.637811649850294 -0.0037838489759815333 -2.0050562883860437 -1.7175907570043647 0.9928597678653224
Ni 4.987552868031817 5.314038615584132 8.671272308945477 -0.9867631680492812 -0.7212188622207257 0.3773803513659565
Ni 6.057898590016175 2.0060896247421742 4.737997030123632 -0.6700189423081429 0.338017790407934 -2.069416399829668
Ni 1.0706612747564526 2.899410241580905 4.45070293686559 -0.6318612002914988 0.5026121014839731 -0.6827155639392049
Ni 0.5437410468509623 3.540613474479144 11.846961995845511 -0.33528882151254513 0.24093807724410124 0.03453042967670182
Ni 5.537756250036019 1.043932098767179 8.663393698703361 0.8288532109719531 -1.4917972487111855 0.8586407266470308
Ni 1.6598168621866898 0.7481533483253201 10.34454471257288 -3.023755128801657 -1.8002938897315512 2.150457828583716
Ni 3.025111616441572 4.770656742035525 1.4281148145043945 0.11471568107804114 0.7896883678470336 -1.5332462598845917
Ni 7.783136966629389 1.1006016642499927 7.807638711286223 -0.33097502462853967 -0.2223322892174558 2.9348165566877196
Ni 3.7576673768614843 2.224415019176782 0.5614667597752377 0.7074344068421236 0.5862344035913194 -0.21561091133322222
P 8.206803687023259 4.18278192762144 6.904639905308042 -0.9605677406008359 0.06725003139690998 -0.04236175279566253
Ni 8.46936215533456 7.427035663319514 1.0236374150394898 -0.15495293133153315 -0.08914991679379485 -1.1903752551494144
P 0.22479608245534438 8.103617930548001 5.2651502102226395 -1.851472212377579 -0.6560707076581668 1.5933882194818105
Ni 8.74566573115979 2.6411395785845495 0.5664682712129528 0.9575639207775056 -0.6981023308079203 -0.8903771385183633
P 1.8309114314096957 7.697167398161111 10.813275153111165 -0.03472609062727568 0.5446480955091008 -0.15663957500533668
P 4.152219713547594 4.032216850512418 7.051193749825896 0.13732699071965382 0.08034106025291324 0.3530140067064501
P 3.918580728702465 2.031073979521037 11.306931478355837 -0.08382001994044919 0.04958398157571461 0.04029201475082738
Ni 3.235715248923723 9.043417614523634 12.051327892500442 0.33546622763067385 -0.005719418982280473 -1.0561266462447683
Ni 9.097293609877015 7.454878554975007 11.667753079897704 0.3766123628516804 -0.653703492977571 1.9727650324525057
Ni 9.097460667226947 7.3348478490481765 9.349163192081772 0.053039801334798985 2.393477470947194 0.3188201344335606
Ni 0.9383982584289744 1.589170165092818 2.24354030145494 1.3897902734490646 -0.6065450901242134 -0.9937704526050499
Ni 8.31036996301781 4.751036784382288 0.662214407037863 0.10612691096776561 2.1500636784690905 -0.6286928298658463
Ni 9.116560890902615 5.557719603353008 8.187899291685568 -0.06475657555109492 -2.153349034088582 -1.165343251881451
Ni 6.52385866283474 2.801626006086813 6.793172744758051 -1.6791967306071984 0.4889788269712546 0.6427973875880284
Ni 2.898008816034245 0.08097455370528252 0.9247719472527759 -1.0908085138976698 -0.608145601842114 0.07963709220735318
Ni 4.749663201727283 5.128113066072633 13.430690731812458 0.9653111688230923 1.3551096913477436 0.5946285411922857
Ni 8.754232060825798 2.2135748533589097 6.252856373580715 2.1790232989262344 3.7925206304530947 -1.4486073435872728
Ni 1.5466447885709946 1.8791724436125505 7.07137891817974 -0.845446339443944 0.4969052809071829 -0.2665470360614571
Ni 6.252297659554828 3.4350053864298586 12.967176192977634 1.5588783586303991 0.9884927491458783 0.5643352895253829
Ni 7.593703212769297 3.584753738716986 3.6816934064975286 -1.7610796814259349 2.3466198871637065 0.13247146239956542
Ni 4.137592914464575 8.657542979070154 4.203032990818869 -0.11282463470291537 -0.17592027761181958 0.7509428716477197
Ni 4.923607026863035 7.090962680073826 11.749961073703327 0.5763469692742784 -0.49251075138391315 0.8281137617027674
Ni 4.6406582808960275 2.9520889925930978 8.903973916438204 -0.42204401282191834 1.5717271895686091 0.0017264957728034783
Ni 2.075242086650534 7.280164409836788 4.717214167695583 -0.3348221662887717 -0.5815637375885274 0.25978966273296555
Ni 5.124307870879716 4.171106475053904 11.041140450323335 -1.146642075927522 1.1706893466847128 -0.061201768320301046
Ni 2.6842774987227935 3.910784719038927 10.10010732624736 0.5970464066051588 -2.3672378205243745 0.2665516640471474
Ni 3.6875682566368377 2.0181363158651178 6.513744268392687 3.2682210166933587 2.635060637974462 1.130700207886285
Ni 5.713482020237723 0.5405808786480637 6.462194082588931 -0.2167288269877493 -1.5913886725532786 -1.3860701442849999
Ni 7.692601163929609 0.7964997453959185 1.3622617352572104 -0.6859212153606962 -1.273428572127168 0.41033675168731915
Ni 4.320381498182888 3.9544052492991995 4.6724288764677215 0.5803486342345038 -0.9344034235006423 1.4053001961592055
Ni 4.535430712366033 0.8779643339943377 2.533604762432703 1.0504645628629845 0.6295549207558254 -0.7964411131898349
Ni 3.1382094423461853 5.986555820630916 10.504559667109776 1.0585031168967447 2.0317268556986945 1.0193308175726574
P 0.723427004342465 6.213456825695415 0.10260198384688116 -0.5095947034493934 -0.32264645015818627 -2.3830207943902444
Ni 5.391952307400087 4.090946789977739 2.4062309578799295 1.2485516063798303 2.0241385018284754 -0.48468379914032655
P 0.25350024755938094 0.3151759649618526 0.28555205633679626 0.11317996115980508 0.04670948824139698 -0.6100371624378719
Ni 0.09720510334765804 3.9363908983980958 2.47948746201831 2.25311477872501 0.17624577927203838 0.13163893919594102
P 7.067602493974866 7.531427945099844 10.803128275295515 0.2581559837842844 0.10901400270757354 0.25809144909493614
P 2.4055515913235355 4.947301327661859 4.4512597946987 -1.5005389994595577 -0.7580249753054815 -0.7619469360677072
P 6.289876282325859 2.2488796399780755 2.0595498329134982 -0.1259909968815443 -0.6027095184282072 0.439838617801178
Ni 2.9587712865904163 6.909417745516125 13.190776887284569 -0.7838743322684177 -0.5902769490918092 0.10371290220963428
