# total energy = -381175.3581576308 ev
CRYSTAL
PRIMVEC
9.12360891039160 0.00000000000000 0.00000000000000
0.00000000000000 9.12360891039160 0.00000000000000
0.00000000000000 0.00000000000000 13.35332386888256
PRIMCOORD
 96 1
Ni 3.4105418268775805 7.215278295950024 1.366165533592601 -1.803824271482313 1.8249294288920441 -0.8180373513033719
Ni 2.6711189509649134 0.6546152825909491 2.019757147275198 -1.2619622233587815 0.5584014405394512 -0.9132977518702786
Ni 8.03789936059053 5.196351397076431 5.349394460679483 1.5362487941563414 1.2098500760445745 -0.5280935335845293
Ni 5.822176219710196 8.109264228693297 7.028414926853471 0.4330887006718542 -1.4822875094485375 0.5114939773546352
Ni 5.343807162644949 7.2960404811259005 9.812396568227294 1.4700665419023136 -1.5317586195954715 -0.26879700843789833
Ni 5.923183692832894 1.4824495773048263 4.394191849911518 -1.2746889268968304 -2.3090342156004486 1.1977525214500921
Ni 8.450852142496373 8.927113645926777 13.013628211255925 0.1998428498656881 -0.025102451494582574 0.2783473711304948
Ni 6.933404401800825 4.85725422847817 1.603493407732625 0.3411928457018059 -0.40464432928823213 -0.46901086848976
Ni 5.924771200765633 5.54027495473457 12.038889216945586 0.009719798390925197 0.4129384509762243 -0.2812555459162253
Ni 2.7098121759232163 7.929766348988124 6.6394590608366455 -2.0030323159774794 -0.17637407731978658 1.4040902350115043
Ni 1.2207753530584053 4.597495962081606 4.509751479084321 0.3593713163830456 -0.6604356694950819 -0.2623314553182127
Ni 0.5192327885591731 5.125908013463356 9.08824570109975 1.281592081774567 0.24948133882842197 2.245741111968758
Ni 4.86071207621672 2.8132374053802582 5.993171808366409 -1.0849350858360283 0.07107686134216791 -0.41133742503769155
Ni 8.770096338326592 3.7555237231575456 0.3810575578710103 2.4041722316568785 1.3092119003743647 -0.33037107249595365
Ni 4.344461795377159 5.278783202664326 2.042724920090579 0.7968643167701825 -0.7842893083186493 -0.10405974402609176
Ni 6.9252935135697635 0.09387646047770737 8.808880799372982 0.6166562104162864 0.05562684533568484 1.1004354954644726
Ni 1.6590279021911705 8.819619286940991 13.152503222739726 0.21985914508661492 0.3295583467866711 0.38138253054681415
Ni 7.850117244086926 6.464533021505583 13.075293770834016 0.08182227278413004 -1.4477326542918034 2.6877502550586936
Ni 6.0675374314064054 3.944209076933224 7.742884732673954 -0.522042442294443 -0.010232990581917862 0.8433642601039346
Ni 2.9705192976359 3.645702843925504 2.8475430868623888 2.072397079724547 -0.6837437480934031 2.578972536731642
Ni 9.075262805764766 0.8818852903801048 1.849061725348796 0.048673811056619394 0.6147623358276831 -1.2842405751410075
Ni 2.421953194395416 5.880457832781083 11.184156698741479 0.48466991518325564 0.2989804739998141 -2.2531695432223455
Ni 0.1624294323455906 0.31527451363749176 8.223323936577927 -0.785960268263169 -0.18658315664230446 -1.9263597057150887
Ni 5.669063816680195 6.860899082596951 1.111601337690911 1.7144336994326215 1.4123139084728775 -0.7172380231961066
P 4.183083402766346 5.157466576333142 4.158305505963291 0.6811356210465946 -0.8580663422007997 -1.5695142410776906
Ni 0.041813499170926666 7.066864551456577 11.480760659312553 0.7099756852067386 0.8344170782129758 -3.0249599477430356
P 6.611277145587011 6.140179604742412 7.795630139919635 0.6289111165242395 -0.4095325106184689 0.6251179680303943
Ni 4.38017160025497 0.37678588422671005 6.070113938534023 -0.46586486666161064 0.7571934805431217 -1.477087967525469
P 8.719305208087764 8.916512012490902 10.29947228517882 0.12598688311648626 0.5003711279685964 0.911454785124269
P 0.8079430027888381 8.867344884620048 6.016660539244774 -0.16543094804472155 -0.18973790022120227 -0.019921421514275367
P 3.400861677931398 1.2612385581256234 9.608036854518025 -0.9784626186033859 1.7385987267145995 -0.6357605353459052
Ni 7.393772578686225 5.010321013464125 10.082934378431506 -0.30350998643905147 0.615031787438986 -0.20142819207493698
Ni 8.760790257341572 6.0748728128887155 3.148499921196163 0.7554808687273892 -0.1443324755032095 -1.2687949300098986
Ni 0.02022795309008543 0.5713942848410893 4.13134432957228 -0.5867159712134282 -0.3801278322041066 0.5036490273889197
Ni 3.793879374589921 8.491452201695722 8.618449186871292 -0.016901403741028956 0.5750722163269129 -0.16618479549161058
Ni 2.861802375069729 1.4263120123040165 11.897383869042196 -0.45733831724783813 1.0491666699871673 -0.2866222095447773
Ni 1.0983821408877787 5.163606765061495 6.867641429506686 1.6348107482926555 0.6097797950114272 -0.5173329526339155
Ni 6.410484762921998 6.24797504281889 3.6990577082396174 -1.7436203482989066 -0.15012208560179305 -1.36524780822301
Ni 7.155436545772824 1.0177933042792702 11.325634675818442 -0.03005002530784502 -0.17130771854047272 -0.23090666115002814
Ni 2.544309912130807 6.367476070997113 3.2385681873570595 -0.09028377328792193 0.3106028887300909 0.9719929517186422
Ni 4.891832705863684 1.492969098261422 1.803526706144742 1.7400956229751 0.23181066102153625 0.6444678333119159
Ni 3.698939101325102 1.7521981953470733 3.8407364047103756 -0.6802940989819058 0.08279723510288967 1.731949853939514
Ni 5.370384235105107 1.5103860674775031 8.007133639326229 -1.2392557829002013 -0.16078573596322632 -0.29928617816569103
Ni 8.264128364614596 7.183838339994752 9.064209553692853 -0.9599133948462886 -0.8424692590934909 1.2927031040860641
Ni 2.3805958756649317 0.9933785271068067 7.297484748400341 0.3618421465210413 -0.08502663865404067 0.07381405776767287
Ni 2.2931825796674086 8.931547719807874 4.249401090476063 -0.00831340496170181 -0.507770762866777 0.3554506411724007
Ni 3.47338524435289 4.897580579413255 6.039414819614028 -2.489959659736344 -2.5191666203176033 1.3802951894744357
Ni 1.2450167816635007 6.827807753447278 5.024829376191947 -0.9816248183814514 0.9108181799815346 0.7209851489433647
Ni 0.24196905394108234 1.9138320490045329 11.922221069302507 0.016579758735552088 0.5631875490741849 1.5852733036841602
Ni 1.5974344191226724 4.8119737579598825 1.855484745950221 -2.7002990382579815 1.2143489923561925 -2.250566815492176
Ni 0.2110080874482742 2.6768120828616317 5.834895442750604 1.8454224066390734 -0.78213549520044 0.2410167530008365
Ni 3.932768071486935 6.955264568506813 5.274749655209936 2.459614214675267 1.4309268955883745 -2.2315730479984923
Ni 7.377468689744823 2.2167814795021585 3.056616056882307 2.3431699809418935 -0.25392214820859493 -1.5779227768563597
Ni 1.0941122919652404 7.9310436542213605 1.9393562570081515 -0.6310181355649133 -1.1555645752281325 0.7637253681243685
Ni 7.896182344962773 7.686777275582212 4.554711710933418 0.9104543688842126 0.2516492930140182 0.2574980384853114
Ni 6.647497872558118 9.081968658239266 2.7450959082696538 1.5936270749654942 -0.9526379442307982 1.465794911110153
P 4.378173529925832 7.267848529906576 11.794897458931583 -0.8880875711532382 0.1200769453899545 -0.4706574029542475
Ni 4.271573284603313 3.812153963034033 11.649746316948178 0.6583440770733759 -0.285006014097593 -0.18420180089432148
P 0.04889524432835046 4.737196660162607 11.794764254242974 -0.13703285651800273 0.28380479470064024 -0.44133474273073026
Ni 4.768764346641204 4.919121419810932 9.5485208171753 0.719850006897657 -1.0410193582896845 2.2851990608540644
P 7.978532038071388 7.6830001015353515 1.7017738341823607 0.14263888985087048 -0.23136020374767896 -0.644696147272638
P 7.375178663933804 2.048998313507539 7.426290945202703 0.8285729607273731 0.42054865922331447 0.5292135061215855
P 2.591661441848702 2.594006209312574 5.806251872895242 -0.03914787384405516 0.8291830835075462 -0.633157036284787
Ni 6.450510034766392 7.961279293813867 12.109368182633016 -0.8376615532922025 -0.11526049783791761 -1.406759040092919
Ni 6.321182879901045 0.12774512109789368 0.6175269004221221 0.1591062913782744 -0.02458540264884798 -1.3651429072140298
Ni 4.0758536284360165 8.935790197903986 13.22358252188678 0.2241703708674591 -0.5604362115812929 0.15729880585589037
Ni 1.1879577321729975 1.3940053135119042 9.92937126912635 1.114270858685668 -1.2816190783577606 1.0619435100368615
Ni 4.377206427392095 8.598672852417243 2.9672959266437355 0.5474081747527412 -1.0813851637012408 1.2806911672268524
Ni 2.231579972990102 4.053509910463161 12.628758809624582 -3.452198617392016 -1.1155870063939304 0.3887672530466595
Ni 3.6126571328198755 3.238872003530394 8.073632886851243 -0.48269299396254284 -0.29127153539133066 -0.09879669585493953
Ni 7.008099387118821 3.3725602434063675 11.8205220266321 0.8114342441645574 0.6606634692351718 0.7238452440999792
Ni 1.3666983523470373 6.378324041870827 13.148163122029361 0.13501891141176747 -0.27495942849486843 2.0585195504115066
Ni 8.256829477567521 2.814761048051335 9.796452149472962 0.0185448528817229 -0.32537567616389124 -0.9408697479512765
Ni 7.726629198859238 0.2754381004954413 6.08798070166438 -0.5918694903899097 1.5306831271431056 0.910903026385857
Ni 5.135168476404331 1.8349493272432778 12.574504357481917 1.1084357400611298 0.4262017437440337 0.6714556747546694
Ni 3.758507143238037 5.644101622979202 13.129227984307487 -0.19567457742061137 1.095306144657707 -0.28515796629442497
Ni 1.0915394342811466 2.640500119802437 8.124989680836219 -0.5856463922983334 2.4551559217935974 -0.29020889845477116
Ni 2.1902044070419997 8.31683545270328 10.905860171606227 0.5151374876444935 0.2161665267263761 -0.4937945031923431
Ni 2.397766507443174 3.517890208122425 10.251440134243786 -0.5356237805233034 -0.62239002757627 -0.5751897157413836
Ni 7.230314003266996 2.3022423232145894 0.5809695122859698 -1.720708990918372 -1.3888345944040146 0.5920453538461417
Ni 5.607561569699786 2.5693815891375076 10.145067066780607 -0.2913129301522273 -0.2834785217094731 -0.800614527841234
Ni 8.383611145575202 4.170501946218953 7.527308454295091 -1.8356964376005611 -1.0719445871136313 0.1567285351747172
Ni 5.7714945727770735 3.751126143711683 3.3189015629189207 -1.447660149182655 0.35424633645165443 1.189612923062093
Ni 5.779231393046973 5.187063563309029 5.66832571672756 0.30343491022674196 -0.19417793827042687 1.044419642220485
Ni 4.817639519030174 0.22090264120146424 10.705773956263018 0.7291545721280345 0.21225844992122156 0.8493978678925242
Ni 4.326086847236149 6.167970117174147 7.781315197698562 0.1419752881249426 1.9800325126481966 -1.750268963963676
Ni 8.580170173752911 7.197998180866076 6.855062710041935 0.07137870885330289 -0.3804350790318803 -0.851830902814049
Ni 3.3942744323714136 2.766579269931836 0.8281572704657103 0.8420146880545756 0.7040649761492584 -0.7759787315704249
P 5.819375271805881 8.235799559263139 4.769820860541267 -0.32786681801686113 0.5675455689325645 -0.2083930534285443
Ni 1.2017343814743504 2.4142893629959885 3.5626935139000095 -0.26779556375657754 -0.5075792156812613 -0.45640423546934306
P 2.7567075252006683 5.213777489901321 8.817894012515238 -1.913999641487839 0.23013533020164237 0.21875202806536517
Ni 7.207769565900346 3.087347108433132 5.420541274531721 -0.9970203270009153 -0.18421465641012788 0.10410628099331104
P 8.565152713653555 3.9080795860502064 3.0922957538510487 0.9544369451127498 0.850842827869167 -0.07637127697188782
P 5.151864680524513 4.118944432840181 0.33049451785240336 1.7454743707885099 -1.217475453800316 -0.10886462161390283
P 1.5823530937616554 1.8738067771601394 0.48696805836758134 -2.3689895131081586 -0.3570663223989528 -0.9895327603746183
Ni 1.4932154356992609 7.435960145818314 8.600955579341216 0.5334072324879587 -0.8594331406413391 0.5615165891296652
