# total energy = -381164.5760748091 ev
CRYSTAL
PRIMVEC
9.28814589463863 0.00000000000000 0.00000000000000

0.00000000000000 9.28814589463863 0.00000000000000

0.00000000000000 0.00000000000000 13.59414037698596

PRIMCOORD
 96 1
Ni 4.525073214126134 1.1963967824297257 10.33143779282366 -1.116873586415838 -0.764433964155619 -0.5572650129421629
Ni 1.478171263937777 4.0002372431305195 8.584128569845172 0.09331047592938768 0.39580436239909894 0.21252892997378883
Ni 0.8042874872195187 6.428530101536589 1.7121823840815864 -1.2416975595724744 1.053238783174012 -0.40117642534428977
Ni 9.04854886716121 6.642361795945343 12.182497462891222 0.5042182696288283 0.4278948151757405 0.5673419375621906
Ni 3.757584432061599 3.2965115825200764 9.232446725033585 0.02243647462664523 0.5142460861784756 -0.16146399297717354
Ni 8.955333035127232 6.98660834663041 7.7246797130693965 -0.04590241895906933 1.738823955351528 0.38561842300503263
Ni 1.7595649314648205 8.181231093197393 4.426116379124817 2.191609363121361 -0.4601840142267494 1.3068189746621557
Ni 0.8413871283009576 5.896254325692508 6.00544298219329 0.4946748489147674 0.1314743885936187 -0.4841711211699662
Ni 3.8175394137056133 3.0035170207911155 5.025251015444207 1.471399144670808 -0.18233543710954403 1.2662991601712386
Ni 5.736618962483262 4.880781336824945 2.2990678136167575 -1.884237065513426 1.0644511069500637 0.7267626748570903
Ni 4.911794455912375 4.764122224594298 13.463609566247165 0.2866597476509321 -0.6987960144408352 0.10271454285210696
Ni 5.416215082267627 1.3355517839774602 0.8065333608928762 0.7946264285785992 1.832888792948437 0.9042664949059459
Ni 6.494188004749841 8.733727162618395 1.0730557780542758 0.14469988614495724 -1.9051751012176739 -1.3187051845767803
Ni 2.283509240456124 2.2388053943441735 10.983820440648389 -0.205773099307194 -1.6063936306025433 -0.664668733739823
Ni 6.388098802528627 0.318701363076155 12.172315797379499 -1.726143274560066 1.529789925904875 1.263225406341921
Ni 1.9817373808722303 1.7148889497905044 8.32560881917246 0.5249287627033025 -0.3516950307847104 -0.2797342241756924
Ni 0.6124389764753745 3.826576779645137 11.451608619659877 -0.8534057035003366 0.11245388162705794 -0.729239418532357
Ni 8.10700023133853 4.884840256573734 2.4923494852699135 0.8671114831222034 -1.0901104593893807 0.5706581464196172
Ni 5.71867426464651 3.27495379593669 7.063134309335787 -2.5525241127321263 0.19703237700008647 1.7855082467819445
Ni 5.43363035578932 3.2500058361077477 11.060410491560324 0.3511676975263307 1.4395884279181144 -1.7572307399934899
Ni 3.5683198835007803 4.973077642416977 7.313131257350628 0.34056523942013606 -0.9381839735889972 -0.0633920911034005
Ni 3.1278945822465762 5.184838080294885 4.943019344725831 -0.08137952881975663 0.36699617991815503 -0.07534180726610895
Ni 3.54857328536365 0.7299981100416222 2.94203042389178 1.4307214644457875 0.3375634764793347 -1.489416664294151
Ni 7.243193376516685 6.560393908569909 1.2049585953002837 -1.3522346837927937 -0.8171935152458378 -0.4585642192351393
P 6.756410939184206 7.070888982329526 12.83701452663877 0.21556617413821583 0.4029252897145964 -1.5316143807081237
Ni -0.03126389902614302 8.569522031637057 0.3154421526874819 0.08463274564973167 -0.4737319281145132 -0.16629252471406847
P 3.460642408334388 3.950750001891277 3.1762570290199643 0.9828064973943785 0.27919712072529984 -1.5632512908871141
Ni 3.158294683706043 4.37269189284779 11.531651074394752 0.6609630027534618 0.9546290065188979 -0.20165624892534303
P 7.659692413988553 8.495003237255968 9.141882658647843 -0.7964359709835122 0.3551261679534465 -0.6060025873571822
P 1.7244557400450877 2.8916413036877606 13.01727328895605 1.2306361595519903 -0.5177456146913019 -0.21814833304309528
P 3.8009879377505964 -0.07077845803592325 11.95030960578331 0.17882253886027913 0.031843112652525804 -1.0793853596623926
Ni 9.060502710906501 0.3928504892512901 7.836002785492996 -0.5066929564215661 -0.686628782950682 -1.0400492810669313
Ni 5.311686288553957 8.068073611962841 10.638937651970663 -0.5175748934413925 0.41167218266929106 -0.28992530577608133
Ni 5.040695344410538 0.2755987933136121 7.939942710757985 -1.7282253539000751 0.7345106942336254 -0.5006326091600991
Ni 9.284811433865904 1.2572620023698073 5.4124793899954 -0.5729248309666068 2.38856589257819 2.1635632556174222
Ni 2.18252851846794 6.358237413530098 8.673809333557893 -2.076056530854005 0.6763073464200159 -1.183684216282484
Ni 4.185127074982689 2.061281062173445 12.585197102031792 -0.5711775092581969 -0.17983298240266446 -0.15898467819874554
Ni 9.209716774440365 1.720731193547915 9.908198347887955 0.07014869310094371 0.47761480810868717 0.5397403737948382
Ni 1.57157285888932 4.400751381545942 2.2679924639519426 1.4051991518049671 0.6917761314795764 0.16972803275817863
Ni 7.993944919708639 8.49440879591976 11.265586562825149 -1.1366165733707199 -1.227700473962434 -0.9690593230116149
Ni 6.594917946799312 3.2609472719523094 1.125583029439465 2.0802032060325275 -0.33130129761970684 -1.5853105846799989
Ni 2.9856930688507806 7.0119928493156305 6.2767682995883245 -0.11365792923748813 0.38004889933705516 -0.5619552193289805
Ni 4.180464425751814 8.83280381470154 0.4209341271287251 0.5257692563267267 -0.4237360558123605 -0.2273261428876214
Ni 1.5778144929194948 3.4062788905090713 5.886861223765847 -0.45323535082305816 0.09496703769620418 0.9120772491996162
Ni 2.6532145989934377 8.714036293356534 9.314093242561631 1.9830774701221072 0.9368477712760768 0.5598435723026165
Ni 2.1961170758877997 1.5313180346530444 4.39551565371438 -1.4465224360337863 -0.5994485882887483 1.5961079324058187
Ni 8.808858974627448 4.349582985902739 4.741268741660898 0.01494145180118072 -1.1824531720888602 1.3085994636013463
Ni 0.5255697345199949 8.313587171962258 9.541237636457662 -1.1655623098707926 -0.517160174501477 0.36838329007366877
Ni 6.847332599186259 1.3141426077281257 6.700878043792819 2.335068434880682 -1.1334191494793446 1.4122776559183032
Ni 6.585100376606017 6.484231112368372 9.411699581152254 1.0806649977057647 -0.16240116007946223 -0.29552259735820074
Ni 2.023171799635042 0.6002055595391497 13.419578181896796 0.2835775091811826 1.6649610466237907 -0.22251509465222322
Ni 4.037027588954213 6.498033297143431 1.2965564323222736 0.3994005643907896 -0.4442364897585575 -0.08840969619366065
Ni 0.2915939093305226 2.998603591621529 0.9910173007701669 -0.38142675352118827 -0.5559817753543651 0.4636424050889951
Ni 4.0458977682679285 9.127395937521557 5.277164107953729 -0.7897341334833045 -0.9449845414505985 -0.10716666508618962
Ni 5.3460617164493085 2.5381623359997256 3.0029866676614683 -1.6577745561776804 1.2110836913413594 -1.7245787582864234
Ni 8.059101263044466 1.0602046994171483 1.4109492369586303 0.34533849243906334 0.41465466233638265 1.4885730853469332
P 6.663798836632312 2.657524298680939 12.529542531929401 -0.37327969893402163 -0.06528596569200369 1.8042536457102474
Ni 6.523408511682772 1.385930687221013 9.268023110190994 1.879006670352422 0.3106576532274263 0.08753089313313313
P 3.821728367496698 5.810979858384422 9.775233895568066 1.3122486303181595 -1.0850289311014152 1.1821281846492737
Ni 8.483309461595269 4.847464757559711 7.786193245591778 -0.4785607169617242 -0.17731175864270754 -0.2880697406245813
P 3.5401675133438464 1.4713909174466646 6.564148177133892 -0.7204971535633528 -0.036949323530839594 1.248377285585495
P 4.395169205873122 8.14954922760673 2.7199564288306792 0.6341160577639466 -1.3028797875087497 -0.09674906929729145
P 1.8774965196807856 7.184873108547241 13.184344741755412 -1.187173203272349 1.5756766611346606 0.9498593530443964
Ni 2.7084976432606993 6.6423060670700735 3.188723578417733 0.6367334407821357 -1.1011551472393164 0.15040336428763773
Ni 5.384616809989867 7.123144091040483 5.604333473627071 -2.263586881900927 0.32324088920907557 -0.6092285504936475
Ni 0.10328511098057427 5.786514882141147 10.002663435542559 -0.6026526970483427 -0.1893182961852804 -1.6368591461812518
Ni 5.711280900527434 5.01556162166403 4.77873433568994 -1.1074178403195765 -2.3086886593355724 -0.41900882554002034
Ni 6.5211514922343605 7.796562531650241 7.309175436021088 2.2600469870684687 1.9935313184655796 1.585699078367669
Ni 0.6088119555099233 0.10093613888796835 11.662182032494545 1.82499679179487 0.7163617912387406 -0.39634892204865935
Ni 7.526686165012211 5.9639927735824845 5.7720857475193075 2.498971633426967 2.0247020876414292 -1.3333915829443617
Ni 6.121092472966971 5.579686449724584 7.265850879572055 -2.107945923363434 -1.6780171084768003 1.9695742934293496
Ni 7.734796361559971 4.837879391013373 11.362335605551209 -1.3813444566745567 -0.20411602331974527 1.337121225190123
Ni 2.3078256063653466 8.371656659992992 1.563516321154538 -1.4104801976982482 -0.9512318079118908 0.9134044526514721
Ni 7.674887820645347 2.562664464826513 3.5359581256318293 -1.727013592980161 -0.43530036361119223 0.11416443656026146
Ni 6.535176592510497 0.22071328168993878 3.203540957537283 -0.10743071738085368 -0.13799007822494944 0.19782376255313028
Ni 1.4717903077194285 5.163159547815082 13.309710561932317 1.1465171203138835 -1.1955305740981086 0.2298792483267783
Ni 1.8151266201084293 6.987258516841887 10.913797108872366 1.4055174543763342 -0.15581913598657032 1.43205021055954
Ni 5.565568467989665 5.7795673490242265 11.386411408482184 -0.6606241313568042 -0.4094422648975078 -0.05290224731567018
Ni 3.8602463084537435 6.879181651402731 12.51246813336144 -0.18017802444690903 0.3869469120084691 -0.46957753962650745
Ni 2.0039639139588497 8.904824097841384 7.0657990783882525 -0.23351478819683655 0.5297187278927781 -0.6225471219794245
Ni 8.474355688968648 1.7391495868244573 12.87880282375954 1.124374008557941 -0.4299586396833047 -1.241446877014249
Ni 0.228979731521569 0.10159373961614745 3.602609860454052 -1.3788815969563606 1.6160195837280815 -2.1011872644833622
Ni 6.139613035848175 7.009011354488717 3.463691706626213 0.14591241839581967 0.35820300710655734 -1.0642402764908383
Ni 9.116361620218212 8.311070084429257 5.560166482346883 -1.8846926649936058 -1.9051324209051965 1.6711324655418252
Ni 8.548317194597045 5.069971580218738 0.18484339112277842 -0.5998540512572831 -1.6018713172521573 -0.18633298830471134
Ni 8.293719827928712 7.893670096807201 2.597445784696744 0.3574512165421973 0.015539747506811946 0.3704149757917169
Ni 5.638313226508011 1.4653536226258108 4.845971223702492 -0.10978584787659158 0.19396659359056917 1.2088527451283118
Ni 3.3535315100665684 2.5866464574841186 1.0874867703052915 -0.8998555103224437 0.8482814948998939 1.2779300595419476
P 7.009977321660053 3.320762931408151 5.556985292383587 1.2730089680912464 -0.09595074176571217 -1.5325101530495155
Ni 0.5181698686988041 2.826921503208211 3.4754096314661953 1.861077596677827 -1.3397352657742023 -0.5034147998909265
P 8.007357002356812 3.8281464762985595 9.606067965873162 0.8718489978071888 -1.5104614007795922 -0.6663528063104653
Ni 4.311176502696232 7.258119426943011 8.132368015361168 0.8966981956403847 -0.2305968432190932 0.6097386573608466
P 6.839381946314489 8.825298992831925 5.364329641762624 0.027548084821597717 0.11965785557466488 -0.686850926263817
P 8.913285598736456 6.323992019677041 3.986114617322661 0.6499910771229902 1.2549639376640773 0.13079870268283278
P 1.3658404276863882 0.9793513895471022 2.143102196844003 0.4808428281276815 1.4459588502208323 -1.1957745717881147
Ni 9.001383662391527 2.659335487127195 7.698306951662732 -0.2932962791308433 -0.21936934993438995 -0.6807813230309695
