# total energy = -340871.28861136315 ev
CRYSTAL
PRIMVEC
9.24608764025793 0.00000000000000 0.00000000000000

0.00000000000000 9.24608764025793 0.00000000000000

0.00000000000000 0.00000000000000 13.53258387038032

PRIMCOORD
 96 1
Ni 1.1851172528658693 5.836287552192202 6.597350573890427 -0.6711021480699926 1.1506357704679473 0.7477634454784735
Ni 2.4991157180406702 8.312593172609933 5.290725863419433 -0.73310044414966 -0.26500745948847904 0.5504238216506133
Ni 7.5839275165627065 1.8168006981441476 9.828187779864981 -0.9369986950316443 -0.8667309598543331 0.9948374604169835
Ni 5.958724241581317 5.992176585804985 4.7561485264813035 -0.3152707265194054 -0.8094485811930964 -0.4096515526948365
Ni 8.759669236802042 9.073601642392482 4.313862860172636 1.1004362667954208 -0.3512098636181758 0.43976122759602326
Ni 5.819616856604784 8.280731155419563 4.071426750033808 1.0676842691753805 0.26440093625273176 -1.4405762457526803
Ni 7.320173627307767 7.859285245508276 5.863086411920747 0.1350273960521997 0.4401276097965065 0.41680384746890153
Ni 4.88248891397192 3.3155452357161628 11.462450371283726 0.5511599284856895 0.4086351956151801 0.8281073339448641
Ni 3.1214513689546233 1.7960062475750402 13.578324087953126 0.9926080568658325 0.6405877815312193 0.8092390362854515
Ni 8.680060424263129 4.597663191525788 12.85963496021362 0.7287822763902804 -0.17595035951880664 0.1381263466924976
Ni 0.5284592009036354 9.26162082973032 9.608255721856057 0.7741717602686732 0.2680627013750351 -0.09997117577901493
Ni 2.3653710637578165 4.114481156025381 6.195162414821887 1.0136849321407897 -3.756514130451498 0.3351960046884227
Ni 3.490518193728519 5.780302492967682 5.205335472427492 -0.2579482386488525 -0.6451154941982438 -2.18998365459248
Ni 7.542440322385923 3.2321455273420643 5.6737385618231135 -1.40454146361631 -2.6204778550642804 -0.725032579539861
Ni 7.3117504416837305 3.1606085491058775 7.983209630360516 1.1769191296445087 0.8125665579967878 -0.2519789084392951
Ni 1.2063370234555097 8.734889722562286 0.3755400105646611 0.9301811578891788 1.0110518653933167 -1.0380962711056185
Ni 4.609775566023578 6.733740533779249 -0.059888757326021516 0.0956290967602353 1.906250850780356 1.3715706651172443
Ni 8.35805618436996 5.399178770220413 8.78973751303625 -0.07036569420775622 0.2615220720430399 0.35715836789212685
Ni 3.5903574455049627 5.64426480900891 11.72660646534069 -0.7257967113993952 -0.7187680866873879 -1.476592001725657
Ni 1.7642459373461012 3.3468894720119717 1.7300058264757059 -0.06284393190941436 0.5193425268647766 0.2306287248982931
Ni 0.6013581278142683 7.50766578766364 2.347375403845565 0.127823936325225 1.1112883790185766 -1.0442039266652534
Ni 1.829523314410529 6.40454283788663 13.577782267231315 -0.23078787618397673 0.30192747244328 -0.07554980951185698
Ni 3.2434442461484 1.534443681034587 2.5203354886303106 0.036912042535000945 -0.265603184090949 0.14949653620265224
Ni 0.30174606239342805 3.948458410619026 4.910419494798581 1.7789215947033619 1.6693992849008024 0.7601067975351748
P 0.5091996008434083 7.635594652970074 5.791905408049573 -2.103796162861119 1.0690392405413782 -0.10846712906516803
P 5.563315313796577 1.1509899442617895 8.770629548809431 1.131792155398883 -1.5305016072599191 -2.7632681828913506
P 2.30546566347447 4.3885721709967545 13.229887133392566 -0.2022208631795614 -0.9962659653333938 0.23794582738499664
P 5.714128245425173 5.151189459987407 12.340281306184353 0.6488343378107277 0.4362449869126487 -1.6358322475786344
P 0.2879250109435829 4.097754983913547 7.508554336663059 -0.5128222092477555 -0.9171929731596268 -0.9446868077045214
P 7.817733328719672 4.608592066836008 3.896301231579304 0.04209307251530815 0.9401467537423228 0.6717881183934237
P 4.506071449712724 7.487740469310405 5.5443404932283595 0.6264587983290051 0.9898546624904114 0.6906900975042491
P 3.2523204900551774 3.482039531580065 10.264749193462519 -1.2760647241984346 0.4926861006195128 -1.4565440819358464
Ni 5.246784757645923 -0.07354707763757574 6.647570697619244 0.00042988844856700154 0.9997924904294138 -0.27690138271258763
Ni 7.86696874414008 0.7920050531920091 0.3659314765355742 0.816215981823917 2.3660880231906476 -2.1302967802548087
Ni 3.3134093895260945 7.447372051709372 3.168992901162821 0.6368427126664904 1.3779032922034915 -0.4518862929943314
Ni 9.191063936758841 5.140279076851994 2.06235181512901 -1.157487246172142 -0.4656092990073788 -0.2746601520868947
Ni 6.833810937740765 3.7679100619027253 2.3434781780052454 -0.6870779546729586 -0.5626082795319471 -1.7546341829109073
Ni 3.3940907482037432 -0.06659217069311928 9.16364281534808 -1.1287214868933593 0.931281332931893 0.37832111801267104
Ni 1.1643967709959848 6.359264747874661 4.227443379652751 -0.018025747153459278 -1.008759212704398 0.5463475946987107
Ni 7.974251096275854 6.775144513169407 3.6796311932061196 -0.3330468195559038 0.1647130960420905 -0.5310492737787436
Ni 5.828308178763504 1.4940290329965398 3.402551842786131 -1.2968333242043535 0.8604176160417957 -1.3433772334021639
Ni 4.823526614603669 5.379974646684603 2.5824497791942087 0.45928438523061543 1.4285522247086107 1.6691709709400804
Ni 0.20422480472888987 1.5315681478522871 6.002620966135293 0.06555773129615161 -0.1034755893878476 0.9576130288478865
Ni 5.289141084038578 0.2709686112554166 1.436849379279566 -0.9065838301852128 -1.8052435204273427 0.11109171117220867
Ni 6.676849357989245 8.191339982408389 13.118391339227296 0.3408004953593937 -1.3116747600925602 1.0335798712925037
Ni 1.8534059581722027 7.535200635949457 11.187210992256913 0.5401972588265987 -0.30960504359319585 -0.7999838362357706
Ni 7.945671440113509 1.8101157769518557 3.5086063145147994 1.1911571276207615 1.7610393151063024 -0.5272327282461308
Ni 0.8719069667015935 2.1427900017079624 3.9282926939933156 3.3757437795673857 -0.8715484358476344 -0.6846456910823823
Ni 5.192343795017686 3.280141967050484 8.769059563168419 -2.002405738137074 -0.2274428709711438 0.5290561546081146
Ni 8.960096673434562 8.34533356810358 11.912475937357357 -0.6119870870753912 0.766039618079842 0.013447640864473613
Ni 4.915118356416731 1.0771506902622823 10.678074264807845 0.005609375766977436 0.027115882380185558 1.129057015855907
Ni 5.828030796141418 4.595656790559359 6.719306466734592 -0.8465825099309162 -0.397543970798025 -0.22145091505376702
Ni 8.02533572917684 5.441812479235154 5.952563573544769 0.8240547611420452 1.3393899666196416 1.1142119804232746
Ni 2.281462820576558 5.6042477427291875 2.3444120328329374 0.8022736607112118 -0.7177152199428414 -0.8218279286940556
Ni 0.1936426576962783 2.078409495121615 8.366790038530734 -0.3505735155857575 0.5490485385696414 0.3596302264713871
Ni 7.278455280945912 8.683065402669069 9.53198659608707 0.4799889647678185 -0.277845748903728 0.9096097614957301
P 6.109564911472121 7.432458112728505 2.0192373095693177 -0.3177042756615625 -1.5479637686004244 -0.3113983880481927
P 2.685063781800261 4.16074857738946 3.9292533624744763 -0.5504243358712456 -1.0037681872477098 -0.8374756625336415
P 5.145974666692175 2.456269349015662 1.535271205857146 -0.7256493871882536 0.6398197930169433 -0.9679102970088362
P 1.581312098079854 0.6372089071102474 7.585135055577524 0.025736742644471802 -1.6148384189357865 0.8548684040887923
P 4.28540432775527 3.0660765514986945 6.655256970077269 -0.7182536089448146 -0.3451924537795023 0.24603297526850534
P 9.174004905500503 7.175879187298212 9.876390407322488 0.13994308818626222 -0.33112029195715226 0.9595734950083668
P 6.7054197680641865 6.42627114328343 7.4237455245687585 0.06014221670753512 1.2609795477305379 0.7588631549360608
P 6.951439661680375 0.4233043734792684 11.564458755164889 -0.0030107618018657824 -0.053523168729120725 0.43586729185825573
Ni 1.0063164146687156 2.4372316550531044 13.160952004151554 -1.3204692184557387 0.508774521540943 -0.5342544109796025
Ni 7.324223413590235 6.603167287475587 11.065796920134558 -0.34670143422486094 -0.42785496307674054 0.32122000212430485
Ni 7.5457689138509645 0.7427613162929388 7.342062814625377 -0.8820814741684744 0.2366340505521086 0.11338873473650149
Ni 5.468700101402769 5.784019420103644 9.055679951179453 0.6176733388268911 -0.9734188855318912 1.3594813380528779
Ni 2.5267985037249336 2.437268639402716 8.368752982886368 1.6717014506714176 0.3135226334800471 0.1542240235853086
Ni 3.8075387925115267 6.120660216355593 7.439334427930038 0.34877297204190905 -0.16378415646991792 -0.26005140103478436
Ni 4.984500996288045 3.4367059650436786 4.534971945107949 -0.7576745339445984 0.7837195518581083 0.09973412006754435
Ni 2.120405224105557 4.782797599593923 8.571795213036427 0.1387413545686772 0.37607114563622973 1.4604449596521494
Ni 8.766853446714089 7.623482278472284 7.735928570422573 0.0493384412238118 0.10694529310400291 0.572433493152485
Ni 7.518345018613982 9.024458687846103 2.221644333514799 0.691677401118183 -1.058209496915726 1.4599307390198923
Ni 0.47902961764776697 1.2256243617779456 1.9080262948960556 0.16575310727083067 -1.154072049843006 -0.7112653505524394
Ni 1.3857758416834631 2.497248008385286 10.791206616443429 0.04118907264380003 -0.5333146727741525 -1.17202709165953
Ni 6.895408372018841 4.276259947313808 10.36612144653036 -0.43067649168593564 -0.28782779981710427 0.6399583754773365
Ni 1.0341933681884392 4.983114083177609 11.03224934121064 0.48043248006314027 0.0014171920625007852 -0.20011924345552634
Ni 6.888159439494973 5.63004432658326 0.4792505991366961 0.4448957206091112 1.7306915560523806 1.6692460471523896
Ni 5.179112643944146 7.951302307341871 11.312022076891092 0.30623355601780167 -0.7912726816150178 -1.580806526162058
Ni 5.442727841888041 1.3918412750197613 13.002904933738934 0.26783233053178396 -0.5167331142663875 -0.5452060248950997
Ni 2.1065638312634256 7.611092521352407 7.913124287846584 -1.208819320787215 1.287834463139853 -0.11948250633906521
Ni 2.922244415859284 1.2770510999128388 6.081705525518462 -0.38527029563699455 1.7488710551748847 1.102743317662043
Ni 5.237289025883151 8.017152941825278 8.692046127363499 0.1246609652162111 -0.27505893018721017 -0.437305309856363
Ni 6.636046374280276 3.331605689534989 13.260389051125971 0.7288231569305448 -0.2727431375698399 0.5729199458706005
Ni 3.562434261548224 9.078326393055361 12.372746168273393 -0.5367028725200951 -0.6595144432323932 0.9682178009469261
Ni 4.468143999186056 4.486284822670533 0.6302993059940651 -0.9648380858414158 -2.395423281819655 -1.4836833613547995
Ni 4.182698788883929 0.5493202233020437 4.470543358867107 -0.8726457826768714 -0.6462904883429514 -0.3698344206978985
P 8.677471519790318 2.9439912134308894 1.0904835482972548 -0.8580979667696835 0.5890708445988501 0.03230616833187339
P 1.6317125205130263 0.6294569874316616 11.955279774380312 -0.8286804328395148 -0.5627391486828567 -0.6246104322663566
P 1.6210332895626844 0.0478096687428815 3.52672679660699 0.8165088304739875 0.296642827005573 -0.8273678846756782
P 6.879791730395354 0.9391250975118887 5.1680663433239085 0.45324357835317425 -0.6915352191133639 1.8204559665017228
P 8.872573210078773 7.118877058459374 0.23464813071937052 -0.3685668668393846 -0.6587798790592138 0.47438267432463455
P 3.4039933078122417 8.321099573020595 1.0178361149639805 -0.8833755103895496 -0.22017204834134338 -0.1169150027222051
P 3.2879826491681374 6.645727027791106 9.531837734079883 0.44194897927596144 0.8152307350925122 1.0383554383042761
P 8.620996417933444 3.2503325812635557 11.002869898487946 1.290102176128107 1.2016318018998402 0.98266560094114
