# total energy = -381173.3383771528 ev
CRYSTAL
PRIMVEC
9.22122051282982 0.00000000000000 0.00000000000000
0.00000000000000 9.22122051282982 0.00000000000000
0.00000000000000 0.00000000000000 13.49618831578069
PRIMCOORD
 96 1
Ni 2.5012467871940887 0.9028478360650759 4.200134908746315 1.2143423074879731 1.9444666997284445 0.5088850789768785
Ni 7.779122884845998 5.359594552017138 6.800837167567145 -0.18184281374384167 0.49760564940831725 0.324595346354441
Ni 9.404353742825828 3.0715977056547232 1.1343299736887746 -1.3544478893940288 0.8473929216473536 -0.15346374838051635
Ni 0.9173850898798789 2.2685769563947815 7.862852487360297 2.400011158300654 2.068054486485135 -1.559555844313398
Ni 4.504483129240025 0.6600946008594973 0.24782398425268298 -0.97421592751189 0.217342035091716 0.2529721255904998
Ni 0.6313843314320384 1.6392378916269508 5.581848092357074 0.19974360528366247 -0.006959976257600917 -1.144664383375861
Ni 6.383813934013835 8.705606552803307 12.692570823212593 0.8132738684764573 -1.7962477446866354 1.7445112355442924
Ni 5.86084164549323 6.246694388041035 2.670504130182652 -0.34529118414089566 -0.7750204814222137 -0.07953681918406301
Ni 8.115356240919047 0.4060684238279774 3.8402860074657124 0.8432161645618446 0.1256978911211577 0.15930555187327403
Ni 3.6709954680840418 4.95417437997678 2.860192931006585 0.004226893597154011 0.42266313446315595 -0.1602820568539304
Ni 1.6140178540858874 5.253734942886827 10.192834471904876 1.1355284825128638 0.3075322202245671 -0.7040924869530842
Ni 3.118266301631075 0.9734381217631917 7.01287544005041 0.49578222304633324 -0.2870590399718798 -1.0133815419677579
Ni 7.814587698148715 2.9945451887650987 6.511289927789032 -0.1038352867201115 -0.19234319905453326 -1.4178032137222227
Ni 1.3369662899464938 1.3136827086700096 11.357987296593562 -2.0690764999917466 -3.2188725481672176 2.3560527504418327
Ni 8.930143267291381 5.0812427958143855 11.364991735539153 -1.7630368051523055 2.3315843329868233 -0.024139573360681007
Ni 7.009058776965128 4.227901847336314 0.64260840079035 -0.2725585323628596 0.28077037874969063 -1.1855888895043647
Ni 8.962251556402162 0.9500623282836321 8.923180323837174 -2.375830704399708 -2.0789541641167744 2.418466536792364
Ni 8.172961204180114 7.253919061010974 3.140279198749183 0.4807291853679527 0.4081366587122068 0.12300286078749785
Ni 4.027561614935168 3.336099188955585 4.592320785401323 1.3421243348316692 -0.7309497163552443 0.7230278904050064
Ni 0.775644790410981 7.856618020310384 10.842823537429362 -1.073055560789623 0.4521436604207762 -0.15480483578944304
Ni 4.886887135392818 1.4048068077489075 8.951589981482607 -1.0257228371419305 -0.5190432504568029 -0.3454012273561987
Ni 7.59952117691646 7.546886451401145 10.222957432283447 1.0371436773843623 -0.5566461484112413 0.7073698721527754
Ni 4.106559809309679 2.504354338437722 11.839004876959018 -0.14151686043128534 -0.34577506575584965 0.3180179502472394
Ni 3.0052971316436654 7.7764671733974335 10.496187722727404 1.0177431613705632 -0.2297815464066494 1.4937996238531952
P 1.5919699163306107 4.0367920564629935 12.098738989360893 -0.16605469767164951 -1.2969199703808891 0.464700156929548
Ni 1.2124152672528412 4.939033136231835 2.722923079142772 1.1233489097275364 -2.1504408593028512 1.778356980449144
P 4.952763533269731 0.5307983381955957 4.8291927262947665 -1.332026327165719 0.6526627104178825 1.5332691427027272
Ni 6.569031365110652 9.078641799123659 8.512585202960237 0.25422168172688475 -0.46211388425961053 0.6814840055249488
P 6.298121133696066 4.28566357134261 5.0596531527083926 -0.10643672889870058 0.08386012914976526 0.6967442741181291
P 4.06147726322622 8.210150385680336 8.617127099708604 0.35176907855575545 0.02573879952700083 -0.7364865870130736
P 3.390633485854249 0.26865011031721353 11.723085838595233 0.3946034001124623 1.4321222014480561 0.1007201381298975
Ni 6.068669508784082 3.8900732201500663 2.830312488722102 -0.931933107583279 -0.5307448551644472 0.12938562438539006
Ni 1.5640480612394445 6.80247577841579 3.887684924090419 -1.590345833111061 0.6682374249276879 -0.4570788929388645
Ni 6.146856235771533 5.2998410444244195 10.020406873374588 0.33835820446648823 0.21484935057684934 1.5498221619654018
Ni 1.6185178095959567 6.157940142581169 12.547082097688689 0.11643626331357367 1.008666395880276 0.27349955611989024
Ni 7.765272611944106 7.462281755079663 5.638950499111381 -0.34349861101684714 -0.34788388456873637 -0.45694082469910335
Ni 2.730523208920229 8.256127390133624 5.242162311400891 0.5540835298903878 -0.8964179453958045 1.9545297403914017
Ni 7.21257110915206 9.044200541275078 1.7476075169249696 -0.5485073213541909 -0.5082744419760731 -1.4372201847962538
Ni 4.521173537996633 4.677759080038605 6.9346656600121905 -0.21472876583858505 -1.3633840155413939 -0.08622477272719989
Ni 8.805020528938662 3.6538255558714425 9.4380600694159 -0.36595282625530523 0.090341880219367 -0.7188287647219942
Ni 1.8593299779268024 8.830083805734498 13.083231510028737 0.045472273400186204 -0.15759216872659312 0.3088717649715971
Ni 0.8231193210422093 6.469792592161138 6.136325602180345 0.21248599255099535 1.3548476959356086 2.0868579923448833
Ni 3.474472820890207 2.536139884837739 2.360726455171876 -1.446998090118624 -0.8642279909268213 0.47207382368579986
Ni 4.552857650973267 3.5274579527772087 9.670194147315343 -1.0895345322812526 0.8294337660657715 0.04221288592262408
Ni 5.628430008862534 0.7494740450562128 11.03241828180616 -0.625721148832032 0.04357942725284753 -0.23080613101642183
Ni 0.926299243551157 1.5809782217240487 2.5971391792940044 0.6937422540670116 -1.0768453668493585 0.09056196664997307
Ni 8.575070958130073 3.180795396536358 12.366529681945444 0.5365090113417341 -1.6747034707225352 0.526067761403752
Ni 2.010668645613796 2.777708193233801 10.168244243710816 1.3833362902936046 3.863796495179946 -2.6642076918520634
Ni 4.594943300456781 5.829351178143055 0.6874299863391051 0.17064591658675773 -0.36692084659552937 -0.24242494620227278
Ni 3.9971500303609715 7.522413332704991 12.697672924408742 -0.1765980204051346 0.187507982449419 -0.2728223275472076
Ni 7.358164956587471 6.7180370640598435 0.9395907105024142 0.5034906474341845 -0.057162565253920904 -0.0010343548017853154
Ni 8.537356167072323 7.719000528440978 8.089925959554972 -0.12352119518481307 -0.6999715228061751 -0.7317277321718495
Ni 5.334651151085302 0.9105530877540383 2.8234021062236474 -0.9711406310206757 0.19735787866030524 -2.0578024697398236
Ni 0.5169351555852725 8.586634368395702 1.5282411406633194 0.05865740463189253 -0.8114838664555701 1.2825775856162878
Ni 2.5253602782982494 5.057848559894211 5.260341947237164 0.5576938729494653 -0.32543018355091047 -1.1245727548323083
Ni 2.3395711315423666 6.853653551122519 1.2614334301635481 0.9090880846643052 0.9061570270604394 0.40980787576704264
P 7.376183221068362 1.9526302849982746 2.0100545123413154 0.8334804253313193 1.2292971290255925 0.8151510308945124
Ni 6.67906818704027 2.826119599848273 10.94076580680364 0.3645621165553657 0.21851728634673978 -0.9518460444571221
P 5.711669964578503 4.194189065892027 12.233511734765429 -0.3576599901188937 0.4185501407360469 0.5871029222392018
Ni 2.3020592073313813 0.6297835275866532 9.25135341123942 0.3775582717047175 -0.7251721904415188 -0.08173562660759472
P 7.818728026066791 0.26235939382342444 11.30583760726642 1.4010547906192903 0.34047859324360075 0.02342017869615321
P 0.5051319935916488 8.478865966661733 4.797854409079665 -0.21324523931452305 0.43604855463112646 0.7647615226983667
P 9.211372044230082 5.919359509564743 9.010851075910907 -0.8625382619292241 -0.4628595041763835 -0.017207107906905852
Ni 8.20943113049635 4.851680516258712 2.564788372089137 -1.8344373683824793 0.6639727361140629 -2.3545504548646936
Ni 5.395345223149388 7.560792051624883 10.58149692028038 -1.1109405087608544 -0.09718332862123263 -0.2534305532841571
Ni 8.880007492479404 0.8733528407894472 13.532222870144151 -0.3160783100223653 0.5795009415222278 -1.0389023119466816
Ni 8.799349478449539 5.53569219622982 4.516161804759498 -0.37773670626411077 -0.7510385166853195 1.3332563429180782
Ni 6.800806737540129 6.152647162124653 12.267683732981032 -0.5124578839298013 -0.3501328285039131 -0.4423616413333478
Ni 6.377820140813948 3.969080635744885 8.237884127877228 0.8228478853181378 -0.822542695372893 -0.11590250229729071
Ni 6.540777546088415 2.1159565390850426 4.351116715207407 -0.20381931801493286 0.4316149443398051 1.699080614015319
Ni 3.6901295002221426 5.816902530727904 9.27367614135986 1.1278462833772576 0.22988644741562989 -0.9624569872037488
Ni 1.9016738215789275 4.62761408400632 7.671193111756648 0.7434671320959648 0.9452393377738818 1.8479382310823915
Ni 5.233927761666276 2.192326685671911 6.7621034316654125 0.17833248659773804 0.1871472566758906 -1.7694851318808107
Ni 3.236694434040535 6.531390343815362 6.9184695086640655 0.539756057524122 1.8066249741559013 0.7045997656068058
Ni 5.991082161116622 8.03927195216171 3.8906274154905485 0.08695728001785023 1.4981460737473489 1.0647766086102823
Ni 0.5761077262986187 4.03108412109264 6.068655676953622 -0.49523354963171484 -0.7944886174491543 -1.5922782742470836
Ni 3.61180445493008 4.964953986516269 11.525245479019455 0.8831564524002081 0.210385915488857 0.95805243037815
Ni 8.065856730308287 0.3121991674635312 6.435643646996303 -1.2059183450903361 1.6004484687627016 0.6781482562834966
Ni 5.994438685308559 6.879085676730654 8.20241654820842 -0.4007352240418131 -1.32336736593914 -0.62464539926935
Ni 2.2801034817791797 4.549777763390556 0.8299236595071272 0.8925574339991339 -1.0633167362353044 -1.948232337418464
Ni 1.71731396397071 7.42401369080346 8.733046138072389 -0.4712017054934917 -1.0110878608375748 -2.1350569206476133
Ni 5.118782383686293 8.354960429389607 6.475174096332606 -0.5006336376013636 1.5342299639540997 0.6276327640324482
Ni 1.0451607733150705 9.07340414598899 7.111438297551382 0.5338502335626484 -0.5641504272080865 -0.4288350676018228
Ni 2.0842539836677942 2.25918053290142 -0.05394413879898329 0.38064719504268635 -0.2791361855803774 0.2485284879968494
Ni 4.5730797871076545 3.5423041174723133 0.7489585788410225 0.7103798626236927 -0.5015468934442523 -1.4001111957590986
Ni 5.412422923158912 6.368801787353195 5.492219675212055 0.30268954742028514 -1.892619118929534 -0.5767917701211808
Ni 3.0209639849461394 -0.059027797554518244 2.2437543534489723 -0.6721683845509778 1.7515941105330026 -2.752998425534227
Ni 8.906048218627836 7.703693302730497 12.877023815145916 -0.7688002115441146 -0.2820042511567918 0.2273017174075892
P 5.1554367344086796 7.894157608182292 1.0874907851367344 0.5711489700131067 0.447190687290875 0.8044932940703501
Ni 8.699004159063122 3.020512145151071 3.8337942683692194 0.2638797736419391 -0.09352593437430344 0.2046248446353637
P 3.202870997952557 2.9125593190109518 7.950671701080981 0.4293207489889897 -0.25161741133481824 0.6011905106805194
Ni 3.5405152007326546 7.405119410393355 3.2531349477268097 3.4654076598831223 -1.6281847583357054 0.5540956140752457
P 1.900152320228187 3.130152454607466 4.0336596079245295 -0.606490068516562 -0.28873514212272205 0.40311426579695087
P 7.037460135512284 1.8172166647823653 8.012915860278762 0.11517770831612421 0.20292945921081182 1.0014295118122043
P 0.3403275778895857 6.203539077001848 1.3264448775756152 -1.6136287148984017 1.395665758393235 -1.463269573585138
Ni 6.5623459803877005 1.9514407475786049 13.507119942100994 0.025264945214375844 -0.0791372697527992 -0.5892590493502562
