# total energy = -340895.5746027525 ev
CRYSTAL
PRIMVEC
8.98725309357572 0.00000000000000 0.00000000000000

0.00000000000000 8.98725309357572 0.00000000000000

0.00000000000000 0.00000000000000 13.15375334791560

PRIMCOORD
 96 1
Ni 6.229406619598358 1.8826587607086664 11.264492684874583 0.6499393979494484 0.3269911002801272 0.21202962173986709
Ni 4.813033510007682 0.19976776255200313 5.926963085603635 -1.7782883319947373 0.3036202867646707 0.2957676234894713
Ni 2.5462595530153984 1.5026687135849506 4.84364589142044 0.7335465305481431 -0.2537025759986211 -0.5999949477105215
Ni 3.5272182257893063 4.298890736282994 4.866020556667695 -0.07650985943228114 -0.01973501653508214 0.19416405431335593
Ni 5.054646821586736 4.539542411783378 2.643430631951713 0.7606117621960513 -0.5102619047197471 -0.3408822564399226
Ni 7.396527252499052 5.965882385030548 2.567849631069496 -0.9782283911053927 0.06213405032658332 -1.1563266502051375
Ni 4.866516653037251 4.635553236348139 11.384849978010523 0.19315026833686091 -0.34924091281726305 -0.15711600042112298
Ni 5.740607899535809 7.872447238909884 12.351098314956706 -1.7312911373095925 0.012587863967339612 -0.2701216407865928
Ni 1.9242427806713314 6.4324376537406875 0.5810447843155837 -0.38686823625173367 0.13952502681223714 -0.18893931557930685
Ni 2.594098701115953 1.5585604404377305 0.1266780282212557 1.1767314391137347 0.6009940783989971 1.8196298710560017
Ni 0.2893158534329187 9.079012925542184 5.112890512568375 0.33649544022613664 0.10752867641129867 -1.6483244665083743
Ni 8.53339679156047 2.369435348830088 1.5033948836331423 1.408590436874703 -0.06879860683095247 -1.0284998856664351
Ni 6.758621016724254 0.7098276272062268 4.803737994155643 1.6099913752561306 -0.09699640942140714 -0.6825924080977792
Ni 0.8121906422420515 7.409010547015616 2.837514855661186 0.32122437299967904 -0.0691801585400873 -0.997468213171611
Ni 7.6365138712721325 3.8013564062347713 3.8308732414980904 -0.4180246072498801 -0.512433201339453 -0.44487438045287253
Ni 7.5002311656931715 3.5789129054576114 12.663079121911094 0.5051996597054912 0.21588550515084756 -0.8729502012911675
Ni 7.846411166761225 8.753377784995989 6.969529378183912 -0.32492830421382746 0.2705160480115341 0.6302550321466436
Ni 6.907422965832065 0.6348865187427133 0.34135564361917653 -0.6806296279444537 1.1683820387077748 -0.6470075690146341
Ni 1.857224834515811 6.5347755044679126 9.026237079329354 -0.31502055818181235 -0.1019943768566308 0.47182545512041973
Ni 9.268104730170336 4.84104677783211 1.324346334312591 -0.204867299663473 -0.6905728552000945 0.275102638940952
Ni 6.388184419615735 1.8416319504364456 7.081362261781367 -0.16466835884708417 1.0041371405513546 -0.43990700914526815
Ni 3.1783779978120346 4.392915377918913 0.33368142822126867 1.4262999383393242 -0.16179540817466329 -0.9783338063350053
Ni 5.993302494152244 5.659030603404166 4.545792147569425 -0.05060522375137737 -0.22063664668258776 1.6531473418183142
Ni 5.107626678444292 2.8941381449140007 9.255901837949608 0.7983064485333478 -0.3058682022585829 -0.4899910702858529
P 0.21065941454957252 5.67194528606817 12.34243010936907 1.3419548991333405 -0.8041315398555571 -0.39772394801931504
P 3.9966763772415996 6.293944083906095 12.607057079888776 0.20722551548300444 -0.3535038018586751 -0.5362778691675344
P 2.470074608726764 8.22986130631754 1.5450400169166947 -0.5440780819382436 1.227242817599725 -0.41663389754994057
P 6.409421298624116 7.682600505023708 5.808908326704658 -0.17165173214345278 -1.093052058516208 -0.3369153013723746
P 4.7178315382193725 1.0667330160900246 12.552166533028181 -0.477118842308875 -0.032843271782266016 0.051131271458176454
P 4.074254345756344 6.23963411359393 8.097213944606073 -1.8213075158687408 0.21754926600651564 0.8273018073244333
P 4.6116830921897565 0.8230364592489553 3.75000324218319 0.35073729485713145 1.2429031498448013 0.17432336543834492
P 0.32332811268269296 5.420392072591839 3.5099339406818504 0.48266342627618813 -0.27292851410776864 0.6908417925907651
Ni 1.4521154150567488 0.9280776757001405 2.5261128278046123 0.1425949239868125 0.6716752469646432 -0.22957045883710786
Ni 1.9560666437981515 6.4428628673038375 4.858864905772023 -1.32593024157031 -0.7171873724638294 -0.34450622634575506
Ni 5.906890055868037 5.507307797048059 9.24927194135863 0.39166077254437065 0.46987424493131974 0.4811770715386487
Ni 8.60030689067913 2.412088851908283 10.11962988293121 -0.4519711393986539 -0.3769358076293702 1.0522764192607426
Ni 2.202245479937619 5.151035110780508 6.972686600187994 0.5440112332560502 0.0640070989795801 0.14918851804393016
Ni 0.5492829332349581 9.104267106673605 9.15702497838029 -0.0701180969733244 -0.8652399771311033 -0.10121173305433537
Ni 1.4448986508401895 1.2018473787696669 11.309412773177455 0.10110991736914846 0.36423275824040496 -1.2000932537681268
Ni 4.226624234333612 6.7345082167329355 1.6468628980429112 0.4814210692286547 0.44894289409529137 0.20226611459520003
Ni 5.538574450484434 7.879565143342655 8.037614077135919 0.25881932839989613 -0.09661717170511748 -0.13542154616682484
Ni 5.361390756176257 2.7117867800896063 4.654021142685135 -1.126293337067841 -0.056026137656632544 -0.0994070757454288
Ni 0.6796448364902957 7.373591782660124 6.945839877812269 0.2603812735703773 -0.8942589900712729 0.26662468337692796
Ni 4.952039353267362 4.635319567768275 7.188697025216444 0.5000839357454806 -1.4506254024585663 -0.8851706546167594
Ni 7.9979901770681865 6.975860897972911 9.053202433445623 0.7392322680790107 0.8830435809714277 0.03911702060611973
Ni 4.536837248608802 0.39218844571790756 10.177335237453857 0.3523946279548963 -0.3581438717338477 0.37275596522006765
Ni 8.190964475023307 7.076293451048938 4.55863043858232 -0.6382766168995395 -0.07379374605269871 1.123516288543336
Ni 7.150779804507025 5.80185602921931 6.928476504877784 -0.015454643992173384 0.744349534700918 -0.30169555893813205
Ni 2.661431201128982 4.849171254608908 2.6836809435585405 -1.0328720465922017 1.459706024603596 0.0193218402570635
Ni 2.339687541162826 5.573831444284637 11.385099823645916 -0.4825163591753625 -0.8635281366463193 -0.33151032830671934
Ni 1.0591297999913831 3.231816204576245 3.6452073777408613 -0.05405204464939724 -0.11000207765245572 0.002774477421343609
Ni 3.6311647948163603 2.521562581574421 2.7298907026771997 -0.1959383726049593 0.059221247555162525 -0.3304546333486954
Ni 0.9918512234967842 3.3630660484350647 8.204916286691784 -0.06915676150131961 -0.10129040881107071 -0.8468691879333995
Ni 3.7301683746539913 2.6954299794991483 6.724133331786988 0.03238921496398293 -0.7710373284047496 0.7730150209564106
Ni 3.992326546754906 6.8449885187431025 5.958650342483766 0.8698913598601857 0.4731788838245206 0.9254798957587673
Ni 0.9026078004949984 7.53616220347375 11.16735216259871 -1.1120383698107235 -0.5481964749819913 0.18333431068770362
P 0.10288427571398204 5.418378927903782 8.002664447390767 0.6562013196987602 0.421769419004293 -0.9170135101589691
P 8.418332990483746 1.6164922737377818 8.086427443469443 0.253388387192312 1.0772194623593252 -1.5145970202145207
P 1.745162775965029 3.284733150662299 10.27925068728671 0.45135818840500336 0.38338182036503005 0.8348269120568849
P 3.9351136937005893 6.288120343915646 3.890130694626215 0.5429905053010197 -1.5481784557143916 -1.3097055521813314
P 6.893825251934613 3.887076826032458 10.525028691939182 -0.98223391272036 0.7890769595152798 -0.6463887044837126
P 6.364224402926634 7.702363474528334 10.249641283316754 -1.2244637121926911 -0.6963172138830395 -0.6089842956933255
P 2.2357050231234847 8.454479722338045 5.830296191564642 0.558173126578729 0.1702538233546616 0.038970210615610304
P 6.992631112204666 3.8328836900102257 1.5732545992099278 -1.6980452307722693 1.435182842651251 0.874654328466468
Ni 5.13554108648493 3.0444050162724956 0.4711369703260834 0.2616745384605042 -0.8642079363221632 -0.10744871510298269
Ni 1.4117446742587607 1.1802150606261321 6.992443278615468 -0.010633311344130075 0.07578455123048239 0.8037900973557383
Ni 6.937422416585334 0.5473416865714752 9.181398408710686 -0.8549555644859598 0.4772401983780877 0.1995062924618758
Ni 2.7000674020841355 1.7477151558373865 9.100029616850307 0.2466883494643171 -0.9512135530794457 -0.7688752877564241
Ni 6.359173566700351 1.8909000717753974 2.576793745326432 -0.1900531174687759 0.06039547036892179 -0.2615734941062656
Ni 4.065518735770671 6.911053816073024 10.237566010089644 0.4609265488197287 0.6650865380035319 0.4667215582349511
Ni 8.318628404906525 7.149566525342348 0.42517795556812454 -0.16611331882372685 -0.045964125434940196 0.09069463557309543
Ni 7.515877973290967 3.815969679729323 8.369943822495205 -0.5589866236189598 -0.4584870861403007 -0.7096422131267198
Ni 2.848024549403209 8.272272153562797 12.431769695978723 1.7572356250894963 0.07435167543869775 -0.6137858308470268
Ni 0.193862238558602 4.825247186932096 10.123628311822802 -0.4434960120481072 0.6781120037289224 1.0298258035667103
Ni 8.572347546373132 2.3470660759346758 5.803883553512281 -0.5542709633108455 0.31981592268792663 0.024527038607086788
Ni 3.602055082117188 2.5345042259976407 11.235370390021108 0.336674131895846 0.6429184865469251 0.5777381931948502
Ni 1.0947642584205957 3.500022797994401 12.460984559538833 -0.3541938859471642 0.09288470124587873 -0.349918655610578
Ni 3.03432131832607 8.297436462163503 7.905734226836773 0.5006611484051893 0.5341983609306864 0.0039361018296125766
Ni 5.579187847115358 7.837369990171116 3.6322774167466347 0.08613092746181295 0.17026153666414545 -0.9306894649841647
Ni 2.979669832397182 8.306792192611123 3.7090294567040916 0.9154297106116169 0.10742248985073757 -0.11229755855485174
Ni 3.331637624443399 4.435290276151886 9.269568753695713 -0.07130543241320624 0.23354666987603645 -0.11602694369029697
Ni 7.271793167117202 6.0482415721794265 11.500615683552146 -0.10976116528624322 -0.5332213417293977 -1.1595377009432677
Ni 0.6576862810602592 9.050073970651372 0.07695425315156997 -0.15612612570402787 -0.5809281608870577 1.432217846485656
Ni 4.556618192619571 0.42530557456174245 1.5286499634898711 -0.19593374461926902 -0.8897909269975901 -0.16040546980567214
Ni 5.999189144914195 5.45227884649016 0.2456674614396889 -0.18442111599397915 0.7317979232881525 1.4077669125321433
Ni 7.855910693257992 8.891844393071368 11.2816718191211 0.9858288291604699 -0.17194380946257481 0.5552081304131341
Ni 0.10213384008249674 4.749152115174178 5.640671442829338 -0.11745030640038483 0.42984808224736937 0.42368951884514133
Ni 8.023513975791758 8.879648690653099 2.209646482842148 -0.09064269928923743 -1.5860034969819654 0.37818459243480673
P 8.46429380269232 1.4460939554987229 3.452807365257022 0.10486218532272908 1.2953914495515044 2.804467539947796
P 1.9097463414667109 3.1982667888596628 1.4766272490844496 -1.093930347356103 -1.6270133637354236 0.7066188529193637
P 4.580452387765667 1.0405531478922199 8.025118200465053 0.35443325565147993 0.5080682395025379 0.10751839199865355
P 8.584039962619388 1.7024643366214758 12.367001259267044 -0.7032671628383114 -0.05238314158740656 0.16797171218870427
P 6.4181479213567165 7.631534933070421 1.265426801899962 -0.8447063759541258 -0.33014018743207013 1.5230464365334544
P 1.7351330015370339 3.2205102402120716 5.957282482566257 -0.03570696648330625 -0.07524564800787688 -0.3725595329385455
P 6.57910063661744 3.897394192558747 5.841897836554875 1.714814736921124 0.29757588034280363 1.1040226985950987
P 2.4563780350455233 8.622415533235463 10.130652748823627 0.17527055984296264 -0.5982160014332277 -0.3460301191894492
