# total energy = -381167.44850440824 ev
CRYSTAL
PRIMVEC
9.23131592176752 0.00000000000000 0.00000000000000

0.00000000000000 9.23131592176752 0.00000000000000

0.00000000000000 0.00000000000000 13.51096396721694

PRIMCOORD
 96 1
Ni 8.673107506100822 5.188211884335165 7.5901892170239496 -0.9216810908379676 0.5487438628450292 0.4923641985037198
Ni 1.209736261338896 0.09804580670813079 10.461201404963095 1.4044946695387746 -2.4554238307430034 0.3445910727500775
Ni 0.6797950297116487 3.441831532857509 6.093039626098859 -1.3995044154130347 2.4321969990045793 -2.994281287712256
Ni 5.070420292809343 7.488840445468802 7.734458992090015 0.4519616263169571 -0.9503031254500344 -0.18907506982622277
Ni 5.046363483442863 7.486957257014939 1.9296764378552071 1.9519846053720447 -0.9204886131917631 -2.9197259809031846
Ni 8.96040452110604 5.577431858747642 2.148770644356425 -0.08408484356606163 -0.5903052312265833 -0.43082330167644517
Ni 5.441029934266017 7.908172972511155 10.208411972111689 -0.5654164384047037 -1.3955451736549707 0.3985675269665329
Ni 7.138548930418738 0.18810467885606247 8.032700655285911 -0.18943013917279636 1.334899534948456 0.8339709918144929
Ni 1.8121719402554402 3.374793716426434 3.067434282466428 -2.1679264176821245 -0.8398025108946052 -0.44782960642645453
Ni 2.048161301208896 5.63099195389128 2.409612554111277 -1.64947169273894 0.3702393694458011 0.07776790020909832
Ni 1.3655977998437525 8.064089898911712 1.3851035704467354 0.6431396014187956 -0.9666756532707867 1.1927733230679458
Ni 5.301258579462533 2.676952387163545 12.511274511705299 -0.9414994111154752 0.9526947656106626 0.16895721603042513
Ni 0.257261082297731 0.20981673397116685 2.800484934078858 0.2698935839361868 1.076283066587985 0.060265115438644594
Ni 7.31002062419555 2.5678566952629063 8.871947282275487 0.15327374385689735 0.8066815599709204 0.38062225534202193
Ni 5.976363177539834 4.679030959148546 8.07440866388096 -0.7054975948307269 -1.0449842564747034 0.4190039404440139
Ni 2.7305309449390833 7.680648728284124 3.690736427957029 0.6210623099037821 -0.04586590929417907 -0.10489972342888385
Ni 2.0698733563240004 1.9956443447676424 7.077367460826532 -0.6879189625170153 -2.359608071893259 0.19053545642183314
Ni 1.371967407849459 4.936584674161902 11.658543701507119 -0.0870449546356501 -0.8981225867917372 0.6924929550409429
Ni 3.9823620070113446 2.792113053643531 7.874621754689792 2.6679368198771924 0.1558492178935574 1.43574077203725
Ni 6.030034048474875 9.00256394105106 6.1874132153219605 -0.4836252759688251 -0.3223466595295803 -2.146816889397019
Ni 5.775175877719008 4.469572400236251 4.189655822333295 0.17524973390735626 -0.8061619400220246 1.1659765145900758
Ni 2.521820122618762 4.870525377221559 4.650473883256295 1.1695027825757793 0.9606700705066553 1.2008923526306543
Ni 6.612567010202574 5.34987068925681 2.1609439807000848 -0.08720024926659176 0.9229162487966492 -0.25642460291547453
Ni 7.593523568345197 8.18052448699284 12.075288690688605 -1.8873606987440723 -0.08943325236216856 -1.1845784459619793
P 5.015697051855969 1.755325496633496 1.1613669351541118 -0.7834688692998829 -0.391957477849183 -0.6419697494804104
Ni 7.2549281306041635 1.8752125968800353 -0.04237266334346964 0.23019035180929387 -1.095677926174829 1.5655058912492459
P 7.242724330917867 2.693568755874084 11.41323809649662 -1.0869647146715473 2.2973974026924693 -1.1009939390711039
Ni 3.9048004903969287 5.182146909755819 11.95432521900226 0.26977557030108373 -0.8612714794016586 -0.41392395481794525
P 2.8978116212744602 1.5732193268819379 9.312066886574724 -1.12451619056276 -0.3717180108738566 0.49475583866434797
P 6.065214593561467 2.2034043415450824 7.128911436566624 -0.5200122992382915 -0.37140305073659907 -0.599795944325838
P 6.842989887637999 8.510765583798854 0.5560612401086197 -0.19340994975615078 -0.16246620898944278 1.3524195461100903
Ni 5.29472280776972 0.3396496540225588 12.830795281298228 0.5305607641780992 -0.996923910632367 1.4117850325526007
Ni 7.070938772398744 5.930391224107343 9.752794834595088 -0.5578692221850651 2.016586143402514 -1.1130740101640895
Ni 0.33923516793639036 6.793879286782405 9.574558432489896 1.2606612451591708 -1.275019570763372 0.09237048061362156
Ni 7.588529426416086 7.573205441938588 2.762140817016099 -0.8080470728598793 1.1230730303583303 -1.664733761104333
Ni 7.836131782835018 4.245556056070333 0.3243432090453673 -0.40725682721041473 0.12471521549291424 -0.25180793007906954
Ni 0.8056446369304866 1.8299052981959654 4.593848991217158 1.2497194014356865 -1.9607327838783197 -0.7742177830152602
Ni 4.347118994155529 2.9855183541182555 10.349979740999101 -0.01209395505005659 0.9788868506249979 -0.3447473958222837
Ni 4.020939676367647 3.1203971114680815 2.9930566467232698 2.2574108349972026 -1.241054526671837 1.0139160743149893
Ni 4.108637177895492 0.6910932373032203 10.97317295696149 -2.3108267887244978 -0.2451541722079778 0.14411650283766148
Ni 8.016077824654205 8.390546156178104 9.852518894542984 -0.09987373096920218 -0.1641993896304656 -0.13118925325303213
Ni 9.100517434599688 8.962564649038411 13.550550831495535 -0.6018705674666796 0.7866938039950838 0.6228471697183467
Ni 7.96318238425899 6.564185683307054 0.1980218815814692 -2.868366652594602 1.2725214869318666 3.267574898468927
Ni 7.835697910985354 5.712042907934909 4.325954356076277 -1.4768388276291404 0.059719270237503605 0.5739095634773793
Ni 2.7427255133094293 6.478500608656374 10.540835352008354 -0.15921762014515803 1.3078075638276703 -1.803628867642055
Ni 1.8432168557962971 0.6727727676682559 12.756011467653257 0.23123344836182758 0.10302384656240968 -0.6569937336930686
Ni 4.105997021533706 3.272261490166458 5.664647485582881 -1.0258850737514074 1.3800902725524813 -0.4931987785898732
Ni 8.281182756114905 7.737033606108553 5.919788134606828 -1.1473069632050306 0.5246495408999867 0.8693267456059675
Ni 3.352195454980101 0.009129771474846187 5.926543611619258 1.9250386729108204 1.5047450671211053 -0.6083212081880297
Ni 8.037716029241707 2.988407756010699 3.9576313115804926 0.31635290383999065 0.3573010641175782 -0.20820921955251243
Ni 9.201674194783068 1.0459357911167821 8.905522501518321 -0.7102068273809381 3.0058993315671585 -0.307487997250193
Ni 0.3703087005566935 7.277286377835788 3.7508055239772227 1.2690844362258595 -0.08567224265783954 0.07708218699598338
Ni 8.629886484821519 1.2146473214244553 6.467225479354679 0.0034072259093360677 -0.006813423377407621 -0.8310131947377495
Ni 3.2478815847417173 6.590042599283843 0.8448620364821439 1.0163493663468302 -0.1925234333861394 -1.679863674767236
Ni 0.7964299373488976 6.371278873893646 5.954876366533917 -0.3840076268744871 -2.1212770932547014 0.06869062049817848
Ni 0.9365539284216835 6.240452664246001 0.021256028107159583 1.3654545249171774 -0.6932141494776837 0.9539291522383958
P 4.385336642189768 5.122808010827294 9.588974055477882 0.3459403876891204 -0.12942650492565452 0.5474418562041541
Ni 2.1427453644356644 4.238466405420503 9.64339635553128 0.6490040306193725 0.4488413355204206 -1.688491268535247
P 3.069292546367223 1.516031324569833 3.915626054611845 -0.5607442297400148 -1.4385934109946967 1.1350181185353485
Ni 0.786513657755086 8.55038639185754 7.91311449593935 -0.8976189076824413 -1.2218566135871474 -1.2721797873217315
P 7.234776167884659 7.317710310382149 7.8793103400609485 0.5716089403686607 -1.0603365705610577 0.9420727671204421
P 0.9807627005076678 3.996356681991999 1.071948716333131 0.76645150880628 0.41705761535092045 -0.9303215401217849
P 7.982641998282221 -0.07909114566738085 4.406411736504302 -0.01189520877568919 1.0912024069019788 -0.3270258101728045
Ni 6.440236804042383 4.959819896408805 11.745188833016629 0.21370469544944484 -1.1620093024122118 -1.2780331607787152
Ni 5.63101964783913 7.0996666276360765 3.9711699595532015 0.37277884803820316 -1.7756737771900255 2.9102419526721492
Ni 1.1645674323940804 2.364749281724417 10.609727739813843 0.44103572343307273 0.8270817208938273 0.11941745742908465
Ni 6.311478409167605 0.7136998069339088 10.469389582211011 1.7451038748229688 1.8543719025228773 0.7593902310841244
Ni 2.237329427662433 1.7881705187846613 1.1897172295690766 -0.3601583310607152 0.3872168778404041 0.6155128408404626
Ni 5.177420475989265 7.057904154276922 12.778372484279668 2.1113228102554666 -0.10185810838908263 0.5226898460704548
Ni 3.0117629853649572 8.247765392374822 8.212180515649607 0.3545463841905765 2.290694793861313 1.5331223327122177
Ni 3.2996046480112446 8.046541167290194 12.35407443238765 -1.8969889658624557 0.5401489220871666 -0.3180277204392523
Ni 2.903479649267944 6.9785702250000465 6.197884297004386 1.76911129348116 0.17102026920704097 -1.011822167900438
Ni 7.200721843344004 0.8539899616937999 2.4888273994123917 -0.8512138380553406 -0.7984933677331733 -0.0031213192378010757
Ni 3.458410976304247 3.9307774134810716 1.001084519440657 -0.851162673102431 0.6564162639230436 -0.9526034914484369
Ni 5.371647363583566 1.6808380082305292 4.980141715341794 1.5363639795779669 -0.35086764978740864 -1.0076855200242454
Ni 1.251037168900536 8.68078796097147 5.520201392382165 -1.1523751217565572 0.9786963318807466 -0.41819764249263464
Ni 0.2713305309375824 2.776235190209016 12.84962901210003 1.2959174972583034 0.907268000736431 0.5857453797700428
Ni 7.3457735108710605 3.6938556896166355 5.997597973620308 -0.5096705509926512 -0.4491550101060975 1.3674954666066061
Ni 8.544469118333398 6.036615976747438 11.78476256136397 0.4033940018208988 -0.13070254342460072 -2.478625465670447
Ni 8.620110521230151 4.420083315426695 10.212951010164451 0.8705544473654814 -2.7108845270833117 -0.5149353989360164
Ni 8.811909572729524 2.5434675585222144 1.7518720613364889 0.5415391175664738 -0.965002379333422 0.38124394808642087
Ni 2.811166489764949 3.123572684154984 12.43907177400003 -0.5793739290260603 -1.0912579427302624 -0.4383486635192128
Ni 4.270960637565557 5.408914186074925 2.7420368571395364 0.17535617757823346 0.8696810436215926 -0.17471005935380232
Ni 2.6129332110482184 4.402857679863437 7.149515733767693 -0.7953746195985334 2.3192229832079927 0.011360933538773982
Ni 3.412392866292004 8.96126303348942 1.5415872996466418 0.1685764356522387 1.637792970849431 -1.0583946163433384
Ni 6.506942293099247 6.046724267713016 6.255387087190396 -0.2568825163884995 0.13307207209804178 -0.41175600063234896
Ni 6.352068505401073 3.0205511981496422 2.217297472050283 0.1526440806926984 0.44373795285558415 -0.4791888374640264
Ni 8.528794343849789 1.1566377319927732 11.628075743213154 1.1356894335707604 -2.1449919203731382 -1.5774239828430705
P 0.42996238735912373 4.9113462563537835 4.14819059734774 1.3763799135804295 -1.1615606449105673 0.40077661880270976
Ni 4.838068070340306 9.078786916852682 3.394359490583094 -0.7303591339590969 2.967660599800934 1.450252849610496
P 4.485690277885474 5.824304941206501 5.463333716733535 0.4517988754868477 -0.9246432587900849 -0.6420042022627718
Ni 4.71706398086378 0.5288574751346821 8.73797319388879 0.7487723463589621 0.39976000461273736 -1.3561489312455355
P 0.9496623970711087 7.504496757320509 11.755484519696 0.5982625384004471 0.7374358383002203 -0.29883160712677564
P 0.5229429710053252 3.3971704262899607 8.065450594882787 -0.44607611407045755 -0.8382739900652209 3.6582995323522733
P 2.0228398015572244 6.513413445580407 8.02393182826472 -2.2612536057820605 -2.2651647679110085 1.6076493573865152
Ni 5.402969218602932 4.8867540306621855 0.11989171590451451 0.06725440227228417 0.16023372011449824 2.8270204855476475
