# total energy = -340861.61536522256 ev
CRYSTAL
PRIMVEC
9.36564274036842 0.00000000000000 0.00000000000000
0.00000000000000 9.36564274036842 0.00000000000000
0.00000000000000 0.00000000000000 13.70756484420911
PRIMCOORD
 96 1
Ni 8.670543543078605 9.033312352147702 0.14283541867901062 -0.6885393697098334 -0.8500319019320973 1.7428274200839662
Ni 8.011548817191041 7.554299403333153 2.2484791780452626 1.125853164206629 1.0332937075106527 0.06172627336520337
Ni 1.3357935387798339 2.4207751627852985 11.066446368221397 0.27140410704344226 -0.40671972376002213 0.013558969631357293
Ni 1.4848383786498602 4.706703800218791 7.435463444385634 0.7856116266744987 2.037750693295271 -0.19596999717384314
Ni 8.179549718132888 0.6675558599911944 7.473871945598841 1.373151893561435 1.3496386409308434 -1.7557364148361505
Ni 0.8797916285458418 3.1818272985046874 5.89968158816954 0.045073752410186886 -0.9482110188076961 -0.12864437534399137
Ni 5.215576637311792 4.2280913550838175 9.569045852854327 -1.4741797927397386 -0.5235205695018661 1.668256686655927
Ni 6.578352593061938 1.3599100690466 12.925726893153751 2.497429485750828 -0.9987468227737186 0.6584294376983305
Ni 3.156914688598047 1.8136005386321115 5.685130632709283 -0.8169610875200575 -0.22066158638325226 -0.2696932949999226
Ni 8.96260174884126 5.3845234681786645 11.913271870597923 0.018055829060446324 -2.059620753895485 -0.48738422879062515
Ni 4.650725353071427 8.509997693823106 1.6517341337387048 1.778645201113524 -0.6961943151519301 1.1490008059676857
Ni 1.7665007208800463 4.845193560628373 11.544017353874558 0.3239142611270164 -0.7950437186216759 0.4663870577136678
Ni 1.0418247418814806 7.438362110839056 11.027790614037688 -0.5274862390178335 0.769178677929456 0.9393605103956016
Ni 1.3862930848763013 7.048320549872164 2.352258929592063 -0.868666229203833 0.19049997519820738 -0.44784117639068033
Ni 2.6182591073309425 3.123722850436719 3.804123689558349 -0.9825362744521271 -0.62732448876341 -1.4417705231710976
Ni 4.815289063097583 4.154168336289415 4.023157041673237 -0.7061424275035775 0.19928209226621163 0.43535229989505025
Ni 6.352125490695437 6.171321756015855 1.7345554497783324 0.5073542441546488 -0.8293003258117009 0.9172659924894074
Ni 3.7256433489667393 5.626035299630742 7.696564454364301 0.18137641563038437 -0.5627584319565663 1.42869106427932
Ni 0.5221823521074096 3.521453604160511 13.502499704142297 0.7809733565715389 1.2453809219613325 -0.035602836805274166
Ni 8.966226252613392 4.946810785247562 3.282276627463968 -1.5133238099290516 -0.13365545540533755 -1.3682734824232112
Ni 7.855301797990863 7.0813063438914075 10.781657774417214 -0.3380134195325598 1.0954043607984685 -1.9862270714946826
Ni 4.806101367489156 0.7297755715151693 3.9520830514253 0.3748971799327866 -0.2639764471208034 -0.12892822513299732
Ni 9.546306072082402 3.438998484755225 8.815294235714722 -0.6666114592884906 0.383529658796804 1.1577584975556579
Ni 5.192424768255696 1.8818760748048204 11.147348664046788 -0.8197921292109493 0.7807388719632297 -0.8577164150605485
P 4.680011718175962 5.531236262986002 11.367725049342356 -1.1363877451893654 -0.04643592286503615 0.18800086292543752
P 6.4378585850884384 8.139708273567907 0.17956746982707167 -1.475084563942195 1.631320732861526 1.4821353001413893
P 3.360617419977529 2.7660114884915266 11.849518066779698 -1.1040298976839502 0.4955173994207208 0.2912597083167887
P 4.612298120572576 3.6567871429390633 2.012996947442017 0.6560326553313799 -1.0214334657379571 -1.4613409891038573
P 8.739090682893153 5.717434607931082 1.2534180273385356 0.09425587056179252 0.0236286951625335 -0.5678299329422026
P 8.275201028274434 8.687813788442455 9.14076624537359 1.0360003078085385 1.1348245144673037 1.5144147290003853
P 8.27344028742389 2.3237658344345546 0.14261907232982138 -1.7386190384295737 -0.22846771269123234 1.744078004661616
P 2.8448982979816133 4.434332175668073 5.354037364228625 0.6098407301563497 0.784706598361726 1.781075150711255
Ni 2.7893413047612414 3.792972955214422 9.448967073104322 -0.7673161707994205 0.24596792635852477 1.4320406974778435
Ni 9.017081693137097 2.472426682948877 3.97441261704162 0.6048833861510744 0.471516151410117 -0.48691757356685167
Ni 4.079308753212808 6.302290905239334 5.572056417225886 1.271324638410288 -1.2653807621220272 -0.5491159014724672
Ni 3.316580167428273 1.0843260290079215 9.26124212837925 2.570818283055624 0.6793420194812816 1.7088922007891023
Ni 6.424559372281134 4.497597092930989 12.254069818170782 0.2858447079488045 -0.19198787259764355 -0.9469506640380335
Ni 2.784030985281142 9.307519642691538 11.401061118403145 -0.5073262191301907 0.21083894386587562 -1.5432573642636906
Ni 1.2364240684379346 0.31595370685882196 9.300774506731102 -1.9300721215696695 -0.21600660410974415 1.1765159806688188
Ni 7.893223285777323 6.975483945645118 13.002529847115932 -0.0138495042885826 -0.8170937564431798 1.8504442853336969
Ni 5.273381384809455 6.7604019582368515 9.655526325544528 0.04728901489395081 0.4048358764737479 -1.03057296614538
Ni 8.607531498171884 1.4090984251479812 9.759512121233413 0.23057267484937707 1.2967991285323086 0.30406663027346986
Ni 5.596917516097005 7.392086469655331 11.9222778727356 1.0433122680889193 1.9362499682456071 -1.2396167657840458
Ni 7.312871862666474 6.642966162891227 5.968506887575903 -0.8928965625061074 0.5974125316953259 -1.5084916786477311
Ni 3.518175629172795 1.6819851600539109 2.0424959126386124 1.616984518744512 -0.6283675853159436 -0.7398696445526934
Ni 1.99420759481243 0.5433758652494156 3.60511689148984 0.13057038872211063 0.7517018613009312 2.2038262169025273
Ni 2.4451632966939036 0.1768757840800159 7.349804338570926 -0.0612984417991654 -0.24586199690827978 -1.2820916471188049
Ni 6.75096139027223 0.6244261382313943 1.682274558417112 -0.17301133149514075 -0.47853731992295645 -0.950230620340886
Ni 4.785787288208139 2.271084093560551 13.529284506049065 -2.6260208963696967 2.0450870790556848 1.4447139220701377
Ni 6.26201864110454 1.739265431553539 8.986926196378676 -0.1900801140519694 1.6833894285323072 -0.4510553124526039
Ni 3.9613953100832595 8.55466244444144 5.712778946884243 0.5075257367355066 1.7444700978937118 -0.010327607178253182
Ni 1.0808045473068326 6.619299183479919 0.048798745359984054 -0.955501124711206 -0.4666112579093319 -0.8143563029073587
Ni 2.7598114329433328 6.235401484204289 9.99572112571965 0.9850600693152454 0.08787850628053898 -1.2914000690039245
Ni 2.1865966296628816 1.7200377668398803 13.65040474528088 0.3876488231715001 -0.38260354743810887 -1.1049765778679357
Ni 8.680883212754143 0.48508597745357096 3.0102365466691516 -0.4911552657972832 -0.7486286216922462 0.5569791062706279
Ni 6.583550524828173 5.621137068434813 4.0882267183079595 -0.1519964198063705 0.6257044366614837 -0.8865456805874151
P 7.557680400391911 3.1457508423541696 10.713394413580172 -0.19153304444841207 -0.06746728961403865 -0.2750111076684102
P 5.061764685245344 1.2944629570061486 6.421760918205907 1.1914224654670063 -0.5354116645124973 0.11366872787076554
P 4.881925611776434 8.975563798506972 10.240579301352044 0.6384864189175004 0.6617304770471055 0.9009526000413646
P -0.0073089476583240364 6.81077038533381 6.5460617297400905 -1.1799610017946258 -1.4604555011751108 0.055293373255666065
P 1.110568560195292 9.128991759217715 12.584106642141116 -0.21155731008913886 -0.9167386592310277 1.4366478572325518
P 5.545678084217596 6.872705381315995 7.449842515810319 -0.6154506201439593 0.47329175525330097 -1.5747564633132363
P 2.125073721964867 7.824301520249892 4.149814248941446 0.6262536242967344 0.13419127330414954 0.9872403647960158
P 3.330263371591281 8.015295074319859 8.735036296115489 -1.507957917631448 -0.24919697481878372 -0.5705411612257787
Ni 3.9393954150942756 2.8711408291689833 7.732547254086598 1.4543475885051598 -0.06404900796110904 -0.9370912547454507
Ni 7.020532687619156 8.823681168861864 4.8185520530567825 -0.2608096193570476 -1.563171072468482 -0.5506881310555936
Ni 1.8823537225887448 7.518166753325702 6.287934311357422 1.2115128084589781 -0.5543596663699097 -0.6496974571419714
Ni 2.849487462964415 8.567296696608379 0.4089639057245524 -1.507081942784398 -0.3704178040051943 -0.9675534278900498
Ni 9.206398797141917 7.892408474851805 4.426419144047728 0.7056222933340494 -0.1270433494054586 0.6568034720591333
Ni 3.0864288607193355 4.3308324568416525 -0.08903635661633665 0.6323826200126077 -0.38098323822586644 -0.03342151288323921
Ni 3.039900347179415 6.784949308073432 12.396902427156949 0.868150465909679 0.018482117964587524 -0.3614284560223905
Ni 5.075962999763566 6.191139456227303 13.693199177027651 -0.8786657636187061 -1.2183226322919598 -0.22528854363230233
Ni 5.535890987468558 3.9611143407985985 6.266591884494545 -0.16704714349190586 0.22545952199252783 -2.2330843424366957
Ni 3.4154064304864935 6.150501932022449 3.354405189093667 0.7223774013052011 0.0650216562870235 -1.0687667036062818
Ni 6.6344059653518785 3.7507900999439303 0.8230639299727144 0.014557071878568478 -0.004339507915618333 0.4497785026227093
Ni 4.551234129372841 0.052280891361220445 12.67132793717854 1.728580166136333 -0.6531180527877462 1.076182793564695
Ni 6.2304376935086045 9.043642656180417 7.989111546682268 -2.222425062950637 -1.057367974851037 -0.4446578935666923
Ni 8.846655090704342 1.139826828371361 12.254727286296891 0.8264823967469315 1.4230246100221624 -3.01760710692239
Ni 7.382908139689727 5.154625033825922 9.243710581580665 1.211806428439997 -1.6310150286956488 2.4040357060790147
Ni 1.1976222102262015 5.672151724886493 4.518452506367119 1.4566582389162075 0.3879771530451963 1.7346690526428898
Ni 1.096070545106766 0.14580807371072774 1.6131607972118296 -0.30085429398375924 -0.29851793254109876 -1.4926341427901841
Ni 6.919055947642296 9.673023219464675 10.77842288138648 -0.5342068455711186 -2.050150352511205 0.6644121376443267
Ni 7.5588230088162005 7.035068165278969 8.149078599211364 1.0858987353008782 0.3202267849731001 0.1808663087631853
Ni 0.921561458967881 7.468079295513405 8.472056538186719 -0.11291925129925069 -0.09311018699312351 0.40595996277586216
Ni 1.7264157696016929 4.574976033926726 1.9309848229422144 -0.7844497451559136 0.029543260874755575 -0.07810728582638807
Ni 6.952303979660557 1.5914381252503782 5.1808703747061395 -0.12732977029762588 1.8150324814933063 0.9411625966013469
Ni 6.3944581962510805 2.450951263957928 3.065984599003093 0.22255237564806188 0.942594443951867 -0.15236665866159566
Ni 8.28791020558395 4.7538223492565 7.032789504380366 0.15993984302316328 -1.0369791267820399 -1.172780939106419
P 7.764539353402423 3.98223386536231 4.837358263843449 -0.6711479137062635 -0.42355042216411576 1.211894360168113
P 3.218606177866859 6.351010979199614 1.0259303094481877 -1.2638974927082816 0.5597669534284102 0.418060345583822
P 1.4785727636019121 2.2501331505676356 2.000344900553716 -1.070844412070917 1.0001892116472 0.30191770225126713
P 0.20488748519647076 5.845603429950769 9.732768528155065 -0.08689377376976647 -1.464106981884769 0.3632403124201486
P 1.8441231685891564 2.300866837734654 8.066380909656987 -0.45235320532842094 -0.10703888125907372 -0.44324635793114636
P 0.173656812642079 0.8884754525704421 5.487576445842474 -0.6565610170310241 -0.04757903533054386 -0.2240006780588142
P 5.321183625773173 7.641034621508113 4.117848373425524 -0.1460376311197743 0.2172607882318194 -0.7466553000159593
P 6.451448132823225 3.7066310940379874 8.005519216342208 1.6681466434406236 -1.1820096567935383 0.5682755051200536
