# total energy = -340865.16050961957 ev
CRYSTAL
PRIMVEC
9.28796417483891 0.00000000000000 0.00000000000000

0.00000000000000 9.28796417483891 0.00000000000000

0.00000000000000 0.00000000000000 13.59387441168168

PRIMCOORD
 96 1
Ni 0.011661968063541696 7.761013739986762 3.6323919049868283 -0.3936963149171607 0.3315110996376678 -1.1835638886545359
Ni 0.8608364017467626 6.235586335676554 5.397706066667804 0.7377978496253292 -0.5272337566873952 -0.3074512304749867
Ni 5.802293509830517 5.845705455298018 9.379664442683215 -1.5766647360795427 0.60647824144202 -0.4096476960400945
Ni 5.71042625424236 6.497878449498167 4.307042701759912 -0.017113519751835043 -1.699400202138267 -2.284385049593201
Ni 0.6863090496508777 3.8930781297687904 1.0437377825190486 0.13779544571564012 -2.2073815383539532 -1.358481178923138
Ni 5.532719631942468 6.489621449172834 6.6365570455134115 -0.5966540562627466 -3.023260191443109 2.170266635779527
Ni 7.856921260076068 5.2176904564254185 9.851222752939085 1.7277180752463535 -0.16510801748766402 1.2582688336675945
Ni -0.13068908906378027 0.9466664804941255 1.1368217614397358 1.92790571004597 -0.5807224726341547 -0.8782523302303713
Ni 8.64365828207535 1.601115025965036 7.010347456416574 1.799037391616631 -0.22788612915614948 0.6638405814115729
Ni 7.202008316386634 0.7270544205476211 11.455843985453965 -0.005137064116249218 -1.5459547085901955 1.0761072031317531
Ni 4.013738074905354 7.57346187545419 9.937843237454373 0.2610947546976342 -0.09073320212051471 0.9626724456486646
Ni 5.410926555152709 9.175580001571236 2.59191698435112 -0.0676565228067093 0.8999611826623726 0.31249419221553276
Ni 7.28542352439768 6.809768293058003 1.8073737795361386 0.5325816512628699 1.217643346836748 -0.4678842110844845
Ni 0.7487028079022748 6.650953390287615 12.427874039050927 -1.3245199914863448 1.6185469781356254 -1.5909806384815826
Ni 8.060179072359077 6.741446027148945 6.062663943823884 -1.325199791162189 -0.9476019244687874 -1.474792229512757
Ni 3.855016051778671 3.993416008862802 2.8213947200519205 2.1158019290727434 -1.1121147315746138 -0.7322198413169195
Ni 8.049302866081275 2.458403425322285 10.240578863330688 1.9541726141622993 1.7062714753368036 0.4341994172375297
Ni 6.560144962637689 2.363211078489505 7.987733879065974 -1.0538933860388753 3.2956744849186212 0.1059551612765917
Ni 6.083180128321779 2.426870786284595 3.006761126568125 0.6393618795439182 1.3232305832509599 0.3064968369815173
Ni 6.550680526944197 2.9057860931183 12.557885106715664 2.4679415035940395 -0.5064363603260698 0.17308537926618578
Ni 3.0138144067110475 5.969969130610318 6.085420385327931 0.5846374914178447 -0.47656554090856623 2.6085970444662943
Ni 2.9310679321346753 1.2700362480158425 11.863184381256081 -0.016850753008751627 -0.36259650818856265 -1.4456153508384846
Ni 4.889936769720848 8.149194922885505 12.547500233753059 0.02036442258896493 1.687549473447268 -1.2125767309471183
Ni 3.6668697575263898 0.9900505620685148 0.5133346451977329 2.176430598498394 -1.4210757138259074 -0.6241280933132992
P 1.9894726801868174 8.020370857067313 2.658417880447132 -0.20190564593198773 -0.38334839602393334 -0.5801210916047299
P 5.134033761340742 1.2770207972224237 12.394500525475012 0.3333741209883355 0.37635756652839697 0.3425550161566552
P 6.6445168309788905 4.468105291907951 7.690544096715255 1.8178424401382758 1.6780459048322065 -0.31350155043412464
P 6.510853735723691 0.6937162012363146 6.865205365995931 0.29347779901403004 -2.323005075958245 -0.6892057996492389
P 3.8085669419620314 5.972207530023598 8.279213420921739 -0.5462717471554528 2.0743644878635634 0.16142439798848973
P 8.978842340276284 5.61832679954494 0.570817856686471 -1.2544000947408074 1.0750437948642453 -1.0298165475953296
P 7.8684476238598 2.5395709459556803 1.196903745359327 -2.3967720825380656 -0.02314172822378595 -1.5761741695963694
P 2.121779732643931 2.8472626296200714 13.149559087395989 -0.5093177956389228 -0.7821730333065948 0.07995050968271392
Ni 7.560728076302298 7.82605735447305 7.912450283861262 0.492694585259945 -0.3700087414922338 0.6805756347780666
Ni 1.7313787262606493 3.894322716994431 3.1754472778714313 -1.6718243494025273 -0.9045788839400422 1.9738415533461362
Ni 0.19049057645938364 8.893290900460036 8.387352261290495 0.9319863294187176 2.07596654224336 0.12369885841325795
Ni 5.455044385912363 8.2344491478419 8.196957350864126 -1.7921776883823197 1.6155472720773532 -0.1867893591158396
Ni 1.1459304680978397 3.094461801339697 10.610209194992326 1.8404522071179916 -0.5400463350710312 -0.6283555011310856
Ni 8.478759762642316 4.263630756292412 5.689322141599814 0.31759628932878853 -0.2998281667120901 0.4095515367818624
Ni 6.852743704200093 0.31998151811937536 0.4155156620409883 -0.23285067225027642 0.5282292878314452 -0.5389132499078525
Ni 0.9761186155128342 0.7175760529075732 3.657065382336939 0.7726740926772241 0.697935723323069 -0.020144336158358853
Ni 6.8331553873428055 5.227656442194915 13.51902687968114 0.19181278047235997 -0.9042492685147653 0.29155487095970434
Ni 4.068016938686286 7.137466251976352 2.300925989421242 0.35611450000864475 -0.18075420866535324 -0.1953709301372635
Ni 7.351312343641678 0.6950258042125487 9.066325676681588 0.4628353358066674 -3.1567035308376408 0.5470459063173159
Ni 6.1773415111094385 8.201188947431305 5.549278214822113 0.6881863572457889 4.3671596158973305 0.05536433570291756
Ni 0.25964875916178204 1.6403195235727208 12.211826699829802 -0.2628001674245151 0.2675217412699006 1.3816984975798654
Ni 4.2949033323277295 0.9577655979168177 7.056866225965991 -0.01723847536547354 0.25318424160130587 2.9015655079440736
Ni 2.7990209426799346 0.2559066383169263 9.101248422714495 0.3024316657732082 0.7168554430457074 -0.09130732945642984
Ni 3.6717738027139895 4.460145506442472 10.070967630776085 -0.6166762650209444 -0.35225938792861267 0.4994694420899334
Ni 4.024976511793604 6.019046734343795 11.839489855350617 0.6678468743574885 0.9109266805349409 0.6489214982078954
Ni 5.2418577397173385 2.9874180119702176 0.7536997327335788 -0.7143427039261826 0.3043170557213792 1.5716670257546352
Ni 2.1279748048790235 5.0502191708617685 12.922853809059768 0.38313730845439176 -1.9615930749960864 -0.3014785578313195
Ni 5.132956357473769 0.7036348183875222 10.230206064721767 -1.2619555384905623 -0.5068863033792949 -0.3441647838459363
Ni 3.1652825296644065 8.069011926475378 7.121980428981494 0.41123612357313694 -0.43127555872251533 1.350369348449281
Ni 7.204608946410361 7.320736364934144 12.530439172000973 0.28040708187300095 0.6870280752716297 -0.21085745580863685
Ni 9.230629766394914 5.622097713079344 2.7854530843275755 -0.8395752253751476 -0.25459037792021316 0.7306584103670707
Ni 0.3095149110703111 8.686754436754256 5.642178292048265 -0.6639483106340307 -0.1683823173635616 1.557522358823137
P 2.7928165824804716 8.126680897251525 11.978990436212646 -1.1515803937694038 0.18051509607135363 -2.3638881873258515
P 8.864052388621847 8.81764043066269 12.409182010755389 0.4942981823016391 -0.07154480211752194 0.8127300801578454
P 0.3175248515433904 2.3894031380141842 5.045298407338302 0.08246222036097411 -1.0205310085283457 -0.3289525948818722
P 0.4008156008318712 7.086363872010115 7.525012138112155 0.4726862604588181 -1.8351397937661427 -1.4423479929411225
P 3.972657408494838 5.2996010142084495 0.4483309689582384 0.7722010096955475 -0.5672609478126102 0.9268376953382425
P 6.456593447871501 4.835639330011174 11.463089526459356 -0.6314084290247965 0.30613199744293085 -0.472699887305573
P 7.102692113373372 4.594012936913821 4.014066868844068 -1.0181771635841883 0.06341574525248433 -0.7027953654082154
P 0.8655964834866201 5.175114427751259 10.491290743175222 -0.7436301400363904 1.8817320397033852 -0.06355458482319377
Ni 8.570339091334988 7.636313530349051 10.325676121689224 -0.8373550777953773 -0.20499199816679534 0.4275993954225087
Ni 2.01347278012007 5.656955443361658 1.7775083301029448 1.5169225830239037 1.3438965962407434 -0.5468255627763937
Ni 5.858392814628057 5.157077200943838 2.0600974324633103 -1.6203989437426995 -1.1597338761144735 0.9857583809338508
Ni 8.863653006153918 4.154348567509653 12.169970488394354 -0.23860248713238907 0.8429785946297417 0.41374680581013257
Ni 8.967873254354778 3.886390795422064 8.429249339769173 -0.04543473529403143 -1.1428021333561416 -1.301407059617965
Ni 1.9155126199048944 4.821753823277347 8.454126223538998 -0.4137462915895003 1.2328205687978189 -0.4834555831601802
Ni 1.7349174406857923 7.324237927501805 9.437452299403304 -0.7910952754968892 -1.2702023518803867 -0.28218654237092694
Ni 3.084941637859982 5.841479431509462 3.927256909855623 -0.4805942024519852 0.16767552110452413 -0.3184275269808322
Ni 2.956052556291196 2.5103788739393442 5.118718836890301 -1.0425820747911143 -0.19799834045778159 -0.8406180648173653
Ni 2.644887173952255 8.082275139596385 4.8770469327675325 -0.3603730181746826 0.5375528792252161 -1.1789400167292792
Ni 7.942602731393503 0.8977922831803609 3.0578059211552646 -0.5884974885938832 -0.7894847364766596 0.5234334091046985
Ni 4.598387568132305 3.999128106950631 7.992640710642886 -0.1955344522983213 -1.2911704694916215 -1.1814838661970555
Ni 7.342832432171454 1.8847880337674334 5.21686661398576 -0.17108660366860212 0.2942606999266416 -1.700377735560188
Ni 2.589224403480126 7.5713442195777265 0.40004748617843466 0.4175039588597197 0.2639911024088228 0.3271430524769592
Ni 2.137179177570143 1.9663177850112763 1.679604826470429 -1.578920879103571 0.9364669908978904 1.1694261637015733
Ni 1.7797968845238246 0.6898830583406284 6.899910773662568 -0.022625964929632 -0.23983867353233534 -1.3929128782384461
Ni 2.3272109285896265 2.5611561751526146 7.98452581617242 -1.2635413949204433 0.9059757642875688 -1.5689591399051688
Ni 4.719428319808058 4.62694805857145 5.4266882306893685 0.17083335000721547 0.38786710982989325 -1.4352484057818637
Ni 9.381865690239012 7.733493501557108 0.8900238297809134 0.3315627788112096 0.7749659740351944 0.40660325278681586
Ni 0.9240307825268927 0.09128861540787853 10.56672294580986 0.5700835048630698 -0.023323505217288862 0.9464557266794862
Ni 5.917780058812738 2.9937524036708676 10.300731435779497 -2.1267512289953956 1.0541679798565005 -0.8844417468705349
Ni 5.220616165202112 2.5705091552736614 5.712078583103863 0.800800418599795 -1.0458435191512052 0.021485937787917835
Ni 4.216224986145616 3.694120644989301 12.23111594423436 -0.4568570067360454 -0.9326162496932325 0.8349194717706911
Ni 8.71528706330029 3.3224999025630773 2.8882903546336767 -0.658876295427762 -0.7322216410891325 2.9553617278289233
P 4.057893057522492 1.7164436795529596 2.7427953215669563 -0.24319833403318758 0.6260800748333476 -0.31384350715457565
P 5.563852888512229 7.863840793532056 0.856851865031838 0.6760324954920744 -0.7586440969467193 0.7348022573321151
P 6.344069759523454 7.954723524896945 10.209122385600836 0.1646393053813616 0.2838125080101241 0.4173476357875135
P 0.4886063688578368 1.748747219633398 8.94495984625287 -0.4711546543056402 -0.25175985044995347 -0.09428518113783117
P 1.8016143128300204 4.093140882308363 6.128907563306833 -0.39793709247138564 0.9316317742927762 0.4878056325987599
P 7.114367084587033 8.192207485885076 3.5040796060054475 0.8464074178056326 -0.33362068978150283 1.1340421277753245
P 4.001050715575315 0.5259811374845426 5.124849822171237 -0.6282025204929891 -0.8597221326366679 -1.8032349746377463
P 3.5054913765897564 2.3110220066919256 9.554019967438245 2.5944248667309706 -0.1659438831253981 2.4721488568071686
