# total energy = -381167.48664565256 ev
CRYSTAL
PRIMVEC
9.28322398327361 0.00000000000000 0.00000000000000
0.00000000000000 9.28322398327361 0.00000000000000
0.00000000000000 0.00000000000000 13.58693666217978
PRIMCOORD
 96 1
Ni 3.659901779178645 8.796263202823724 10.282186165836798 -0.005617346186777422 2.651310009953789 -0.7535538269080054
Ni 5.920320407307325 1.960329129071666 7.315668810387234 0.3896249730612645 0.6720056337208685 -0.33492321064301034
Ni 7.684448597117406 8.984963297092483 10.48654705899528 0.6184816936607994 1.967568318742915 -1.0104342864139757
Ni 2.5411618883675664 4.594063327177417 1.916899422227688 0.026450480882044772 0.2676171291971843 -0.3617313319747899
Ni 3.5189453059471374 1.3799512477518157 6.5758329904018415 0.2795082242078154 1.0140250890890279 -0.9179146818169999
Ni 7.427479673545135 7.037380034574219 11.307754978961626 1.3034338602400066 1.0111310553706843 1.7929495335513381
Ni 8.555707019285258 7.453760480692027 3.469057260165649 0.4239054915106893 1.419083108875911 -1.309650273463364
Ni 8.182085102916153 5.338447926923311 12.353025578383821 1.3311742635780688 -1.4438320336858166 1.005413693270933
Ni 5.292291737190233 8.80869343976109 0.6214162296611653 1.1157579847541559 0.3836723550222554 1.3558329426670133
Ni 8.443992701656967 1.8533956718039015 6.801593571527478 -0.3051495789250035 0.08685572144297946 -0.1434531582220497
Ni 1.470787594601809 5.775864158627433 9.415651976363064 -0.7139578097829382 0.9759236542316161 -0.13428049058384617
Ni 7.755121781437182 0.4186659758668596 13.063595106383593 0.05353782401714006 -0.1023281060469657 -0.1534300669291035
Ni 1.1012224471211511 2.2189597497401192 11.548651856820927 0.025333079448149918 0.2514513180705992 -0.5509987203174768
Ni 7.794863263385553 5.546039382034149 1.6387201884578841 -1.812800506838994 1.180953190504566 -0.34007518715759494
Ni 5.698952647778972 7.506953354217878 10.027118446539934 -1.3151092396954058 0.07559686069970852 -0.5800074488450011
Ni 1.993442389083309 3.6161035283418266 9.537662317730888 -1.6187115287379479 -1.0655024310327132 0.37839310890118705
Ni 1.6156523051377463 2.3759854837173946 2.15797268134301 0.6759419926607972 -0.43702454539115054 0.7287357394230611
Ni 5.862272407628939 9.10836519373806 12.024058754426829 0.2908226207793701 -0.6907929416307007 -1.0751044728988517
Ni 6.646964765987267 4.271582691829939 0.20137169503015395 -0.48525278426991914 -0.32383275715680354 0.3981921459049852
Ni 6.151463401708754 6.743937323901936 13.542534270721884 0.5645227229458407 0.7865397949157228 0.07964146308272736
Ni 2.269451205081674 3.145276973458028 13.576869203012063 -1.1855624071418034 -0.21675093847493637 0.19516704165657356
Ni 1.3231193504175631 2.40285113397635 5.830534921414247 0.04328606438214481 -0.7472445968605259 0.1296692170640799
Ni 3.667597571875491 6.077578221884626 3.3731606279126987 -1.5704532079521922 -0.05094872313372516 1.3616816881383065
Ni 8.862712520223033 8.791528758583203 7.629486341096959 0.5449188326719842 -0.24426097096974705 0.12307845122043963
P 0.32470582414052257 3.401428973318209 7.999458093788862 0.12607764305807964 -0.17033224200108085 0.19108387272613545
Ni 1.035812850809955 0.2739321587893367 3.286503588507965 0.6792196349708044 0.9223657756098179 -0.5493478149776152
P 6.976556350919528 0.4701878690725278 8.592867764961346 1.101670139202522 -0.05563970085149127 -0.2840881302690139
Ni 3.7609032563097564 8.196446250445733 12.344139676370041 -0.09726817502555506 -0.23446841035935748 3.0840384990727463
P 1.698783576066892 7.261189282014841 7.526307019615208 1.9162254454945644 0.9039548772027981 0.20512698108276284
P 0.5283036362861214 6.9299545664344 11.122891641172487 -0.2444311779990242 -0.2996983260024451 0.4699979149933776
P 1.4148004706516497 6.438426422028325 3.4052128154210255 0.6441657286904648 -1.2778518980058442 0.36630275339555624
Ni 6.787707725066752 8.654870418064167 4.321732524528256 0.07841864641921979 1.181477181328836 0.9871516617369516
Ni 5.580378027613927 1.2161023441337897 10.051982633704272 -0.3060777471662277 0.05977634872768414 -0.3258999240984774
Ni 1.3545430636610203 4.556159923581246 11.842169761607618 0.07562180040037299 1.5202858430691817 -0.03806595363378606
Ni 5.495315846092568 0.9335859881107087 2.9579442980846187 -0.012960416815409936 0.3477645853820527 -0.1422095156229357
Ni 6.192848014305308 3.1576700774993918 11.339371783264303 0.04977604298186266 0.21644651986064012 1.4210052655992882
Ni 6.685815058431541 5.288986909445869 10.280337875938192 -0.6018489702001247 -1.0591003841611115 -1.6724079898201392
Ni 1.5644089086521087 0.9813853084919674 8.000205393320945 -0.17609485551647092 1.9538702524305318 -0.9933683320706246
Ni 8.89497172362658 3.3112053192522826 1.5108131432046124 -0.6170367336841567 4.156915111082345 0.8520417332732745
Ni 9.203685337780545 4.502066577327295 6.05307515213393 0.43633548974392594 -0.8453931176085054 -0.4225998853253883
Ni 7.095363051684598 6.79715804709979 8.222175634086964 1.0908658494981665 0.1256366988659191 1.3474516605818536
Ni 3.625006140158806 3.253296567933912 11.561395866729528 -1.1201442867473097 -1.643265821038544 -1.8930382087448236
Ni 6.683605651119298 8.618099567796122 6.8217428092216945 -1.092726556855989 0.0006034379119537994 -1.6720758032917011
Ni 4.9022849304593255 5.475468313178385 1.4795630262499744 0.5560249698874747 -0.30948960106125406 0.8858417125418551
Ni 3.6801856236208765 1.2577376037783703 0.5961185159359821 -1.213082209828627 -0.7331521233232019 0.2706487169346565
Ni 1.9050939462655894 9.010603561783302 6.170099473890805 -0.11212812285652302 0.0029331144863949487 -1.2288744396658773
Ni 7.793535762353407 6.433283515931759 5.6164591343386965 -1.4807618168326304 0.7792687151756063 0.3108867385190968
Ni 4.848191584205375 4.043187531732812 4.001964447233877 0.1002758515036273 0.8121050449793369 1.1656754384098893
Ni 4.556651934453301 4.152859540080877 7.283427245109287 0.761940508309804 1.1387793853499937 -0.19172150631013432
Ni 4.381356815642016 8.850765010933719 4.997465826141797 0.06605164021343464 1.212434548942299 0.46025137712957503
Ni 4.445318229009052 2.897164245582732 2.002048866054656 -0.6190383374952177 0.6907124661017524 -0.3973750493203285
Ni 5.403523327170469 7.5245914798198195 2.887360232715254 1.3628453694291045 -0.2616688820335494 -0.25440962936797473
Ni 5.297128296894765 6.7259650022359585 5.167165945847667 1.5036443778577588 -0.9801387207542281 -0.6741455628820068
Ni 8.819118500314238 2.802243280172289 4.20314583617201 -0.6425191942259774 -0.49411563397718766 -0.2519359710165016
Ni 3.7624999708379323 2.4446627748769503 8.76460648065784 1.0748802727031876 -0.5543277846907099 -0.1999436371096105
Ni 0.7767589151270552 6.948567430556447 5.503945531123917 -0.4769342371018948 -0.1539517437605284 -1.3347491254135206
P 2.374787947821263 1.2796924285407856 9.88345034357773 -0.9964449141134194 -0.32389652051520346 1.9498873565233836
Ni 8.930229408382461 1.6489233799574066 9.315801619008079 0.05774054924457798 -0.27196640730481547 0.175671137715491
P 5.7882294129967935 3.418110926848044 9.246970226330108 -0.09543112181681629 0.4333039020064538 -1.0744331578634398
Ni 9.248551159377481 6.244518439094992 7.601904954267525 -1.6229641333667146 -0.9061577983913878 0.7482236729443437
P 6.24658859804722 1.711427327156283 5.022234396098922 0.5328973827310758 -0.08360558993679794 -0.0737646925869762
P 4.20614524584674 1.1655644726722298 12.125457553545184 0.3833802777031333 0.2240834675806076 -0.0804791284926743
P 3.2186144430660963 3.4609530056127573 5.67094237600069 0.2684357684437377 0.9097159480562913 0.5965725522925339
Ni 4.665312071385255 9.314322801424717 8.02508350532128 -0.05966707684332949 -0.8589567152255531 0.5790821088172543
Ni 7.60022190575614 4.278489410486699 7.953235993165377 -0.44092876554156313 -0.10481976212056786 1.5112995804101712
Ni 8.691780516692228 5.273493208588164 3.6747224462962755 0.8381243518612339 -2.534531532809448 1.3272466463888886
Ni 5.9211466142434155 1.8631894731249792 0.2767783952680498 0.5258623302611652 0.2261706891269395 -0.043443415895615504
Ni 6.977531089439634 4.050632677381631 5.797423518047404 -1.7190580855785105 -0.9284832013614654 -1.9463171226736222
Ni 0.5676143766408462 5.519489361391228 0.8186076889236592 1.4676453340553304 0.022809027474715558 -0.563435403418933
Ni 1.5551999504430958 4.206358759998763 4.1591786306583725 0.8164337542616777 0.2647791455277569 -0.18371046308019975
Ni 1.6141577060735819 7.54368707158992 13.32579605500284 -0.5004294920103575 -1.0836058255016434 -3.439170323453148
Ni 5.161212614295812 5.404312401210556 12.109493193230628 0.2066498454851925 1.4126898037550575 -2.188754153060753
Ni 8.960975446273844 -0.060080097412209724 4.952696550074473 -0.43763981037764627 0.662973091204955 1.9736482063884073
Ni 3.097811849140806 6.970503688870861 5.738618935612935 0.021253252951821462 -0.957100350877526 0.6925446342144846
Ni 1.2771395419405047 8.488050882765815 9.384945856334888 0.32709522995815926 -1.7305707142038 -0.34523899074672154
Ni 4.395068137491524 3.9274164452160756 13.411094958736225 -0.011772824265211984 -1.399776181017183 2.7156081578112263
Ni 2.033230287151686 4.716100589894843 7.243915987116141 0.6443613896410386 0.025287828032511287 -0.3490496227420634
Ni 4.105301583523645 4.857205594710367 9.973518039480439 0.3591789978665814 0.5194499989769183 -1.2485842593899787
Ni 3.6478428712013184 7.209379608865142 8.728560650184274 -0.11129559965289865 -1.8915724228325745 -2.3421896193064953
Ni 1.0759070952703662 7.800052585602124 1.7955816093703412 -0.7697119247251066 -1.2042856945829195 1.8443577128199846
Ni 2.837408132688158 6.695516027512609 10.926084507383635 -0.014734735107013333 -0.3769278372095702 1.5372414970869137
Ni 0.7004944449914651 -0.09223161541734687 11.428692179634929 -0.3557956832166453 -0.3166406102837385 1.8062907307449343
Ni 8.389453760650968 7.5303842115964565 0.12559923576661783 0.468660941349509 -0.09786312829707662 0.4992542407553337
Ni 3.3913845249491037 2.162926209669955 3.998852710548735 -0.6406376609325484 -0.8727982490943357 -0.27512834997256486
Ni 3.194849389623482 5.957388320743403 13.359845063993786 -0.22775294601239485 -0.629809974189425 0.28311059684709305
Ni 8.180850434124018 1.3777139907675695 2.2073742861868446 -1.1501400617784514 -2.6376759641101217 1.315505189582244
Ni 1.529188356792234 0.27975366856037714 0.5915028969626742 2.203646496791553 0.08874265405304717 0.20445798004019625
Ni 8.60509377097069 3.874873397370295 10.39147941864562 0.6935216534157733 -0.447384548469236 -0.008394394711282317
P 3.197095929831729 0.0987827865948676 3.3502124981821746 0.07112571230223234 -0.5151963659068869 -1.220114176974744
Ni 0.11782546398816258 1.693594253850321 0.3045018154246998 0.07305583944540966 0.9365117280928968 -2.6855427058844135
P 6.4999649139310955 5.545389556354077 3.5129158519584744 -0.48245928068518196 -0.3602688884966505 0.26399778727704215
Ni 6.6866226989196305 3.340252527151479 2.593759707234953 0.5631669802488947 0.26892324960311753 0.21248496410973083
P 7.75119497768475 2.780669067593916 12.895470349790697 1.2995460951498266 -0.8393088590876384 -0.7711918517047428
P 7.150700349954686 8.461677243378913 1.8521303683725623 0.7826260616836135 0.5599687850265712 -0.17494248707958257
P 5.415730766731813 6.38247643097417 7.20573687176714 -1.8977932069313057 -0.35224781796438687 0.37024116921801403
Ni 3.5997929037720318 7.662141009842951 1.6365330608832436 -2.554821650517052 0.7960909289392677 -0.9672873187128568
