# total energy = -381163.2108825377 ev
CRYSTAL
PRIMVEC
9.27877697976910 0.00000000000000 0.00000000000000

0.00000000000000 9.27877697976910 0.00000000000000

0.00000000000000 0.00000000000000 13.58042802305124

PRIMCOORD
 96 1
Ni 3.241150964974135 4.382292050424164 12.111243108889397 -0.3369189009168004 -1.473457055641101 1.877724461205889
Ni 1.0504781573786364 4.021412584506582 11.536695682429718 -0.5907595451551826 -0.17266628945089618 0.805145068721736
Ni 2.0729529663876622 1.022660384544941 3.1612653361510192 -0.0014007370022685553 1.177451605109211 1.1227873807971114
Ni 8.644693025870284 4.8548044799715635 2.1385780431533705 0.24264966061856916 -0.5832028158538471 0.46121348393252826
Ni 2.3641580973458662 4.780249508417613 7.908494461585553 -0.006085286962131455 0.7422265748206444 -1.8947351368312721
Ni 9.288148360326012 3.816462962641784 8.818451111658447 -1.2332396586131082 -0.17692686449946304 0.02290750072579281
Ni 1.7492257227603114 9.030708698127588 6.509506375635765 -0.8050039151581813 -0.35178450517472315 1.6000784870177926
Ni 0.6029952282378063 1.7331363237964599 5.2497314894635165 -0.3054318860521127 -1.6146967511515997 0.16849158924791627
Ni 7.335856607390443 7.427456691918208 4.346334006707547 1.0301937284290903 -0.7340571516359745 -1.2455485578874486
Ni 5.6762638684771956 1.630930597391138 7.128380374604159 -0.1337701266063309 -0.5189167521812675 -1.263740398305127
Ni 6.577177422684939 5.584339026761579 9.61558154740559 1.2097757711632133 -0.08228609979442601 -1.3588817567956661
Ni 6.203947904852197 8.266360180799873 7.322810647215601 -1.6505214741596932 1.7125717065232184 1.624295193473312
Ni 2.5319647756972268 0.4220117589587831 9.148889694542174 -1.5239586639350786 0.15138809679841023 0.7999331855034932
Ni 0.6055468918566408 7.580315260851596 8.495589577906141 0.1625420565327007 0.3795344215944818 0.8038841997314413
Ni 7.674745372302069 7.719784554868699 9.501098143544116 -0.7966483441046345 0.3862092625114962 -0.1484729800341443
Ni 8.818011297638328 5.483627183420374 13.520632703627234 -0.10194783988941152 1.675036942802554 -0.7870128778973994
Ni 4.887168853435182 0.860793979098227 9.225008139986208 0.9784865298627857 -0.2551606486013863 1.3062936982863051
Ni 4.163823250767941 2.6371768257843757 10.84603549890323 1.5692748713733748 -0.2777853279794377 -1.033158467484369
Ni 3.620003421545109 0.03737120142261221 1.3630671573403539 0.3347841139619847 2.7862834128396012 1.2957508897734524
Ni 3.2429974415564917 1.1402503228776366 5.6964192274329495 2.770078778055281 -0.23127818555683394 2.4291409857870745
Ni 3.1090954136168456 7.398664647520957 0.6641414394442001 -0.31531057861840533 -1.5004346126712096 0.7433540035568681
Ni 5.862080652589131 8.822075401874871 5.025613770494033 -1.3187617488463288 0.33495637787379084 1.706266076020165
Ni 6.717648824595984 4.33616725097243 0.4406361197432372 2.7218112012981446 0.8466079638522129 1.1951163693788256
Ni 2.88402012488204 6.369453446558208 5.592759516703732 -0.4466846941887339 -0.9451588622449336 1.4987947630749414
P 7.428022697302749 1.1641524519035202 8.299338809287372 -0.5655218536343164 -1.7357592003832751 1.0196516912471858
Ni 1.6529676922810734 5.96346056785963 1.751100963550735 0.4453808877756459 2.4196312465244265 -1.5462429292545758
P 1.1485269917794565 8.797551594803673 10.743313872508063 -0.9391188266984407 0.42759656720903133 0.19572908480763068
Ni 5.815742441271094 6.314959190436697 6.059790972797875 -0.17661781789947648 -1.042737626532372 -0.032598759871627726
P 7.9106582723343255 0.0936163627254845 0.20993418075948103 3.289298149078632 1.0188963011384 1.6376281631367928
P 4.555304122557948 6.988050937978088 4.3545781998905815 1.827010222680473 -0.4426529473215215 -0.7589742265926284
P 5.293904034277422 5.838735250170992 0.519995641922033 0.4342364411230521 1.8257616949853523 -0.6841026740947186
Ni 2.0423051666312593 3.1568532777846343 9.457287471025245 1.4716662822892654 -2.133058402160346 2.0836610826741406
Ni 8.950298818415511 3.19660355757768 13.639910451459079 -0.6891446073940003 -0.9856678781025735 -0.3396612395486279
Ni 6.2643434630158135 1.2776133345621017 0.9617294409602087 -0.06103001862912715 1.4692869834238116 1.0180756050093176
Ni 6.901053126741022 0.26875327474549776 2.9819084364442934 -0.7852462729152798 -0.8183844502301454 -1.1177444190565653
Ni 8.985688073114549 9.2995612557848 2.2511463074841997 0.2175132705622576 1.0538995566864624 -0.633726792745328
Ni 8.284119759586963 8.83226349879662 6.253773080490081 -0.01387135866545353 0.5153748004662801 -0.08117384056685374
Ni 4.633635556267773 0.9840328367441825 3.743309086383994 0.14335365652970797 -0.2795830433098088 -0.9423499320412287
Ni 3.953631120013538 6.441967087217091 12.40788003578384 1.8138562017970181 1.2341721977297067 -1.1877416741813092
Ni 1.867678587335013 2.2949198648958875 7.376671162881962 0.7839913174622563 0.7575562631991792 -1.4983227085345292
Ni 9.126808989401297 3.6237613261473927 4.222820497268437 -1.9084622566093776 0.5450422456237257 0.6601482201616501
Ni 2.241474110552297 1.8746469487086304 11.56248511465586 -1.4219889696687962 -0.7235639654141345 0.5261659775445131
Ni 5.601866636128772 4.471229126011546 11.23381135511869 -0.5751375223472095 -0.4783154337201376 0.9826810275601074
Ni 9.358295912901974 7.223434947732987 2.7873417658139537 -1.7877605331512307 -3.0262077041072075 -2.0782113724134788
Ni 6.290435383365497 4.041102148867189 7.602499888292584 -0.37389213570703994 0.9077827355893204 -0.6115479426554435
Ni 1.3906288359344863 5.456579549060727 3.7222462630576136 -0.3054992489549384 -0.1685396688770323 3.1514823916480177
Ni 6.104479417601624 8.939080777269435 13.052013648823339 -2.4895529112162285 -2.1064104605555145 -1.4029342670301905
Ni 9.184652883946079 1.0350939454512624 12.084651990348103 0.4906217618913163 0.23236370531152883 0.6457904087780814
Ni 4.953465713640904 7.3952500576601174 2.1303347778480153 0.07158182600304447 0.04277364352210053 1.3608399089633014
Ni 3.8827134289635272 4.812279845916585 1.611807038415072 -0.6953995871647766 -0.10403120478100147 -0.8489001023204992
Ni 6.853443723001965 0.3905622728872264 10.781583259524506 -0.5295032694478622 1.4714773062069109 -0.5605809646892732
Ni 4.2896527428952735 3.1782130219684794 8.366969029718645 -0.8133286329737928 -0.05073172202691263 0.21717825582034211
Ni 3.7127355168419576 5.065618288771282 3.9304341780241328 1.00389571396451 -1.0280501997235263 -0.09623613421661491
Ni 1.0980875611176928 1.4185765116433222 0.995954209171378 0.7929994344981375 0.10876383436998041 -1.421824419066474
Ni 9.343078718956926 6.6193494632216785 10.87257187266143 -0.15044912992390863 -0.4845544726513139 0.14996936207401268
Ni 3.86698590229471 2.929968627574655 2.931009706331139 0.018471576441626256 -0.5134302751453996 -1.0379684872785027
P 2.106449350620364 8.300608145953031 2.785427554160988 -0.01877856615908379 -1.6994639654966668 -1.189566386094874
Ni 5.152875905758631 3.1009672051437582 13.391319958690774 -2.6131610096878934 -0.5258808422039266 -0.16277088471405515
P 7.776236632894117 6.905154346084748 7.424583054744561 0.49350396853511785 2.218052644914554 0.8672917174538096
Ni 3.156092418087382 8.496613026986713 4.749075602016891 -0.2618087500455233 -0.5941855401175961 -2.0496001364346896
P 1.3135129219849058 5.190315770129532 9.775096710812257 -0.06680574477063977 1.1011530903567874 0.09317832122689759
P 4.486650453046103 5.634620718217814 7.773083704538917 1.6134361392716214 -2.13412206753817 0.5814531801525922
P 8.595033012459364 5.80322537137361 4.631333491744745 0.5724607468459947 -1.2698326272457936 -0.001205590272326956
Ni 6.874859139846585 4.167785288459732 5.077002420022003 1.2831118608532033 0.7686868258947019 0.16781950288155614
Ni 1.5839057565902148 6.429450017319607 12.878944048273421 0.5502780401013685 -1.2879709887177175 -2.2299722791702754
Ni 0.5346143547637564 8.410366796670104 4.415662243292444 1.0815900806231953 2.4593007971999064 2.427921768667993
Ni 3.1255374060989363 7.142171420555701 7.861424154778332 -1.023702721388108 2.0901999122339223 0.23484944784786008
Ni 8.112898491374759 8.209490557818645 12.00854746306926 0.8071901241762227 -1.5226090918857198 -0.1157927161923038
Ni 8.397905399433395 5.05316617031137 7.289606544451965 -0.03617130771423448 -1.1537072103044195 -1.624052995555519
Ni 0.7325176735298521 7.005281626487819 6.282509452226557 -1.1585843358910626 -1.5166659869284074 -0.40615485239548765
Ni 6.44512187132765 5.449026624748977 2.8132397597286056 -0.6056513746653504 0.04972256403610791 0.10012544196869208
Ni 1.4787493791638409 3.3197793195414245 2.8036659178307386 1.0643428635069734 -0.12444859209508888 -1.7689711683588696
Ni 8.58297988140167 2.3395878963906873 2.42565411843746 2.8852009505431213 -1.165916350776102 -1.4576995356965283
Ni 4.994394398087011 2.974683052953433 5.063503655539529 -0.11010774999238455 -0.4573650567207155 0.37720294524782777
Ni 6.949441947730922 7.4023019280248965 0.956813545013814 1.7974615624890786 -0.8487862024504543 0.7773398735840097
Ni 8.146524778482602 2.403964049799686 6.751360476450348 -0.21918680160993864 1.1916273823889607 -1.139477954078915
Ni 6.673463289494564 2.848027749691278 2.874379475791243 -3.7553910725906485 1.0456820538726765 1.4579463616000117
Ni 2.2339954164549125 8.941493259236333 12.688437770368907 0.026450223771728638 0.11126860306970514 -0.7224673899158461
Ni 0.29272499459734963 0.8794591665005824 7.988645463425027 -0.2791917214086611 -2.37842931836482 -2.1304430760246857
Ni 0.5068281297711666 8.00066240725322 0.38768028481446265 -1.2422230930586415 0.6206558184939827 0.8755372452920533
Ni 2.39311715972544 7.016945048920093 10.293923226858025 -0.1807740061596951 1.0077508260445416 0.7178226920549831
Ni 9.145663463850287 1.7709009453552123 9.790795473273008 0.14316879421241152 0.40132529221732816 3.607991785236657
Ni 6.686472134562224 6.228954208316776 12.27199420536526 -0.13015798377504037 0.8514506366564949 0.08147028876135001
Ni 4.732250396053136 7.055062263997084 9.906677188797604 0.6559226121160768 0.9640855239461074 -0.12066084291788252
Ni 3.5786107982592137 5.007755836672909 10.042413630909772 0.706487469547822 -0.28778923326968503 -1.6512992328659821
Ni 8.088216945098033 4.414572914896621 11.4304963704915 -1.0716612515452577 -0.8871468045065237 -0.04184367550866342
Ni 4.285913395846582 1.019217958353713 12.886210258382183 -1.0807855824440291 0.11692451580390187 -0.9618491784164209
Ni 2.551097613450089 2.870009171920439 4.95261948919713 -0.9508458853273818 4.273595629196239 -1.6132085966418477
P 3.895211941307419 -0.05507696330428581 7.580432173439223 0.4167485687509339 0.10859594133354847 -1.5898208138455263
Ni 1.663248576970778 4.348062642824598 0.4609566409259566 0.7150569563843878 -3.208192185635236 -1.436248564911604
P 6.483201971297459 2.575445123762169 11.790391358191053 0.36294669243912975 -0.40511355561516676 -0.41559080099740686
Ni 6.975450359089444 2.784041304907701 9.626323587302045 -0.7643730290106965 0.7213998678832803 0.24830557335276596
P 4.800458684278784 8.644999225504545 11.392145330239256 -0.3705725844155037 0.2899235060038684 -1.0036784557473812
P 7.042990575385798 1.4004643393379943 4.668272302168674 -0.11814270448171912 1.9553902886194838 1.6143131425599357
P 3.102665221297382 2.306889486962421 0.8297425525512084 0.20782535385053238 0.6943014690045913 0.20928522622551052
Ni 0.9918455668062145 4.616377031427656 5.909496129893156 0.69938942505046 -0.7566234669722647 0.8947349012664269
