# total energy = -340871.4778510274 ev
CRYSTAL
PRIMVEC
9.18830218299701 0.00000000000000 0.00000000000000
0.00000000000000 9.18830218299701 0.00000000000000
0.00000000000000 0.00000000000000 13.44800901263173
PRIMCOORD
 96 1
Ni 2.475245947618983 7.859196004335713 7.228896842467769 0.44225776876563183 0.737914834819168 -0.1670476577125381
Ni 8.70594400372258 3.995542447847413 7.167815765200947 0.07771853502840165 0.2669149609238371 0.0783836794162263
Ni 0.5571584378191193 7.002837040732486 5.9935222462335584 1.0836104534873339 -0.6754493692950948 -0.6090627143397447
Ni 4.623039177510777 3.976577791879375 3.8399982721909582 -0.7132096187630039 1.0385014769638374 0.7120803902545673
Ni 3.551747446269792 4.281050565529016 10.182832207347424 0.9566514362655655 0.8705657602193909 -1.4447617445889376
Ni 6.563470800868331 7.951979481063059 4.270361813451681 0.6332120578924384 -0.7351516702517339 -0.3885065431861051
Ni 1.3318168549414373 4.081370379726017 0.6928806889020046 1.1831437703979817 -0.2842822485576911 -0.6862824553548568
Ni 1.2168528164375203 2.5790737637230645 7.8526824168280855 2.068273544474476 -0.7069042453702664 0.9452894742855268
Ni 5.344385226969458 1.8497614561615303 4.244823846011002 -0.6994038232281632 0.2935603314255073 0.5377027745395191
Ni 3.252089343030642 2.1476737819617626 9.251127327140951 0.1534586061741938 -0.7179054815767765 -0.36406949318966336
Ni 5.481428755924535 5.885603797941022 2.2398866651156513 0.9964904226393742 0.08219302585998749 -0.19718792874134428
Ni 6.603136701941015 0.7540435420593874 5.820593802606402 0.793654294473317 -1.0932569754381622 1.536592036428373
Ni 0.2593775047419217 2.1203110176822975 2.126506689929995 -0.9371069384747345 -1.8010379669864274 0.18101671829812052
Ni 8.226525954088718 0.04034032246224404 11.246663955942843 -0.2523080096439396 0.115645134870846 -0.7674015314243752
Ni 9.347168057037226 6.943122264019174 3.46883312505372 0.1103599752125067 0.1949677811615739 -0.4576856732849279
Ni 2.586176321408768 2.770392594423876 2.3147382510546146 -0.33647975649685274 0.6446190141777994 0.14288237332024425
Ni 1.8338748814673749 0.5758024220365344 3.60483286286637 0.33509367478260355 -0.06332215709741353 -0.23655846011916676
Ni 4.883408100071958 3.20965776296262 1.5154965311016357 -0.6843117047817311 0.6922996080832141 -0.34793042153595566
Ni 4.02218852454669 6.526350059535544 8.565292228450328 0.03854006505672718 -0.3696590714622988 -0.12367109049911605
Ni 8.693668431836292 7.593020074714551 13.06440509738392 0.6904229598857916 -0.267540510322978 -0.19444507588888446
Ni 2.8266801343755223 7.955112692150801 2.66663277175689 1.2427900213057048 -0.7045231467325996 0.02199758731701373
Ni 2.1885157857301376 1.111940780660848 6.417148005410288 0.3609790271897977 -1.2280234045194915 -0.7940373888443486
Ni -0.027575014062828123 6.262241497934155 10.665696789177803 1.4231950741617552 1.3879539915712742 -0.34957695600044314
Ni 1.1536648614509923 2.7394647688480944 4.222621232308886 -2.127958104819303 0.5121760910233244 1.375123158355193
P 0.19637147814113368 4.885677610742551 5.152510503978885 -0.4473192424489392 -0.4738293729243258 0.020735432775138486
P 7.857321590664453 7.958530740610157 6.181095006082544 -1.2410319009640176 1.9262118672833148 1.0024630952830413
P 6.69775783913038 2.4410746513277375 7.431342707266108 0.5458434013687825 -0.16262047517911996 0.8744337278152295
P 5.722612503262236 7.817931338661073 12.665227572993892 0.38515356755347213 -1.4073761048516276 -0.34714494952018277
P 5.958981580189447 7.527985270963693 9.20759682611664 -0.6103120133658133 -1.2283188242727232 -0.06332704219341997
P 1.2184883342487174 0.1185327751211582 8.389499790993115 -0.28825640271409064 0.6340484377508049 -0.18491348224936538
P 3.224450929681874 3.9354509507393876 8.027412686538252 0.8392175849254129 0.6535227444253325 -0.8014179975791359
P 2.35488837565904 7.631684450835434 4.685407535931245 -1.928765229832788 -0.6321350227781758 1.7322481019062232
Ni 1.0137821470820958 1.285489434693935 10.28314090366674 0.48815016042237214 -2.5426443917245694 0.48589427450865996
Ni 1.446927906282316 6.417257346207779 1.500999227716767 0.06686745124651064 -0.7638629221434974 -0.5743471652354302
Ni 1.9312984508613193 6.798378937728237 12.596978701094965 0.4069596076849701 1.0083874311872763 0.06546002937602276
Ni 4.452182696054548 6.602824299662472 11.047028792821164 -0.04945671196923095 0.7916881718858817 0.2651426995147627
Ni 6.32233299504218 4.735843964971822 13.771299784969283 -1.5950620076398079 1.235286770950124 -1.5964984829760183
Ni 8.175365486826106 3.6925857440789382 0.7357928171808444 1.693576396367638 -2.03212691935059 -0.5492827660676346
Ni 3.7140036767637716 8.714213475801666 12.466331149377945 0.2345907948698347 1.6799063550797133 -0.42209877731925366
Ni 2.054486019932772 8.908913601752593 0.850138482939292 -1.1952230701600188 0.052127316822858615 -1.1083683771583042
Ni 2.710053013153478 8.222731185234649 10.497381792140546 -1.955890111074038 -0.7144113523805891 -0.9887783987070972
Ni 6.197133187764817 2.2758781640945274 9.784004757275412 -0.46291709688719634 0.6357772475164535 -2.2781655510460506
Ni 4.519753471242991 2.0405014238168064 6.605877572520115 0.09468678745162402 1.8864520708868735 0.1279370648643216
Ni 7.278155331152193 7.8103509892552445 1.4488749075418252 -0.5396997503648898 -0.9901485395817463 0.7265029934378003
Ni 5.4730949657292784 4.496745962258512 7.361776232815912 -0.7546442317587069 -0.34116456356703184 -0.28506103570524455
Ni 6.587764672176224 0.5831760346403863 2.713378259759502 1.4393948238500696 1.2073273096227206 -0.9758696610652291
Ni -0.1072559716959778 7.268305471075771 8.58914965539849 0.2076867713901391 1.5754151799431577 -1.5696301978302645
Ni 4.1100838244450655 8.906947305058232 4.81176506929968 -0.13941164116282442 0.7680628191574579 -0.23811269198016408
Ni 7.210290530289826 2.3032960581878528 11.76263766631742 0.34709532722916997 -0.8489705505471186 2.169563181954599
Ni 1.4933655861575394 5.527370267475013 7.680480767913659 0.503399630382275 -0.3517909329326264 1.1971773656729126
Ni 2.1282956523897707 5.118013022955631 4.132990262104134 0.02966641671618116 0.4939767944064783 -0.49080405310545155
Ni 2.303828979721838 3.7235962643755114 6.127746804039899 0.14024365014581655 -0.15319969608585227 -0.8157863504856661
Ni 5.452053753439159 7.375771854894649 6.270819696970861 0.3898967386654124 0.503393716845004 1.5669220548704823
Ni 5.69706902284017 0.521980103594687 0.12674895504684577 -1.0316528294731202 -0.1981379513594394 -0.29661480198111495
Ni 7.550809013901972 5.968004493057961 6.72327834879667 -0.9006980608283972 -0.40796156658692323 0.05088958776101558
Ni 8.216538269477644 0.8366417856759925 0.20115123300284546 0.10583971874465 -0.48237983359749836 -0.3554259585820524
P 9.707625156662278 3.0859740255664225 11.953384065784313 -2.3629201669856275 0.979874411349248 -0.2632809637156756
P 4.952476568536947 4.687256222356035 11.756007387370454 2.3544093013011387 2.853895969782253 -0.6020196914500342
P 7.83099710454603 1.6918329160556058 4.22693789673417 0.501914046975684 0.9780214173009091 -0.02054619958246784
P 5.068065411597951 8.26894834585443 2.6317888917365453 -0.5077378527463127 -1.4854507376678676 -0.5668752823384172
P 8.46113087697239 5.237506894498425 8.817160133714209 -1.0665241874290083 -0.05050983582409366 1.4197680507580777
P 3.4370039270213173 1.5281800636104919 0.34074175935828094 -1.0531742484846636 -0.19070823455427158 -0.3243724317103575
P 8.068468777750452 5.622643774128395 1.6259849475503052 -0.36805470308965643 1.3154702225792507 0.21023576306423788
P 6.69497378353042 2.132264998987732 0.871074948583076 0.4120123396175292 2.2259446460681214 0.7366668213446798
Ni 3.6069875197580874 5.043284560267622 13.569713945267171 -0.05753203277819769 -0.8352753124482131 -0.7866642363087291
Ni 9.098367207084456 8.938003766866355 4.702405895204921 -1.0680493658242833 1.624324504049351 -0.25959862976808196
Ni 6.789677615440577 3.2649989077763264 2.8370858867417055 1.7101579548754031 -0.36255665608956267 0.42557388035204774
Ni 9.017510146755614 2.0437632711368905 6.254803567214132 -1.5139650430574765 -2.3521829830737815 -2.260103037117385
Ni 3.9969758230077876 7.161068794814644 0.6438270993590968 0.7847101979061518 0.8747877687205385 1.1521213538745383
Ni 7.21349724779605 -0.03664294961266154 8.488060872213051 0.07513971855763188 -0.31894354738530234 -0.6328361626102585
Ni 9.154709876849962 5.241494617701006 12.619988047739906 -1.5200608715425692 0.01379294001903431 2.2233917977392803
Ni 0.9670412532306392 3.4872455640529205 9.85951514449001 -0.4608586716962708 2.294470201743345 -0.023227088848740644
Ni 1.9576321252820537 4.6892960254688765 11.667681156093737 0.2845874385029357 1.1896795146339705 0.8573921989519105
Ni 8.46985057586467 1.9997788679784625 8.927070605947572 -1.5474536617332253 -0.06631055030177611 -0.2665933159183602
Ni 6.0423470470489455 5.171590013725799 9.494469406691293 0.2946448227389378 0.7107974097770855 0.7793975274439867
Ni 1.2316827363660148 1.6973458974416635 -0.1459874224237241 -0.11508771970547921 -0.50418561661868 0.9696051682127558
Ni 3.587747214720747 5.819135619029791 6.0745998258178435 -0.7194214040006707 -0.6977981693039401 1.69118475620701
Ni 7.837961837697082 4.31408251233381 10.872916895856466 0.5181665042788044 -1.0371503622525817 -1.175738479072846
Ni 6.989183223499684 6.3027894760286065 11.714870439097925 -1.0778360128974016 0.7352257180227789 0.37362499808858235
Ni 4.687228657449105 2.9498860800515954 12.612740314877703 0.8502401612881615 -2.4060100561965663 1.5084469414527246
Ni 4.24018099685371 1.1919157639679208 2.284386532033676 -0.2568616904528931 -2.714417479937235 0.6460089525467906
Ni 2.594381475371684 2.4585875555307797 11.57105696900077 1.4015975504966378 -0.8411857643953771 -0.08860689980613128
Ni 4.116120539062798 6.47117430416342 3.9933464435953003 0.8185297175587581 0.5683276985142277 -0.6158272867570878
Ni 4.17966683783942 -0.07580533171875131 9.104530720274067 0.571589399984635 -0.05050160829397755 -0.7027791674582993
Ni 0.3003343622891732 4.335482068414023 2.753815978226233 -0.5659604838336317 1.5853810329066182 0.4688470892183861
Ni 5.962243427509531 9.185481501286473 10.636366809373747 0.5628908437693725 -0.968493680316132 1.525746866183753
Ni 6.874219184995766 3.5503967658302082 5.541063594407748 -0.03458467995340495 -0.41695657099668193 -0.9038067816607079
Ni 7.514414148451682 5.397337413182539 3.9268589692492166 -0.21920299955985473 0.20154620571003995 -0.1091222461506637
P 3.327598811415008 4.908418658960038 2.240115453843173 -0.13005436831764053 0.5841767497313423 0.07348521367334442
P 5.721427212264233 5.488319982657106 5.241468890454538 -0.20722834369648183 -0.802735687949295 0.1972136397729571
P 0.9667931690682665 8.549641793125542 11.68115580143149 -0.01470850985476822 0.4168365004790498 0.8731556324337543
P 3.096053593200597 2.1584057190599544 4.614818403433934 2.050038766634005 -0.15717076491845833 -0.24181096676735775
P 4.364517103713925 0.03981567040033757 7.011281090555464 -0.4863593870705365 -1.2782661027251276 -0.4256129611200992
P -0.059635757313444955 9.04009499383383 1.9162470928471518 1.0014117712003914 -0.6804550500398023 0.48962828762979543
P 4.586138955433433 1.5564708464232764 11.004062453558694 -1.0387382755649917 -0.609219551632583 -0.9811126546317233
P 2.0981488325103466 6.127026441138787 9.904418377879447 0.5833318852325438 0.1631696628143706 -0.11752486839206211
