# total energy = -340862.96952110087 ev
CRYSTAL
PRIMVEC
9.38618284787572 0.00000000000000 0.00000000000000

0.00000000000000 9.38618284787572 0.00000000000000

0.00000000000000 0.00000000000000 13.73762736776817

PRIMCOORD
 96 1
Ni 0.7969958024452802 4.6332263435695955 0.2763160820178353 -0.5305489371035572 0.7462431521792051 3.379068730175561
Ni 4.7944528061330445 8.928841076733143 8.07221579335293 0.32898087701664636 -0.27832551675362394 -0.32497818361515646
Ni 0.043419543178218535 7.229716715139975 10.085163423574139 0.0932035180378782 -1.4416427393439815 -0.2515590472930571
Ni 7.03612669416011 1.191416345844228 2.2036523385974776 -1.4311572664316257 -1.4107092829899188 -1.1043227463340206
Ni 5.1059708282567176 2.7062805521959055 4.151992056507867 -0.5426539478972073 -0.27927913891614486 1.3176836852908016
Ni 2.8834259808481715 0.20014626969038307 6.569924378909254 -0.15116826747812032 0.10972157029755941 -0.22926449756091483
Ni 8.560883937220286 0.3930342041941611 7.0332939441803894 0.495529740715895 -3.2767969312878273 2.245396841255462
Ni 5.308102275616784 8.423817509275123 3.3089269914699377 1.2251977621452383 -0.025250547036672642 -0.4115037754122268
Ni 5.366474946670058 6.235776269969462 7.453665405882616 -0.431070898910877 -0.01639592485952015 -0.20159197134631085
Ni 2.2678331795892896 2.0428651493907246 4.4149572320606465 -2.6663378508211886 0.37572481804040453 -0.6631666952729998
Ni 0.9550347173178318 3.944036482698441 12.059122727533719 1.0125809004433335 -0.5375464514673128 -3.07733460469001
Ni 1.6560887132929163 5.350330712193193 9.566595594284657 -0.011357076884032055 0.46474849366898024 2.491554772137606
Ni 3.6320209928844935 7.875495480397463 12.600097252487839 0.46792457740411675 -0.4896100327973503 0.5380529587900863
Ni 5.953815337594425 -0.28504429343646204 12.415669084573596 0.8101738893948949 0.15747929729781265 -2.6238742823403394
Ni 5.043693505143922 2.5269105982116526 8.371256762633521 0.7707467937475242 -0.43574027936208826 0.739428700360533
Ni 8.569462908331829 3.000481066988288 1.3033052769517468 0.7324347855412031 -0.9278517384250536 0.8907733455155176
Ni 5.218529932818683 8.866911042385256 0.6454211516914597 -1.4016829111215925 0.35413063680939655 2.837423940269159
Ni 7.1175236717085895 8.212572078381895 5.831733011927676 -0.9542600532152533 -2.483417487742452 0.9545667858223946
Ni 2.00374353933283 5.741753308794518 2.610396940059289 -0.7121482673780252 -0.5955489961240259 -0.2549963551093802
Ni 7.706957181405247 5.512467634491674 5.10630309912909 -1.4570858133719293 0.3739718399050398 0.21890012360745525
Ni 5.75912713322282 3.7653798786096773 0.5205642703785696 0.7529925550878968 1.7977217581290008 1.1940411340367758
Ni 3.9524183439704417 2.330035413239402 6.35245778603273 -0.029318803568775312 1.6683299630960235 -0.06112154990166894
Ni 5.221617986971526 2.158493535739862 11.618337256782807 1.59428682003668 -2.074475816630447 -2.7645228812340585
Ni 2.810776925702273 0.8897509998428619 13.094926486768342 2.179225130524395 -1.3382753933992242 -0.5355983266020066
P 7.910656121298825 3.067545343347131 4.615843132958458 -0.14251367712691584 0.8019545868088963 1.22755263553066
P 8.032376140308127 4.311233341401631 13.582928211654385 -1.2211696148224518 1.4855867490250996 -1.0608718742392376
P 5.609248565707354 6.4253771632442875 4.885540078840778 0.13672303858706777 -0.19364006348908586 0.2811637575333674
P 3.8870623528876393 0.9357789632310346 4.77276790792845 2.5578570949092656 -3.1664469833776496 -1.4392163892906762
P 8.101364584148225 1.1822929761282313 11.508752633561377 -2.3939842353802834 0.8736256300916374 -1.328483861230099
P 2.7095000129084434 8.230227488295258 1.791399925047861 -0.017242589130531595 -0.7598972526275299 -0.08075937873725447
P 1.4188998730426767 3.0452531591130856 2.2443846176299247 -0.42455238106606885 0.7968452906067889 1.0623060355826028
P 6.776129429619878 7.214445395666799 11.519097145664256 0.191714821441915 0.08797903641414526 -0.16135009310712858
Ni 9.312257259375881 -0.0038502121990759085 9.855429089731764 -0.07670166372811307 2.0991933739817843 -0.33403000940477956
Ni 7.805793686661875 1.809355692811957 9.234625079762676 0.6637140831360376 1.7253544601101831 -0.02203358276127173
Ni 2.149332621292524 8.413239281219642 10.780726502590523 -0.884300079086348 0.28658698543146777 -0.14361950859658493
Ni 5.408468728675581 7.184315748765206 9.706210370869627 -1.3243053043723774 -0.28300055363179 1.3671488819004647
Ni 6.126342764291681 6.555845104656172 0.05987915339835387 0.34207139165201733 0.5348349660734208 -0.07405651279578213
Ni 4.706767086084856 8.222840562403809 5.686484648404906 -0.22848313931020003 0.9264175770816884 0.6228906213617724
Ni 8.702896883519697 4.697718805831542 3.1201586526126115 1.949944177903248 -0.660519744568456 -0.46509584970607
Ni 6.769239971418705 3.528679119866878 2.9260871204532912 1.0228699410741675 -0.9342928660647072 -1.4289404612859649
Ni 8.522184705389984 8.747199666502725 12.217682575553635 -0.07826335178827812 -3.472845861328722 -0.4476614562797065
Ni 7.391318625016839 2.4897037694521766 6.857219478989641 -0.5642087912498477 0.6003381899825532 -0.39159598074470625
Ni -0.07478535035923259 1.6764661162285421 5.514064224191974 2.1082727105752337 1.3628865070796852 -0.47719931783782327
Ni 0.4337890100654131 4.481686421692266 5.586914143650549 0.24278232954169152 -0.4818640703033443 -0.5485525727698295
Ni 0.5033152821819782 4.311111321024771 7.941241936686218 -0.9184391868619021 -0.8280613111982771 -1.0729486028981134
Ni 1.6133815813919035 8.708256393918703 8.202915573480848 -0.9940746141090299 -0.5675818214871385 0.8539145248159552
Ni 4.033683914959226 3.4853712722644006 12.730247002301603 -3.4515129041789008 1.1381301818017688 0.3070293124462196
Ni 1.6527472322035182 6.480887048532768 7.2830302336449755 -0.19057967939620724 -0.4368129436009767 -0.03953431064919643
Ni 2.512211835891436 6.150540343641309 0.1870778873286732 -1.5882136172594068 2.051423048576041 -0.4362544999943454
Ni 1.7655879222505455 2.5196456926970625 9.876131254593496 0.48111793616593923 -0.07290388724857767 0.19730542815581503
Ni 7.37982055104349 6.823557811487092 8.68568356281788 0.8789678682401572 0.5338571755411838 -1.484058485306031
Ni 0.7584533198683289 1.8357402527622309 7.802779783353433 0.19041230058040756 -0.5961958856794055 1.296580070542967
Ni 5.692485235091569 4.155751222733438 6.000664591980694 -0.03343154018556823 0.7535006050725669 0.3360660659982018
Ni 8.804765125832157 0.5745948932521936 0.3561042678283294 -0.2485601125657332 1.2849085477423097 0.5981427249931313
Ni 4.0888652838484685 4.7975596326515575 10.660975704740084 -0.23662608013230857 0.22514970406159288 -0.7876908778010305
Ni 4.211467604044298 6.5274800601276315 2.112819431444583 0.9294928735729024 -0.2521203191131658 -1.4393683414875083
P 3.9763906549320214 0.13801255517496913 11.22085306330639 1.0629138443699309 0.7993109785384621 0.1414027034509242
P 3.426529292069357 6.189727656979052 8.86397035130293 2.006319214258867 1.4645407269880777 -0.42573920228531836
P 7.120142416719662 8.173337834129976 1.4098102935848875 0.42915182751129316 -0.03334592245029741 0.4106110883946283
P 1.3654455617951455 6.456858420474178 11.725188623562573 0.8043626820297566 0.2151257441666876 0.33130798248792614
P 4.283469012574555 5.548670141687764 13.105119881327575 1.1703113945200039 0.36014856086870234 -0.6127237081310996
P 8.331260360335369 8.930417955449487 4.123321022418892 1.2900484400720365 0.09082961848906293 -0.12628564530382766
P -0.02713733181367203 3.8187778727601964 9.941645872166216 1.1340547261808147 -1.2533981358388544 -0.05486014237298939
P 1.8568873226903588 2.968211370400226 6.47091704512502 0.22353942215167955 0.6905391737486818 -0.5185830229909327
Ni 3.204592998926622 4.387796434789886 7.808137416515872 0.24269156960009813 -1.7786097198898978 -0.16839157333494226
Ni 6.606699443258301 5.882865181541732 2.5035455732795224 -0.4002390011316849 1.071909620110638 0.6098571852165819
Ni 3.292898207041947 7.292820022342284 4.0657743354551314 0.07931133343681825 0.14245428464389015 -0.39893545182891293
Ni 6.703348967914286 0.8199450194778024 4.954764115870044 -0.5085541780000209 1.9794311316187718 -1.2470282277567684
Ni 1.6719607484675565 8.929563812811466 4.491242494436974 -1.0167833685604553 0.5944040838863054 -0.3987770718741777
Ni 8.635973399903385 6.50806943402405 1.0857373133006012 -0.14198865786138126 0.14185727448983956 -0.22558910559185666
Ni 8.674888513938901 6.074127429178421 12.199878863951472 0.014471454143297658 0.12146714086926176 2.188038357940651
Ni 6.139999660317169 5.002150259914497 11.935813627770383 -0.01890763553778034 -0.4498353240025737 0.07231998972064964
Ni 8.065086987489453 3.3417720610658086 11.570640430086502 -1.0830761782504186 -0.6677129198827856 0.21231372863918918
Ni 4.566744010546547 1.2317393873050524 2.5053721244592886 -0.5566620892508414 -0.5422999069918983 -1.0002771433753161
Ni 1.1774590919680068 8.439192076759488 13.812497348678859 1.1926470819027266 -0.5123619817818854 -0.7001234750030072
Ni 3.1699016671670304 4.114808693205479 4.277787556104295 -0.04934306920950211 1.305805702906293 -0.9207590932443305
Ni 3.4844983572607093 5.746859392256969 5.938419181889539 1.3678186542739796 0.6191105854940498 -0.4166506097204889
Ni 9.486896577211098 6.840180741288562 3.396628668028947 -0.7901686499175617 0.33888348084233894 0.1536216141146193
Ni 6.96246393126799 1.982136546445768 13.437460211453269 0.9038515188557144 -0.7987936725824113 -0.6815169156454133
Ni 6.4729744964025375 0.18027853648271858 9.949476764505778 -0.8525595534499575 -1.2325642298126385 0.44934192930592287
Ni 0.1030415151668828 8.730313923581862 2.140734877815309 -0.6003723856545983 -0.026668253319805685 1.106758866579339
Ni 0.7320443558426829 1.181917528814816 11.95724416042014 1.3633927572921423 0.36653903777607844 -0.0758683691935403
Ni 7.87796404648317 5.316577998717139 10.267543526393702 -1.4802357691258314 -0.6677586855190564 -1.8520545672436102
Ni 2.1022796867387266 0.8779638314381824 2.190986623479406 -0.3518474972021746 -0.20817553810109954 0.1342709775021494
Ni 9.219568703876432 7.33075897336292 5.618291214250966 1.7990253074317728 0.21672908409806546 0.1836734391946772
Ni 3.2046493160236347 4.1734535635609795 1.192874958656847 -0.10962746792185635 -1.0780938945444787 0.5956875785844193
Ni 1.4867713611253632 2.314923658874428 0.26547691807952994 -1.3006737809963664 1.0959571479781447 -0.4419461510624841
Ni 8.922880850632671 1.6335243297566449 3.296178677942915 1.8360700188898962 -0.3093790436253188 -0.9810828298350524
P 1.6535919886587032 6.1486912656227375 4.801685798625994 -0.5292086210255789 -0.03205728554586092 0.32737856552653294
P 5.968917705776563 3.811747621816491 9.890926694596917 0.1500647500012964 0.021381550999569628 1.043563464867777
P 3.1209621098633207 0.6022353244658423 8.89446793657167 -0.0989681884357973 1.807579881870003 0.6897976675969668
P 7.696913965771382 4.64715543889731 7.185740571319617 -0.14859485032398925 1.1371536768211126 0.014706710082555318
P 4.806626685270542 1.8355525291055232 0.1008076036520606 -0.1886834908147589 -1.8098115994139992 1.2635645348488949
P 9.174186509867333 7.6249594881553024 7.715188863751881 -0.8951694177006841 0.24668217881673 1.1155579529282078
P 6.5304742524521195 0.4850413228197625 7.271215845310073 -1.4411493446473307 0.49599768149124907 0.6977562603224112
P 4.893786779079949 4.308623982573393 2.523862904645002 -1.3304972921157021 0.7774339759597126 0.7158267446708769
