# total energy = -381162.32242554834 ev
CRYSTAL
PRIMVEC
9.32719791928661 0.00000000000000 0.00000000000000
0.00000000000000 9.32719791928661 0.00000000000000
0.00000000000000 0.00000000000000 13.65129696249432
PRIMCOORD
 96 1
Ni 2.7720059658910854 7.3836618486132455 -0.47022416306485604 -1.0186073091430716 -1.7112673858894982 1.5540757950354331
Ni 0.7567808720659261 6.290952609854856 4.347186911536628 -0.3456292842066047 -1.5430938421026328 -1.8257488394695458
Ni 7.220697043447466 1.7200565828203365 7.57739801302367 -0.8947287306188398 -1.2020843160562265 -0.7356705188696814
Ni 4.8334753078854265 7.791017898339107 0.8224853863464788 0.00483393105353361 0.20474568648394412 0.4487289783122724
Ni 0.7206855481470245 6.645069012838143 6.447822091063686 -3.3945524276334567 -1.464523500596897 2.904395521193701
Ni 4.225174102339305 3.8861117970859618 3.904898639494668 0.05137938291324054 -1.120148914733 0.02608512712282604
Ni 5.4506933148130985 1.0474350191913855 1.372187537122995 -1.2597569881773465 -0.7323288560909581 -1.3182678399290457
Ni 8.779141264826212 5.298352188280779 2.064144382408806 -0.6258265640616447 -0.06687645010757515 1.485745643200467
Ni 1.5346785206254034 6.925817675583677 2.3144406760846428 1.3490130915317025 -0.34559406009329513 -1.2887060671115287
Ni 7.066984818794762 0.4034330302059027 2.8996719898555203 -0.2457761220626929 -0.27114391140352007 -0.5568652064005829
Ni 8.825870527296482 7.816490476344359 2.4415619916801625 -2.051354914342267 -0.2500271840295629 -0.775271163980439
Ni 6.4734485678375515 1.1856267862092535 12.688648472901033 -0.15535428053500988 1.8471995531441545 0.21092096205672062
Ni 8.690728754056614 4.83520083953353 13.262931521544644 -0.4645574607040967 -1.3953369142989065 -0.556869320165641
Ni 1.3296200704439896 2.8866279033156657 11.214950240719617 -0.8205228367293869 0.7276795302444048 2.224025574668538
Ni 7.693334152660238 2.838154454801096 1.4006774637129031 -1.155295637837462 -0.2604038992781967 1.5782940441528497
Ni 7.813888188075056 0.5368623298750044 4.941469338341668 1.0048771040411726 0.43079784775514834 1.136394944278217
Ni 4.989593949647377 1.0415122483992454 8.493960317544577 0.5172375647066317 -3.006458546504738 0.0047691392538692055
Ni 7.3567435549028275 9.054899876589392 0.5352104830918737 1.0598220928184843 -0.3380920952892952 1.5632322647237207
Ni 2.5695218223846803 2.411724284965114 9.20132942496729 -0.5477269915447406 -1.5729047548164783 -0.7280662241598622
Ni 8.158770664941464 6.518452298659717 11.651368906998595 -0.49625659157959046 -1.4426315856198122 0.7930446859137762
Ni 8.735004963427148 3.2062150189406813 8.335522934335497 0.6756807685796106 0.31692754539653806 1.1378530168809824
Ni 4.337464240239421 7.51699414542213 11.536793605564503 -0.2898759405953847 0.011493859572212462 -0.7206946142861395
Ni 9.223880724528291 0.7573675528262815 1.9670836935628735 0.5712243033357323 0.7965670972447378 0.36722166566539977
Ni 2.4621844266745274 7.566111170605452 6.09426625268608 2.245768365662268 1.5286666109337093 0.9838069136344346
P 6.547963553441341 3.565545325660671 13.473571367067816 0.03971737319427998 0.6631900923117675 -1.2821176152607339
Ni 1.8208742670600866 5.292895777393532 11.893078582105542 -1.207427839756327 0.08624662710407081 1.9235767436533129
P 0.49628808542951114 6.372164523692908 0.5063157561045186 0.5932144344535784 1.1312131429669614 -0.9138780498537808
Ni 2.3839851978220836 9.041589964903748 11.750040402956026 -1.3307724001539598 0.8203163771455355 -0.7615260464802046
P 8.283811082641352 4.760573927552565 10.20397617161257 0.5413133747089129 0.07298282011562915 0.6782279604814965
P 8.188561735666022 9.426066397695564 12.111731423514584 0.8331945186597844 -0.8315909216180905 -1.4494678918153552
P 1.2905950736025504 7.620152956384442 8.337598235912271 -0.4661651715108488 1.1211668144745528 1.0822842784767424
Ni 7.26466545528077 6.6309942709084755 0.8427468587744564 0.025301197768949974 -0.2732180203237295 -1.1029541481212684
Ni 2.4989708959724806 4.1297009026096285 7.576770292591684 0.7441880694223894 -0.29326259767943047 0.2800021331250984
Ni 5.523911819881286 1.0551019760278249 4.926657747762269 -0.6638423811837858 2.063452211826433 -0.3141381555768589
Ni 2.528650040319865 9.41711228752162 1.0250721290319604 0.3337721277577026 0.18436532305537925 -0.01880556274227729
Ni 4.118769426438939 5.197366614475269 9.629351747518575 0.84869749939139 -1.0965230477839436 -0.5256039343934561
Ni 7.987094256752284 2.7359283636485694 11.265992399590335 1.292735499985896 1.4888852172707132 0.49928560821390144
Ni 9.112159545712144 1.942855363783877 13.48413721707307 -0.1777215924866165 -0.802116052087425 -1.9740950641178387
Ni 5.0528789887413454 5.273998874047272 13.480123723731563 0.057859591320945515 1.1259063860420675 -0.6802892138858994
Ni 7.290539102804229 6.383618322957079 8.977365676961325 0.11983500458247749 0.4758127219029419 -0.3396069892719248
Ni 7.8647400721045795 2.7537899480059678 5.568773777292365 1.6277263306420484 0.1846831114061142 0.03855934833043682
Ni 5.883848394477637 5.661963678927686 11.228192063859145 0.35019607764168076 0.10735666960980866 -0.5054842808254456
Ni 2.7737035159448955 4.695693937583864 0.43002953558194557 -0.7987311947755922 -0.22258451443757796 -0.14184544741529764
Ni 6.761920150608111 8.130341365139191 10.338072365945667 0.7388139495946695 0.8829057698419827 0.7905746271067287
Ni 2.9066813792260606 7.7885555180412736 4.073847774960034 0.693151157450232 -0.12420459440508287 -1.8732180886951029
Ni 3.261599921245764 8.94438190632787 9.429073486362315 -0.7107621856637759 0.14426356993848705 1.6581895322279119
Ni 5.7037122176137 2.9403432371612315 11.031640951062789 -1.2842017514832722 -0.13877966400578035 0.4518577537492411
Ni 7.441182679282738 1.0870103207205981 9.815009625656444 -0.3263912619125992 -0.46895764665432144 0.42761302226926357
Ni 0.46087737785099225 4.317270856357558 6.213483700613476 -1.350891796611654 -0.7373281090777625 0.30500868247176505
Ni 4.564721421893737 8.430415982343488 6.5829694606224125 -0.7980444531212126 0.2394195837170457 -0.5809060493998704
Ni 6.634380043817997 6.675970020136347 3.0391742282061376 0.5964270278536051 -0.5175805498683473 -0.08696370777575345
Ni 1.6447487853782288 2.514789823946448 5.416357100455453 0.2336520851056492 -0.6848410949226399 0.8249384492985793
Ni 0.519844856945462 8.860101344315623 13.56248195021584 -0.6396621843931564 -1.01379780356957 -0.6550345530841687
Ni 1.7580182790786198 4.516406535746832 9.77095726904026 1.1297440146206028 0.33134706325597774 0.06880734858170084
Ni 2.0533733340453995 7.089789818144026 10.511990099837762 0.6266436606463015 -0.25905124190504414 -1.3135845755207636
Ni 5.66360526579291 4.612467348956675 1.9834240119105113 1.2253075482502254 -0.9786901612331597 -0.19689302320874477
P 3.7487408235007056 4.575326446131003 11.548752006245767 1.026536591292477 -1.05345475583956 2.0384240652132117
Ni 5.193104084944547 0.4925320227555036 10.909911688687641 0.21780020567505717 -0.7959484898241325 -1.5222465663399782
P 0.6750914056852638 1.5627254053056632 7.902203695984437 -0.42598114309279544 -0.549641434958634 0.09067149564464384
Ni 3.7817777591633193 5.8852754557866085 2.172180385256489 0.03903860195970051 1.3072753454732842 0.41401959985554504
P 4.511808227084588 2.9236102437736737 8.413143876905874 0.05117446599128606 4.412712364826465 -0.5643779698378604
P 5.936714953296297 2.4224132539852596 2.8293952830673974 -0.4063327727342486 1.2023136584582133 1.7301734787653815
P 6.195535373313766 8.58156322751928 7.73770549945137 2.964228948411566 0.3031045234705167 1.323634760667914
Ni 3.40659121567697 1.825108814996514 11.254784838355949 -0.6019726402621827 1.0638533254650646 -0.10291868844311308
Ni 2.4087862175642885 0.3700724407692931 7.549945270862244 0.06901612215839727 0.10911607550307659 -0.5020068637998064
Ni 4.8616341189428605 5.7953799205194505 7.070212029336621 2.093153852655924 -0.810809723206681 -1.212394696843299
Ni 6.291586859325511 7.7331333069438 12.65935267639547 0.3810140914638019 0.21189875258895763 -0.6600163225694763
Ni 6.415386759678383 4.2006435713419386 9.284629698459451 -0.37389187859672385 -0.8022443501351731 -2.035526946171075
Ni 0.5692081201585671 3.4280904072925336 1.3396356157614697 2.5365843015734186 -0.04099058347974876 0.7704120361159248
Ni 0.3590710106128693 3.7103594033280185 3.7768903073600413 0.0972694605771357 -0.024756638119389624 -0.09412577274183144
Ni 2.4377844764505303 4.798358407046989 5.470293488895939 2.0629426191798665 1.5638277322158745 -2.133628672841519
Ni 3.255005592190578 0.8175848764658642 3.1014108902339066 0.2775498149298639 -0.5238769244000203 0.005951075377112332
Ni 7.178127711328841 4.10617770900683 3.837229817294706 -0.6021443899533565 0.5236990040612594 -0.02711562526986943
Ni 0.3490452053774814 5.515284161640767 8.52268249136712 -0.9290938383622709 1.1061713695069852 -0.0675091985955676
Ni -0.14294210900910728 7.890688337212822 10.336380412210715 0.727633764608134 1.3758224984150627 -1.0485827724592394
Ni 8.22929360975937 7.701663340561626 5.451918908643157 -1.4391742231988311 -2.0109556845896144 -0.3077103976736442
Ni 0.7359812203077023 8.670852494910077 4.160587919110686 0.3213549850402724 -0.05447859066385456 -1.4598332942100793
Ni 4.147693067740397 9.81258548687081 12.923342229598772 0.6386113745311389 -1.1073252806057703 2.1767360455539544
Ni 3.057548808458918 0.6441857347880104 5.326285281144246 0.06471903744494015 -0.8290190471258562 0.08653921864382516
Ni 3.140682125105129 6.450671550082582 8.10918448169382 -3.328688477950796 1.535531970594975 0.3110284063032837
Ni 3.5497916880733884 2.607371592265789 1.6835051589144494 -0.3773209588829308 0.9480631803759219 0.11371012263166225
Ni 0.4280447078267213 -0.10777111042170334 6.208937624260579 1.204252527352139 1.8608773077415628 1.4628990776195967
Ni 4.938602157646386 7.515613720103647 9.158095996344096 0.6350460257773837 -0.9106759979767154 -0.4675224568696915
Ni 5.92986878989247 3.5706659574163955 6.437092082371909 1.2831987641400546 1.543390290297129 0.4028394148690095
Ni 4.125401064286516 2.524657999533982 6.233701335210393 -2.6324738510838923 -0.6869589125965911 0.37064611796591646
Ni 7.857250332031999 4.993455409659891 7.083139525900253 -1.484116078016844 0.8136423075594696 -0.7057066255177394
Ni 0.6548625784506288 0.9254026228780569 10.46631294531293 -0.8064324200745918 -0.7809301620384292 -0.8472959910581731
Ni 4.526787707229748 2.913686104997552 13.145284773776929 -0.4473112720291393 0.07311060394274504 0.03131680783541058
P 6.615660357235596 5.921763454745431 5.5870392293274005 0.12413594595067652 0.0532136079085019 -0.6390327783392735
Ni 5.923059935281033 8.243452296471919 4.563724344417077 0.5949648414857818 -0.391537616702945 1.201837233042427
P 1.8781339361828384 1.5406665818042284 13.11679391446721 0.7848428668292742 -0.08856936169997649 -0.3021701845817054
Ni 4.7688937882558555 6.13489925847959 4.469407717251534 -0.6567484504514818 -0.3677153174723667 0.7405859538934277
P 4.616431408148264 8.142130943534884 2.9403936040309597 0.29363849296161043 -0.16996303158712017 -1.2474570877640712
P 1.0369792301236864 1.37382166222974 3.6928671760152953 0.7487507490924072 0.8867493119577889 -0.07136868155097387
P 2.334980099015936 4.407390244379064 2.793164714776077 -0.44225802587594804 -0.2962810727907801 -0.35660995158782455
Ni 8.617202451451197 8.969714576361653 8.13304718530738 -0.8944073427236789 -0.42038899371699856 0.8787860912466544
