# total energy = -340889.7170987654 ev
CRYSTAL
PRIMVEC
9.06893637605992 0.00000000000000 0.00000000000000
0.00000000000000 9.06893637605992 0.00000000000000
0.00000000000000 0.00000000000000 13.27330508849877
PRIMCOORD
 96 1
Ni 6.662485010588589 1.9228593645946113 11.350746014960551 -0.8409852183487968 0.5146188961368621 0.6670482897155932
Ni 4.56315321382427 0.2103775575569147 5.957696250780996 0.6025210565664849 0.4558578760475698 -0.27311209087348454
Ni 2.4398975630045685 1.4051228580867525 4.536258376225088 0.4914897663185665 0.24747870657609639 1.699240536631951
Ni 3.269868478637812 4.522225104138166 5.084989786449809 -0.46215733590303637 -0.3922444129619825 -0.8403815233265269
Ni 4.614020877735051 4.649915727754461 2.3885311075952864 2.256107285694431 -0.24368452964098677 0.8100741305922371
Ni 7.230535975890709 6.105588836980221 2.4806216216231034 0.1672399762290023 -0.5100032517417217 0.7227496970429552
Ni 5.211981195074567 4.4233736980715745 11.41391387722437 -1.392078812372925 0.1729884486770053 1.2208754806208004
Ni 5.873061309315321 7.892604604192128 12.3831437516646 -0.669537374686034 0.4450906102287367 0.2821785719511269
Ni 1.7199237761953339 6.617965602113277 0.5345693592418221 0.9307573421076228 0.37990774577350056 -0.8736626539771598
Ni 3.1304517203385718 2.0048969626935462 0.3702656258482756 -1.2645981183197317 -2.031088193673431 0.9884019892042848
Ni 0.38309998455152705 -0.08566245195258773 4.710629535845654 0.42693913613069057 0.5181053120235658 0.34968108567847517
Ni 8.689682487733304 2.496124968290153 1.3626376120316919 -0.6224357932125409 -0.10339305697637032 0.5156501656148539
Ni 6.951330632902438 0.7104604725923673 4.9901259916903244 -0.7433982265312422 -0.26993086493202545 0.16451640665025216
Ni 0.6955901376815975 7.6656907481194505 2.5728572386323028 0.19973306376070118 -0.33926014745546734 0.05597343004182618
Ni 7.587462103281797 3.943790206730885 3.6418898505608115 0.3325120300983564 -0.6368928491781354 -0.6803702036354798
Ni 7.500545417433886 3.9351021657206293 12.81756575383736 0.9335721858485986 -0.93500660430228 -0.46788601085669745
Ni 8.133557173713529 8.715773817573082 7.165554326359612 -0.49600950856579085 0.676117599006713 -0.7633888107205563
Ni 6.8644592917362095 0.8353832568387974 0.6026661884044666 0.10944311982519216 -0.4471652333695783 -1.695069178863081
Ni 1.943083092624749 6.2337419763496715 9.280442976515365 -0.5108584006531655 1.2317322208296464 -1.2412033935448752
Ni 9.08734627714743 5.013489385480118 1.3786188916436688 -0.08578794230009741 -0.5445786757237461 -0.13180040447446978
Ni 6.422457472573498 2.2057739025444643 7.2117850431216 -0.3750321628487541 -1.0891527234618017 -2.1026826180819658
Ni 3.5020513867219294 4.354286541060997 0.33483238468838744 -1.3864169861014575 0.5783429166583847 -0.21385484787406395
Ni 5.960123098144612 5.732438382483341 4.632104336789802 -0.43061427098943256 -0.8387316464279296 0.8882091843327672
Ni 5.3977855627344145 2.882688379628545 9.315510739540898 -0.06101202090699816 -0.11717391281054658 0.29902546830513665
P 0.16673783590623215 5.712949238296451 12.452603641958602 0.4729603400558112 0.3673674472146447 0.6462568068915386
P 3.9899148169377376 6.238902201125075 12.819105659227281 -0.06486353344260443 0.48074075533217847 -2.060771579670477
P 2.3870528709724557 8.614727728913087 1.494308591806026 2.678551619278561 -1.553323490250441 -0.3577674622310355
P 6.484643169032087 7.788456939305087 6.104671967516613 -1.3459334241651142 0.9076336116059658 -1.164301183770182
P 5.061210128482173 0.9027627331372339 12.608232937746397 -0.8432135934586833 0.5126548304319558 -0.05287807894595409
P 4.301459986901556 6.002883132970665 8.231001987754349 -1.256207066042559 0.6235053721276359 -0.37037255258955565
P 4.999949463529896 1.0558237061545646 3.8811936874562583 -1.7351097397247344 -0.2657037142245553 1.2863483655126298
P 0.1967560151796651 5.804500150612253 3.5112273365070834 -0.09764972673468988 -1.9564192441046304 -1.2466009104113627
Ni 1.3379764534521612 1.063994817793647 2.397530213121881 -0.17522839375111757 2.018019019194299 1.9020915771963434
Ni 1.7067284738258943 6.57819831627823 4.786844876816631 1.3140463456485305 0.3225394922666768 -0.6007986745587395
Ni 6.073321561495364 5.52783410979817 9.40815808625977 0.1582907374555145 0.03960038800044148 -1.4376801551518077
Ni -0.16379043159690718 2.2766204332043007 10.41069090871447 -0.31535994379910204 -0.02075394471789974 -0.7136266516957646
Ni 2.411956170152168 5.166418858920572 7.137666440231596 -0.10886744982738025 -0.4495170214312065 0.1352384836217413
Ni 0.47685464839707076 8.936148970547228 8.981102781073053 0.5947784365065886 -0.15926107178858379 1.34573313522885
Ni 1.6084756175575037 0.9277703250848144 11.770567936525365 -0.3051189827973842 1.0484601308384458 -0.6285357354626917
Ni 4.097581229123295 6.79510006663554 1.640274935927403 -0.01147611896039959 1.9719949870557005 0.02336592841945008
Ni 5.463136317974402 8.00141370235607 8.205132846854811 1.3049844925565783 -0.585707584553572 -0.19267230025917786
Ni 5.1669720640370915 3.274076465097894 4.832770877317716 0.7669351333109179 -1.8161123448210463 -0.5997674050807478
Ni 0.9275163948673957 7.156043732823646 6.901839633527519 -0.6172375368410531 0.7050286256141084 0.8734700783503797
Ni 5.260717658946298 4.486293978373411 7.002119397067092 -0.5410233542723197 -0.025931118043465016 0.31625828724365534
Ni 8.1168249861729 6.780444665515943 9.039625534145376 1.157083068755188 1.3287666825778406 1.9581981903819243
Ni 4.579967021791927 0.29287767140900517 10.4186017418807 0.38624885750017995 -0.11154962464523369 -0.48074589753850105
Ni 8.027749893476932 7.055859193115605 4.676450528581088 -0.039493687219248105 1.0765743725761587 0.6606040767521462
Ni 7.333196335218583 6.136495772014619 7.0805783928876895 -0.6474626542741817 -1.6095144356197117 -1.6258846494476191
Ni 2.2138452558838466 5.195085766679883 2.538825148136386 -0.1251553883541264 0.16408111888504645 0.42142771939415813
Ni 2.2141082550376017 5.200255060391622 11.25720900558708 2.247582021832239 0.9442348077687674 3.017674984045848
Ni 1.0806363159709127 3.366588684665353 3.8511827633318942 0.31122252459196076 -0.23089252008264108 -0.9339429389244561
Ni 3.6208091080468856 2.656926278470588 2.840818914350725 -0.9699877483631553 -0.5170575874853418 0.08143120799329846
Ni 1.3311838201362092 3.243341839853887 8.333033869794109 -1.0944000879036702 0.1558517889967187 -0.01166252393959282
Ni 3.519345848315415 2.5379599716098946 7.2439199121359445 -0.10861496749694198 1.6451470972216569 -0.6948272596010743
Ni 4.013367086303628 6.764936784380725 5.976106191543857 0.6336949110661281 0.06512115797936525 0.2512073203805932
Ni 1.1207935660684236 7.587063070082995 11.480041840308386 -0.3764771228253968 -0.194168168078414 -0.48930998505842827
P 0.22337425022058743 5.287924467955452 7.804849041733103 1.0047632041711276 0.29666416716181165 0.9601350239387915
P 8.540108520737313 1.7410725357317829 8.137292668590486 0.3737270708840854 -0.86559684624989 -0.4574910407756186
P 1.7477472728753618 3.2735686046630565 10.538513031907643 1.2196531781779252 -0.5436638772189605 0.23488467196116963
P 3.910625106548727 6.222269771884146 3.83573292338923 -0.1231427287994718 -0.29857886768602127 -0.585983721033094
P 7.085133719609455 3.9774178226661996 10.557692925365462 0.5496216374642922 -1.115904537634349 -0.8207532075726381
P 6.402460467951769 7.794560333459475 10.240527735553984 1.1392367846023863 0.10104898222422598 0.0433372293350544
P 2.3810401661814327 8.511087924460883 5.782727448255861 -0.7438918783382092 0.3770008565393507 -1.1840166599212383
P 6.751387793494167 3.9868585853923757 1.5172049353744959 -0.20971177223996787 0.8134517888152184 1.0934924884877362
Ni 5.268272082914507 2.8978153654376344 0.24012729631479068 1.1028942414176102 0.10648249453497145 -0.7385653239189732
Ni 1.437480822934973 1.0742245779810888 6.991925912624995 -0.48702555989962576 0.045662535034121356 0.02074674562904814
Ni 6.846575349280858 0.7858958850384141 9.14387386422575 0.12030423090941217 -0.6907680019300362 0.6445331393322126
Ni 2.508612893625354 1.3900140101503358 9.652095242729473 -0.011741971027276553 -0.11564847730495567 -2.1831311504470206
Ni 5.933823182769098 2.104129264086266 2.391119382025691 2.127078530427827 1.4950782334553026 0.5519842241591978
Ni 4.4359160370247945 6.8071345451539225 10.567037557366472 -1.422271791016538 -0.0022594854581380443 0.2914903362703561
Ni 8.12389875651528 7.518656083297647 0.075452643425086 -0.057427903100165614 -0.8104513114259978 0.6105362135614775
Ni 7.669545046062413 3.78354210166697 8.262990846893677 0.9623891100802909 1.2934831767851982 0.6974950362412247
Ni 3.291198616900988 8.549032354092315 12.443405019832607 0.5247192177956576 -1.0612539401690047 1.0193171907259024
Ni 0.1640361997716232 4.832409933651528 10.41687683018952 -2.036632263420112 -0.3435520899626019 -1.3984201812099208
Ni 8.610719259052404 2.3874428352349204 5.505288734065917 0.29982302450576753 0.3494553428209143 2.5959127641304067
Ni 3.6214348646540957 2.4708407737843125 11.443606481683327 0.8588993796250561 0.8483486006924035 -0.37700188498061526
Ni 0.8781831949847307 3.566449903646596 12.682364237147272 0.7227633238897101 -0.6870864393133909 -0.03672229512169804
Ni 3.23638596568388 8.220655238288167 7.730863752207243 -1.5025025509438317 0.11660672745316691 1.254538934311517
Ni 5.771797566183251 7.9473084281732005 3.7672162024742106 -0.5556665581067914 0.21279349648908516 0.08811144822695148
Ni 3.310270590016405 8.422992276889243 3.651472995587469 -0.3405827229216328 -0.6985936686220421 0.1272168988688454
Ni 3.497462504935719 4.321248405987547 9.376793169940383 0.2603943861964999 -0.5457140748797699 -0.05668793961034754
Ni 7.273332286462107 5.957620071715771 11.570486342391149 0.08251955596147079 1.2722839169997637 -1.441245761015879
Ni 0.6447777942824684 9.128156490661162 0.47551063203201854 -0.8286945739069017 -0.7445639647045693 -0.5867545377608475
Ni 4.561593356774411 0.296214133087161 1.7411523423715427 -0.32295729653038574 -0.6406273765199032 -0.9510549160143942
Ni 6.126030219482432 5.803965083368406 0.3128402140726549 -1.2658196494316587 -0.11566467525487177 1.004821825323205
Ni 8.12036187134409 9.097322107117455 11.318558546115453 -0.16359672304946019 -2.092333670747474 -0.9581367625618402
Ni 0.03804600171840055 4.837833157580686 5.505209834319791 0.014424145845129997 0.273419080590942 1.3210330613790087
Ni 7.743130395495838 8.949852133351506 2.551527100369126 1.7395649472826105 0.7709835923486787 1.6162419841515328
P 8.421441488775722 1.7077714015045786 3.5907210979636623 0.34332274756061515 -0.5426369786163429 -1.6462732404063003
P 1.777067144050893 3.1963647496314147 1.6081935736374424 0.09092577774729502 0.6460068956642616 -0.1544094001232373
P 4.603419291157818 1.0925891740622675 8.156738281882962 1.5037294813723974 -1.322864972381425 1.1322978913907082
P 8.73665050901944 1.5167070507696283 12.585442700733063 -0.9788971350376431 2.0483906895076207 0.5102181959660052
P 6.350694979343687 7.781591754498444 1.6161706100389261 -1.7591343847741059 -0.06319565882187826 -2.486032556767796
P 1.7562085904772085 3.0526946601904106 6.021248635945478 0.019366320341753746 0.4140237136206031 -0.8702340879115851
P 7.005771457729754 4.0322939564376625 5.78818332035583 -0.1143737243575901 0.05713376889851451 0.6810127223154853
P 2.5273039714146432 8.261456382865562 9.817693113338223 -0.49294063983248004 0.1592962959018934 1.7961839813282354
