# total energy = -340854.7904383067 ev
CRYSTAL
PRIMVEC
9.33011542559453 0.00000000000000 0.00000000000000

0.00000000000000 9.33011542559453 0.00000000000000

0.00000000000000 0.00000000000000 13.65556702787904

PRIMCOORD
 96 1
Ni 3.4010323447239266 2.9060044091973536 5.309790162889426 1.2545890708231617 -2.5449002776382814 -0.9290169623777483
Ni 1.165574002932556 8.612732204833861 0.6580866312316391 0.10044914385669797 -0.9917716770074662 -0.4402834186480804
Ni 3.868377827704985 3.141459202739178 7.793423044618071 1.5019819025536714 1.4595563863996088 -0.9042970910335651
Ni 1.4251284846864007 1.202847814162529 11.615725963187394 -1.202271492366368 -0.9264240048395916 0.3600945677023153
Ni 5.8003555041954 3.4039993214376016 6.341181244428717 0.5166546956199682 -3.599645727264807 0.3339495338758313
Ni 2.3832007199707492 9.160941798435738 4.864850019154339 -0.7168171336086041 1.0782990685767495 0.7296605652301755
Ni 2.9713152173600093 6.0500667141475875 8.189394077404344 -0.5870656412433631 -0.893815474775951 0.3342066441919599
Ni 2.8246178121112333 3.1543814126399323 12.111914565076171 -0.2752389074085002 2.2267928530010295 2.8999354285398184
Ni 5.48849639521872 3.1029724765004705 2.523944578549726 -0.37405000144114287 1.1046698452607944 1.6697780083964597
Ni 8.803197181667068 3.6430741997747274 7.090147865218691 -1.8902328780855446 1.0446525841668977 1.1189345827099244
Ni 5.416430583468956 6.279755496340194 10.99083308369865 0.1409072518717444 0.43068009123036155 0.7289468269926027
Ni 5.806317447969104 7.668505860879995 5.410731748950991 0.2929522655278632 0.228291077904052 0.6547787283196207
Ni 8.814430640671045 1.608241330543583 6.159384877861784 -2.6473489684235116 -0.8631617544458361 0.9572790425472352
Ni 8.791926402201284 0.20828176529997927 11.168724796949002 -0.7499190583688956 -1.6263412773690635 0.5378961214972479
Ni 3.4644398093344133 1.5962707924189135 2.9967005954812884 0.2284695124634452 1.2570097644495126 -0.1402369652775972
Ni 8.28997552100947 3.0252246244405554 2.2436641783312354 -3.2578322172598666 -0.3124728520592941 -0.5615214742256716
Ni 3.48625361926074 0.22872031620870972 8.69134495859616 1.2510633170580905 -1.3076954637298381 0.04202493828153408
Ni 8.89320480543066 4.768416744879088 9.337021603265349 0.5184758079891071 0.45599645850796305 -1.5315254205387432
Ni 0.8880917043380628 5.560842110432039 6.639814914752458 -0.2590874944596183 2.1110381891355128 -0.22449432986578113
Ni 2.373861274403489 5.749385083482173 1.651818567772797 -0.9818888706761154 0.5574503894800915 -1.0621530549445064
Ni 2.718982244965864 1.755479882488564 0.5980249460221708 -0.9325807684696067 0.20734892843474612 1.4361279801733395
Ni 6.5196700850679825 5.5064102168861915 2.0306511114856445 0.045020787685064394 -0.35319706925153366 0.8592019984671395
Ni 9.29497823701641 1.0768446049858629 1.4606948847886925 -0.2449993917976684 0.28310031243444794 0.11541553535854317
Ni 4.8441306317705095 7.763337154332171 7.93892339605438 -0.3590764108504461 -0.3660898660538018 -0.440778356006628
P 3.128910197456497 3.660932040749488 1.7198910901091875 0.5918355518281807 -0.11890683634125326 0.08762396706757168
P 1.6814734067248234 4.164590333068983 8.614983561692382 -0.5315511531158265 0.34136228140013464 0.4919574499836044
P 8.860708013312012 7.231044737691078 1.7876771779012077 -1.3822263450588776 0.4092414617406113 -1.1667951538366292
P 8.625757046004585 7.009948991829586 10.219949088700835 0.40574630410315926 -0.6485656575303734 0.1371521557046864
P 7.525792414929142 9.144315532700617 6.368437310698083 0.10915001406480557 -2.960259936461489 -1.2056661198702139
P 6.481444602061925 1.542034831297554 1.5406754334762256 -0.1883731586631917 0.22009877190124677 0.8571579714539175
P 8.705202979076729 1.694992744014493 13.104824518446026 1.5535461477842083 0.19637674569395855 -0.8702371732353787
P 4.875657091882169 4.159356138300519 4.617835212567725 1.1296743377249319 0.910849290329786 -0.6277104113479189
Ni 1.9162657620695698 4.140276052201572 3.6451081649432218 0.33085289722837863 0.5316848504802133 0.9589366327553163
Ni 5.741043960268256 5.476050021206008 6.571987774452451 -1.5194466349973381 4.092680726583306 -0.7322082713526937
Ni 3.5962836707839108 4.007032673434303 10.00718233690317 -0.6054670265686863 1.7993284404944883 -0.27149923786040986
Ni 2.5093905314564506 8.309307520225616 10.835446541929606 0.02088867052355112 2.8292303487147725 1.7645984932124708
Ni 6.843770305517435 4.689399997117727 10.183474868365083 -0.42637195077331086 -1.9907347295570488 0.24731621285630312
Ni 8.78334269598562 0.8465297720464392 3.906570655306961 0.8655626505778448 -1.3430581594998483 -0.503223766926043
Ni 0.7652392751494723 8.164382836912683 3.236970661607791 -1.6250791228271884 -2.246684192608318 1.127001161768143
Ni 8.676055698405282 2.2817916951250488 9.380022239359642 0.04359768208529266 -0.18345335276407118 -0.4957482844846043
Ni 6.25707398567685 1.5621972107889108 4.978232381159344 1.8940201130421186 -0.09493695578921714 -1.5037922162895327
Ni 6.820305065156138 4.066642781055904 12.939087146594744 -1.1279879511614446 0.5213438735655216 1.1748558193575767
Ni 4.797284122086982 0.16038188558194258 0.8156592190510424 -0.2717856587525771 0.718278034424847 0.06870938955125586
Ni 0.8769226231307036 7.271369496673792 12.083387737082269 -0.8275275501819941 1.1617408792421733 -0.3862977084602444
Ni 5.507912365473932 1.3292242279572672 12.0029975963264 -2.0075736554912584 -1.5388381521500722 0.31832879661943886
Ni 3.3132266282069622 6.974998379347113 4.244915163016688 -0.6298953348143798 1.311003959277781 0.17766657087896498
Ni 4.815757750681562 7.872340893155643 12.608635916557246 -0.932157307778943 0.1415068331289563 0.3507756042942346
Ni 7.873675099665252 5.666580308847378 11.96828490178795 2.4947048877308133 2.0334646643254075 -0.7340026442489552
Ni 0.694824893834678 5.443086723314771 13.356578090670613 -1.3410424146214002 -1.2109299393723145 1.2883049750183684
Ni 3.3774644730926595 5.394308879732719 5.942834764248413 -0.17446657588442854 -2.446634771696464 -0.38532865967875574
Ni 5.121328361843723 5.278568797553042 8.789856049582527 -0.7872998130101989 1.2550343858906967 0.11399345820003594
Ni 9.007078864519976 7.3015804105067454 7.663394823635495 -1.4904366209182331 0.7357661639072812 2.8282669563602387
Ni 2.7322776594846907 5.573708339640081 12.435073376876536 2.1980384065761567 0.7748903836022525 0.101990777312205
Ni 6.881156078132829 0.855858954486702 10.136390440737534 1.0573435493710048 1.691014806288049 -2.652304255546258
Ni 6.984253853875306 9.106929760085222 2.7392929732929048 -0.9024685224652585 -0.2656610339120779 -0.7029522027010539
Ni 8.90631361764045 5.422616450013504 3.1025722145475885 -0.05387618119316528 -1.057570063559514 -1.3490344316879412
P 4.858471019219938 4.313004479560892 11.756187119268182 0.0850520925753374 -0.3392213237977319 1.214793793203095
P 8.176530647230937 2.773395478280808 4.2348507674788225 -1.2666930531755476 1.6757771634026883 2.5051389385799436
P 2.922845267587867 7.602429983250292 13.405643301808581 -2.198745717055826 -0.9973985362759404 0.9209704379241881
P 1.6744105093278048 0.5711831368788646 2.760650540573638 -1.226706742590597 3.242795377531402 -0.7442616029728022
P 3.282017392020665 7.397811221276693 6.464600011625232 -0.23261978718639292 2.163313087279829 -0.35248770188933487
P 8.201749949297174 4.753003394152702 0.8295181725431579 0.5428650354667488 0.20014392604587466 -0.71216986464458
P 6.814986899348607 4.397871209710536 7.965510493045852 2.8429561829412973 -0.7397202634590229 0.7730731278878556
P 1.304900616974404 1.8261368468051054 5.576469120802272 3.732293567341237 -2.389917778620394 -1.465282747360425
Ni 4.673548130965105 9.414179792028708 4.240299554902679 0.021814267661614043 -1.0907390941123152 -0.6056313200606924
Ni 4.14444661380853 5.293226408927832 3.031973096946848 1.3489637263510057 -0.9208076870940787 -0.9137798337130199
Ni 2.1767252650222395 1.9413544425194813 8.402174824375185 -3.501095857313351 0.7364652468568348 0.19812869538805877
Ni 5.3245382763841 8.861790306704421 10.314309211322694 -3.724532692448895 -1.9166440210892217 0.7587793369730029
Ni 3.2913754978188283 1.9175253276555637 10.50032558910848 1.9503177591925833 -3.521890425461199 -2.6045321303683013
Ni 0.11476228608032779 8.208560933576994 5.776960239699991 -0.25215194368204963 0.44254393254748303 -2.8939069629575513
Ni 7.209912026192733 0.18650620884700478 0.1354247597599016 1.1855768053195066 -0.21385896163912202 -0.15144980327428112
Ni 6.728478068879444 1.381202301139289 7.376068320227799 -0.8207318674163995 1.1872901884661875 2.094420892293806
Ni 1.2297745273564467 7.364754622230937 9.166831900320465 0.23608074915179988 0.3951757276761646 1.1605599715601949
Ni 0.3996032467316621 3.1566766210410773 11.393741057323345 -0.9795147140169841 1.2874472550037632 0.5833372845491824
Ni 6.870967592059455 5.2605989951928604 4.396272960933642 -1.3345519218010498 -1.6198538698725071 0.03905145747550693
Ni 7.766080208275003 6.368783457981346 6.204229144769354 0.4418253092139036 -0.8414009657299766 0.04436489926862037
Ni 7.891896815142633 7.339507329818344 4.125237772116348 -0.005196199488958793 1.0095349145281582 -1.0058770060605966
Ni 1.7018410487561202 3.5501089294129136 6.494409730493758 0.3170224191031895 0.5981550662883053 1.3293444094581817
Ni 6.8731788294215335 6.840616726494724 0.1958932380030687 0.918009041303019 1.3269689672474694 -0.34076321436355506
Ni 1.411515846242213 9.107135022625162 7.346613145746442 0.8393826497483673 0.3411481085067996 0.3163320779043842
Ni 4.46513201200262 7.126696726478058 1.3553270919567901 0.9353835280257244 0.9435447236802783 0.1423936066092838
Ni 2.8944910467298226 8.356751157298058 2.3905024683233336 2.0012749669667405 -0.23280619216558615 -0.4803499476516631
Ni 0.8490115827566201 3.737243055029825 1.6158901591909751 2.0699727865537705 0.6708242118182576 -1.6049180744982812
Ni 6.738815836800048 7.5624597686547474 9.188953604056701 2.0734018668399776 -1.0331237575916918 0.00955293379575774
Ni 4.97088025018332 5.405421047235822 0.19052375656055326 -0.9303842750389202 -2.489715919156654 -1.6997917811497307
Ni 7.358363493146449 2.443361304404006 11.652063030826005 1.8809504243423543 0.3312478186739521 -0.7852066779265962
Ni 1.2616835222016298 5.302575184610543 10.745115163159838 0.5206787291776969 -0.28606582282067505 -0.6891209532449164
Ni 5.1637897172649 2.734181003036859 0.2195609418696699 -1.5477969040052568 0.023160754387179468 -0.06382609331702556
P 5.067306993377755 1.7871556244474516 8.978794619527818 0.06584312374705435 -1.1844550330102375 1.0658631568062418
P 3.676345391475875 6.958540055690124 10.010923713199347 1.441385371917537 -0.7139837779248672 -1.648441708812529
P 6.773897070898846 8.323937141254051 12.134118373828384 0.9658670413265625 0.08251184265198694 -2.1778573036425914
P 0.6725445781357606 0.5009590899192872 9.303101035528755 0.6875952606290094 -0.2556087918823985 0.4716727315926393
P 0.9398131993451599 6.1887868706850675 4.483300545821925 1.1369330761698742 0.3046243025491528 1.34624915563332
P 5.412959780520883 7.362618025792473 3.2644319904170973 0.6668775684656837 0.2889053491519992 0.4740044650496094
P 3.2562476131427713 0.915176096483116 12.44952106065366 2.7834713973121032 -0.7878934807301399 0.12243541831980204
P 4.647330506545525 1.0748293000482723 6.327812121997821 -0.9131555698654596 0.09549437095458392 0.31742736785109205
