# total energy = -381165.9283933747 ev
CRYSTAL
PRIMVEC
9.27628880408860 0.00000000000000 0.00000000000000
0.00000000000000 9.27628880408860 0.00000000000000
0.00000000000000 0.00000000000000 13.57678632642206
PRIMCOORD
 96 1
Ni 9.221864619285844 8.741223001530798 6.868306010008634 0.5233953567779116 0.3162058367391651 -0.7226689644036909
Ni 1.6954829259813218 6.885139690939272 2.7717689494660562 -0.7810224646419195 -0.31171669061956 -0.2685599527264278
Ni 2.465526195620451 9.359125861767055 4.050511827002349 1.090898759618631 -0.8875363266354586 -0.3681254084265918
Ni 6.651423599548174 3.900957646862418 1.0932774013216495 1.6107603922116709 1.1928455710667778 0.7245474123733263
Ni 4.822009618694668 3.9158275374954767 11.466925901786766 -0.9210329157310073 0.6677466013341985 0.302455319922292
Ni 0.7593671890841773 1.0490183731317229 5.13522906919974 0.44395983905840314 -0.46883474792321195 1.1303086288748212
Ni 8.88117436770732 1.073489222470469 13.414122774309691 -0.010466703859278748 -1.5415982313937129 0.042617320449894344
Ni 6.115365433669675 5.954078603702736 9.991740915730091 -1.4057591380734953 0.36877949707082297 -1.270898606616463
Ni 7.35580929844445 2.926418594936455 12.33751022546608 1.6659884594470404 0.5416792426887639 0.5044198441166732
Ni 6.8001688873217905 3.7854678537360362 10.265204048533874 0.09748131947762567 -0.714483343269105 -0.9463706231648474
Ni 1.1683114445859608 3.657705530785864 5.763956430608619 -1.164283186048053 -0.1169196307078954 3.426571146631899
Ni 6.049049246435899 7.069784215612414 0.6557102297017328 -0.5575828012928977 -0.8683399562126658 0.2956344403457166
Ni 8.179738528587285 0.8826249462879907 11.041389148858062 -0.7323753930581774 -0.5621663068985222 -0.34673254457311253
Ni 3.9659102196713274 7.425492778441669 3.172392374089578 1.4434160291943205 -0.5726965170058846 -0.9289506279161872
Ni 1.6601217138208588 4.296081159972314 8.332317706441154 1.4741733649818354 0.4525020722014594 -2.1798697060869294
Ni 4.3533158606622555 0.4748884635625169 5.921420502041632 -0.5075311360521454 1.269972752368084 -1.1584146430824176
Ni 7.737454364211966 5.022665017499227 3.15168769792427 -2.0260997393199043 -1.496980849794654 -1.1193115064333692
Ni 9.611069860266051 3.1233542020105975 13.279087841093569 1.6148147647867028 3.0295509095478277 -1.7382624264211033
Ni 2.3337657922817265 2.5232525396064327 4.294459664724242 1.2770923941320007 -1.3734036045609253 0.05782513853858428
Ni 4.152437830931188 2.258071277268773 2.8729973764918353 0.48997101568119483 0.801060100019085 -0.4337541021699949
Ni 3.7753195940026822 4.984938351744609 2.613612866903146 -0.7450768997852458 0.07752750206351809 0.3737414690617886
Ni 1.9822408356131147 0.36305074525973857 13.188911184311225 -1.3451340681922703 -1.0422591442340565 -3.2741440670460125
Ni 6.225808925795192 8.353585453324756 5.208109158250079 0.7326330175949383 0.983365455221642 1.8601298880525772
Ni 8.271471746597468 5.86109308673094 8.997255060417812 -0.12354973442990336 -0.9073901281365921 -0.2632876485838949
P 3.3219966461879733 4.01417474928069 0.8255442319888843 -1.3062749292332276 -1.9956815320393628 -1.0641736849189607
Ni 2.5630107125654424 7.344854001602502 11.879280120979574 0.24504952830931345 -0.2256703524517533 -0.305096614199881
P 6.403635378344006 1.150278339538757 12.438141259505725 -0.592504038650115 -3.4279541430223546 -0.4030906116478671
Ni 7.169513594399701 3.91233037669157 5.501327075266066 1.7870424240382836 0.7977060959451875 0.11126448930464708
P 0.729204409057692 1.6876630146877043 11.446384488300898 2.126279174454983 -0.06878857952862347 1.6581183126703443
P 2.741013414597742 8.618089546594286 1.9617365272816647 -0.5200328680635818 1.2428126470135241 -1.302660215298776
P 8.877055695566911 4.630463535299757 6.831254658064426 -0.7254758377248667 0.6510076913129627 1.4970196734523895
Ni 9.015439368969268 6.319388125237677 4.124586702024952 0.7945528950281865 1.4676455911656465 1.1766069977207285
Ni 6.1088349264920865 9.345675243290486 10.433094668358377 0.9922103072067816 -2.1174937149528694 -1.398480859244527
Ni 7.909965503390385 6.831040375797661 6.637636251795263 0.9746293609002246 -1.6691383179299317 -2.1291773219383847
Ni 1.7104084743460082 1.9920273200908925 9.608739656568593 0.12798154494901184 0.849093449278228 -0.982825780668088
Ni 1.052042443216799 1.7303803237115585 7.334234506408037 1.5156000075577383 0.008717068158023698 0.6810335482510916
Ni 9.127042397170351 3.47191074632576 9.116649243417838 -1.2542563700740914 -0.07074467481372977 1.5376333332086938
Ni 5.078990641905924 6.820066526378504 11.886557369389827 -0.9880248083705242 0.701024903771354 0.0875961991534298
Ni 0.05820407284911478 8.684554154445733 3.7834159386967148 -0.35757771481773254 -1.2478872333229543 -0.9615807552463826
Ni 0.9317197037274585 7.860021965543602 0.5529475045407647 -0.08808779407786764 -0.6030522464796065 0.47186273611625834
Ni 4.178513478198518 3.7349770148615873 9.21022009420058 1.0301837011267614 -0.37465549623562566 -1.6729980579956543
Ni 7.081268260904821 3.631397976303421 8.03441619130874 0.21844838078201734 -0.29710922511903026 -1.0771184180050868
Ni 6.790994637891911 2.7141771116648403 3.176805104578752 -0.03808806512097311 -0.5631860064122881 -0.42606213284237593
Ni 0.10582482802932286 8.128997229920515 11.69303450889329 2.378115386668827 0.7262011459266654 0.20265872204792842
Ni 1.7184602928547392 4.68372798446696 3.9875703535629015 -1.1531233127764913 1.528266547281813 -2.9701226881881815
Ni 5.502824268246837 0.6501982590129218 1.1901441174455794 1.082693340989703 -0.4861254166828596 0.6014039122429062
Ni 7.798909776216968 0.6096803580172012 2.0778320620539215 0.3867214262612243 0.19437539899321363 0.22168025745575368
Ni 8.528202310016404 1.1978564237913842 8.664881001573248 0.15284591229085934 0.6085891171374357 1.1486310813330927
Ni 1.3913598040818513 8.763634514799339 8.847882695534528 0.2622862039025741 -0.10076101867016195 -0.9127668190674733
Ni 5.23424788427992 0.23617709075787985 3.4830153914142414 -0.6226239979639471 1.1072023818746608 0.2589219154160315
Ni 1.0994164491201266 0.8797307442433778 1.822656204605107 -0.5316408846161553 -2.5379750112733577 0.33169879016844167
Ni 8.495633260725903 8.226537404597133 9.23602951198496 -0.5214158644540374 -0.35020687627495817 0.8226331982041702
Ni 6.9056773939096985 0.3749698484876974 7.311017811288623 -1.1776714344295007 -0.13030993597187235 -0.07805406399094944
Ni 0.9790844333421815 5.966740737647918 10.51952463217335 -0.7746507567876207 0.4491650374084265 0.028734391820215026
Ni 1.933568149305153 5.081105635707757 13.056143376030048 0.09554502168686126 0.7320177526084425 0.17069836709124794
Ni 9.00083849070574 2.7295664744597534 4.115707438572697 0.18988419599107942 1.5046339954645378 -1.9689117201446864
P 6.783610712162706 7.553913717882763 8.14586801600557 -0.07219066323163696 -1.0159904403455147 2.2613556785775635
Ni 4.04682728516863 7.4000850239538645 5.392970748076567 -0.2992864352760072 -0.2223376885340945 1.462195623794669
P 8.454956735195045 7.191841621070802 1.7042397424239968 0.09178478331348064 -0.24182022273873835 0.7641629698824195
Ni 4.863474628756911 5.187291311363796 -0.027794543545749083 -0.40090157441634827 -1.0307699126475345 0.6771768935091628
P 8.603757680700289 4.392684429499875 11.28088344042092 1.6083792935740042 1.2729657735581366 -0.5519795961735073
P 3.10805760210173 5.259006298565407 5.341094031684602 2.1751044234878023 -0.1963024408125974 1.308752958460075
P 8.784125836326742 2.723240045631465 1.5163503719969906 -1.8392967533573097 -0.1532277211103103 2.34691325003441
Ni 3.4055017962059395 1.385283835045885 0.6804602953274754 0.9360350455667944 1.4553266645889775 2.5350208137410406
Ni 6.851531697325066 5.182950008296876 12.292517442847531 -0.5814452097327921 0.5573974247549691 -0.13582778046630803
Ni 5.764192975968035 5.55383457928314 7.401846591159865 0.23253905454712853 0.5142280884563467 -0.21136139202824888
Ni 6.057416458757184 6.235502647386924 4.907016599837708 0.9783160657231924 -1.2584135867755748 -0.061272987877868675
Ni 4.5502421914477935 1.3963875525055056 10.999300772201593 -2.0619807694872296 2.4589621829135653 0.0358828299395382
Ni 0.9965516847845088 6.6380935728234665 7.8628595822277285 -0.22268144502675846 -0.31954184309093353 -0.34661350249674494
Ni 0.40950918147779924 4.990791689854067 1.6222633247680567 -0.40083549706510324 0.3316010882483128 -0.25731291905769876
Ni 7.649849094630798 0.824173196533135 4.61541461229663 -0.976061722471377 -0.6758710302135457 -0.8802120250599035
Ni 7.302053205981207 8.719154710940625 -0.02950509116442416 0.4089121034256506 0.13572467922954043 -0.9741765896335224
Ni 1.6394634190985735 2.893107442557593 2.2123234047578193 1.0365422963549376 2.752457722539408 -1.1047541774444847
Ni 3.3963553756418747 5.921407515237585 7.47756429689433 -0.18850479914504953 -0.0527837194599349 0.1335407842043442
Ni 8.510197033835013 6.4869921077443 13.170269554731563 0.5853286039475983 -0.4015677472454374 0.5186300741787843
Ni 5.204452445282174 4.228670370683204 4.445908990626079 -2.264783987532822 -0.9334438878008504 -0.6908207095448425
Ni 5.3224932177748006 3.0609804374337473 6.656507933332317 -0.33709296460081944 -0.756606240581084 0.6334838234965865
Ni 1.7408810824118848 6.895427095001694 5.2156851031533975 -0.6062856658152397 1.4088164368425802 0.9515197714659548
Ni 5.011848864986347 8.252167790011445 7.473274013414735 -0.9559104443344827 -1.4344287380940457 0.22634192459748115
Ni 8.254171468350023 1.9463694275794028 6.40036826949749 0.22253566347751352 1.8431991737355093 0.7995860865767197
Ni 2.604689077265589 2.8012907379499685 12.51305842153362 0.6051862621034738 -0.479406095681155 -0.39699735426593563
Ni 3.9704463247989414 7.8546880995959985 9.600376154762749 0.08983074491090336 0.22690628174138341 0.2483729362555916
Ni 3.404268049821537 0.5609807704722866 8.179321095600082 0.5260618478664811 1.6854967046832974 1.4793004017957554
Ni 2.3266972603650755 4.087114206578097 10.49424489046829 0.07423057647980119 0.038347232319630734 1.545701197818493
Ni 3.4769848761924376 7.024515927222315 0.5814897169480387 -0.28781468719098174 0.6432460450896729 0.15402604864188957
Ni 3.1369717936820454 2.590468526834847 6.588339271264217 -0.4588956344326291 0.2681627172880091 0.5334085180395395
Ni 6.562964911415389 7.708568001497464 3.019816906751151 1.6528966592600889 -0.5121290398354729 -1.131516018919361
Ni 7.3494828696161605 7.5080888521763915 11.269968031619971 -1.0026096481632347 -0.47832571813278274 0.18710097681898744
P 5.763506530611299 5.70150381757863 2.4716401974396955 0.36864657103738446 -0.07644866717704253 -0.06461722175975324
Ni 5.381870741132388 2.613983918447327 13.420041974068242 -3.386946847372058 0.584298105800555 0.31011232224691754
P 2.2592029844785255 9.067850399584856 6.582242894393321 -1.189440916260603 -0.6197471906367843 -1.0041746786575094
Ni 2.462826795636533 0.17634873977411208 10.664008392962048 0.47875920612577544 -0.4363123498154744 2.0805827008591327
P 5.667524772420242 1.908819011308271 4.8549089038594895 -0.08015439816340389 0.48838850168542347 -0.17649106251362506
P 3.491678517342011 5.909255577165654 10.182671053561661 0.21551192386151272 -0.9239570313563379 0.5745585099152879
P 5.50018980228315 1.4545962634989227 8.788036719602413 -0.3719594374607013 0.8248970545376827 -0.37625575084321006
Ni 4.554666981112153 9.016598905044834 12.803723503925639 -0.15481306331955919 -0.40961967101563646 -0.4573203195257092
