# total energy = -381161.9519829659 ev
CRYSTAL
PRIMVEC
9.29438553187961 0.00000000000000 0.00000000000000
0.00000000000000 9.29438553187961 0.00000000000000
0.00000000000000 0.00000000000000 13.60327271679686
PRIMCOORD
 96 1
Ni 4.184620436043898 0.817371488628705 10.939126354339285 1.2801468646876082 0.9641171485149912 0.07884287844083197
Ni 7.049438144336411 3.7353019623278048 6.3170331387801335 -0.12184252193080952 0.056232340130167674 -1.307604960898561
Ni 7.863142997922172 0.20822955177462296 4.504519240164398 0.3093798149562672 0.3203275722170225 1.026333988363368
Ni 7.180962992226621 7.341690799064682 4.205097825971938 -0.5399352634144637 -0.8400555074456759 -0.639543399427105
Ni 1.8631246154708394 6.448686249188957 8.33852014000303 1.8363528402376375 0.40869124566409615 -0.6862546874407148
Ni 1.4770637288327462 4.755686064202353 2.1142477558973827 1.476312265701709 1.3561936684405418 2.428921413577101
Ni 2.2311636888053417 4.685838757871002 11.615739023176223 0.7027326304910801 -0.2741094217897473 0.037171466843974696
Ni 8.799719626584507 -0.043091559061082696 2.069180210498835 0.9151720860748561 1.8188677960789967 0.2812979691183865
Ni 4.597802339298741 7.956644515113573 9.736923626261794 2.644065155465917 0.8083178100227626 -1.1680272264715175
Ni 6.703417470030381 8.708848420463202 10.708142288211981 0.8183654240667518 1.6599209130967219 -0.7545964092399069
Ni 5.770168231343645 1.6165445706310915 0.4673216982488704 -0.4511686981020166 0.15637655115193716 1.632460502892924
Ni 4.460068841956855 3.6378689201093697 10.23072224021873 0.5537914525712656 -1.521960145447811 0.8662319087307276
Ni 8.605736508761273 7.192134843485475 11.253034927065167 -1.2793313107648485 0.35299986563906305 0.31005267265357567
Ni 1.5836331519059672 8.886724368376624 0.9202147925923798 -0.8341985344442666 1.0261470691635424 -2.9840205292161968
Ni 3.263184361209077 6.655569973956689 10.664530243568121 -2.4300884373020084 0.09562292611264822 -0.7371874697348401
Ni 7.051724563146459 7.320323007014678 13.162200210086635 2.1802193761168644 -0.674082056633923 1.3894948536958327
Ni 0.7767234234910435 7.197163105990499 13.18297223203207 -0.2292930368060051 -0.7861032215989364 0.1949346139307933
Ni 5.641385227148412 -0.423865799279845 12.809453189061776 -3.133227816313204 1.2715976895660164 -0.3506442209226929
Ni 8.19686720033514 5.553441752430216 0.4211276733390313 -1.1638147310520666 -0.21711423535162608 -1.4876521161945604
Ni 2.8597336794750485 7.7212734990743055 4.760139004250702 0.1301109325871888 -1.6648510034084876 0.37330926662037645
Ni 1.759984820612691 8.700046637483057 7.150668872432023 -0.2129423633621236 0.3053231283883903 -2.2658741352732075
Ni 7.909605630570265 3.027627457461675 8.522790625076262 -0.2021779257567679 1.11609042839291 -0.7028527010087121
Ni 6.395540953433447 4.9307829908791705 3.9471935019526674 0.23187519571088452 -0.8142681140689267 1.2817774583124957
Ni 2.558409704589838 2.308381442764204 5.847870222782197 -1.4196302396286324 0.20596901736808398 0.6781953074713482
P 4.625174304321472 3.8963829558113203 3.499101887110259 -0.16985041726865588 -0.8627727465375334 0.7030833289622794
Ni 6.399574716699954 2.1172331124900143 11.991611404531492 0.6845870699303048 -0.497109426498189 -2.2402109261791483
P 2.475494492376668 3.029179619824594 9.716953709776957 -1.3651362223458103 -0.20123150268309856 0.8932840277525131
Ni 0.6175849565575281 4.347690428004447 8.850166762256451 0.21914566395935806 0.0898896231732968 -0.15578879696926717
P 3.308345779900232 5.831650590808965 6.5705979142530175 0.20758007060894573 0.06230091492175077 0.8210632826138893
P 6.068387881503017 2.13287556312949 9.526399290730255 0.17187721789069754 -1.2319163118159946 0.8072831981106613
P 0.6509443646592553 8.381388633814352 4.965983616729966 -0.5492218309227122 -0.6572819543574486 0.8179201089992171
Ni 2.7728311759224042 4.04365249258048 7.775848271305366 -1.3075555957178642 -0.5184189866092426 -0.9384549678621966
Ni 7.979685296536783 0.9534087606338678 9.350332030216977 -0.23056676131210616 -0.8271334000673689 0.8290655840930754
Ni 0.9208746939562555 4.590599190608549 13.661222268642137 -0.33106938411455883 -1.4213616204974422 -2.3017348537255584
Ni 5.475963755679967 3.4945866746796845 8.014327329824635 -0.33113237614201035 -0.24999221702656949 -0.09334647137364568
Ni 1.034883343108999 6.1833966065255215 10.328870020674941 -0.3201151990959003 -0.4218637784903122 1.1666020639892165
Ni 4.017739746066601 8.409299673190672 1.2820033917408764 1.030419214176335 0.8039086252114735 -0.67371233199933
Ni 3.495237281658153 1.821113993432556 8.051260429115237 1.265554311585414 -0.6568615789905785 -0.20945337637225864
Ni 6.330991446783916 4.0413660737704316 1.2962275191672898 -0.6256172762643161 -1.274846278410301 0.6872982982138809
Ni 0.24988977548307387 2.5753068972592184 10.504324781189917 -0.5434311923828641 1.4616155829214827 1.5980061778697965
Ni 0.7337433970548413 3.541356022046198 4.19733050808756 -1.3854193980748786 -0.1802952667510637 -0.538348378543318
Ni 0.5203378020472272 1.7340906628696249 0.049765857221633875 0.09723269380192931 -0.42831364788071397 -1.7162198447987669
Ni 5.237990311726822 5.9595134508489345 0.27181523065747887 -1.0240588191759459 -0.9415911994983331 -1.1890277399825846
Ni 4.265565238550847 3.6618205513024353 5.898732817481821 2.1124471536678975 1.254751050322323 -0.8414145925767316
Ni 7.823762686953985 4.908095396101416 10.181151565090635 0.010702474019168665 0.4277960848143471 -2.9028873120792906
Ni 3.4328254836521634 7.146982719179726 12.994131697654362 0.2551326235769284 2.976443745310203 -2.4311189354490517
Ni 9.073281272259905 0.500035146564832 11.372390636142384 -0.09693161762174274 -0.9263476430757014 0.8506317402996253
Ni 2.838997905632701 -0.07919374029632706 9.376953008898848 -0.6208591927540404 0.40445946697093565 -1.8844625512606705
Ni 2.5748607667596968 0.9272841021327158 2.2822893146119756 1.641463734832799 -0.7928557098314216 -0.5798454693458401
Ni 2.2496595157646744 7.435898689546992 2.334484724178921 -1.0633840991381298 -1.9832289080983072 1.6503504957994672
Ni 1.0610935099558927 1.8305106170787298 8.549357696322772 0.6303974712617788 0.20444563874502208 -1.4100204844530104
Ni 2.9368956671214708 0.6499916901550686 4.482318671181954 2.3881028368988417 -0.05559084989142684 -1.335501687308829
Ni 3.8857966508330892 7.701281276064494 7.453654683427952 0.5632983636204363 0.39460725676720426 -0.10729162069982812
Ni 8.8241266826625 6.845379912732315 8.633180969990176 0.053031059584050605 0.2376738046705326 0.01323501063303527
Ni 0.8070482147574833 6.237778055540123 6.295730407427978 1.3801905455757715 0.6387229604083386 2.1575108787757555
Ni 2.702565622247753 3.012849384665022 3.0597981136698853 2.314651304676911 0.7695016084865135 1.9940992751539077
P 6.745530330308137 7.110037537188094 9.097256139416487 -0.6640766086817789 1.4435121884525528 1.7840437464212757
Ni 4.149980261633127 5.364542663424449 8.8600290346115 1.1050683662507936 2.58540672239276 -0.4445743327139505
P 7.868756806707819 2.18776820334146 1.5609892407396242 -0.49525926066332776 -0.9925229533511939 0.2753867458402741
Ni 7.672124789043677 0.24818053800678175 13.482461495237995 1.900926867464281 1.4402124346553582 -0.4026828346864872
P 9.024959762530472 4.861930183786338 11.80599416301283 0.9624346186062457 0.027560169006455762 1.3378362489792763
P 3.9651614078209 0.3476313912970112 6.236501936423783 0.4891703741567704 0.30602221133794394 1.7951717380136374
P 4.975135798039942 7.910116821767634 3.2089980942880167 0.2682629903112993 -1.210456856390638 0.7453792615170131
Ni 2.4067718066795294 4.989495623493294 4.923704386953428 0.35806673863900906 -0.18278820837624646 -1.3654756079631
Ni 6.672457872240663 8.555732715273228 1.7704112621619268 -0.817083986251167 -0.4221949365774858 -0.013473609006402603
Ni 5.832970393536716 6.796946870378001 11.410927946354184 0.9224897027821918 1.8401696428805663 -1.2269666811202031
Ni 8.000634841243484 3.380925635541151 13.433000493857701 0.3695919656697893 -1.0798047065879985 -1.6280659733696543
Ni 2.290526928397934 2.427126510720202 11.962717948617685 0.41634259156176684 -1.765057178016444 0.039662608696944594
Ni 4.635946497007837 3.5009812118394934 12.621319957413519 -0.7313844898998179 -0.0707089364797879 1.2379830868353647
Ni 8.189348042541118 5.4486103794280485 5.547387389776292 -1.3868754137951147 0.20977193605394195 -0.2021830679630905
Ni 6.552532417338015 4.758883332782257 11.97429410564173 0.5687701853682849 -1.4347640099462775 1.9075397447951083
Ni 0.7978867390620992 2.290610577866594 2.141427327142195 -1.9531937951887972 1.292413340759787 -0.710724390447305
Ni 2.8465914185099748 3.189043048819832 0.654299637791074 -0.16296140345830643 -0.08754734819336536 0.07354486326668624
Ni 0.4546646042020265 6.3169383360489855 4.161036862512938 0.2559785165169914 0.6942636737881204 -3.3702771000258602
Ni 5.158476844572505 6.579876499204526 5.679556338575186 0.3852204162356656 -1.3536315641403205 -0.832465868023876
Ni 5.922605446398929 8.692759839324205 5.971129573730229 0.35342306921941063 -0.16455960118336174 -1.4294055738478413
Ni 0.631715210691334 3.6315952099598476 6.432511230265677 -0.27786220396396016 0.6435005843026401 1.9674626464029858
Ni 8.622187570931132 6.992937575449083 1.953021770001522 1.2658453604632716 0.8396880968039281 1.259713793644237
Ni 8.123264962299482 7.743468491425505 6.62224960227367 -0.07520682435014145 -0.07941983399022451 -1.0469892027198742
Ni 5.609840083078072 1.610512514502143 4.905802471221584 -2.845773083564802 -0.017785349007879047 -0.5311202362259949
Ni 8.578940795633757 4.624793234519797 2.525569852632345 -1.4074833198534535 -0.5813598491078376 0.6111795035724312
Ni 5.108937770354794 0.7154539054515373 2.7725913807789118 -0.3692782910841124 0.7717644363787611 0.39212717065782793
Ni 1.8196826580799244 8.397347093557656 11.214836861920713 -0.809959973611876 0.3377251988681797 1.3747138387319162
Ni 6.416248844119574 6.179037539769779 2.093080722572164 0.5058743171750126 1.6438623169719624 0.8064046521604499
Ni 6.744470770371774 1.525506065572466 6.713296472279161 0.6612070004434678 0.3572177603751525 1.3994740763957318
Ni 7.28030138345343 2.392477041924025 3.7399881914498625 1.3714030291911283 1.4464949252299606 -1.418893361462608
Ni 0.882114318494695 1.0224567498202413 4.008843160355307 -2.1198586156406205 0.15418288593472804 0.6757000518533202
Ni 3.951981969314199 5.742526729144119 2.542220744088448 0.08284994271769602 0.13807980972527834 -0.18558351173319654
P 0.7655376306540803 8.97697285067568 8.935650013157492 -1.9641119847631978 -0.8007484823159371 1.673785586893956
Ni 5.5839180421787855 0.13847425985879963 8.064224237880502 -0.4583199644348171 0.6095471101753309 2.315123873437955
P 2.648156290076932 5.757453512107279 0.4740564099145651 -0.8720971092622529 -1.9074405002130828 2.7734237832681137
Ni 8.762049482531152 0.6731235565552633 7.228316956435216 0.9035951798705341 -0.677473341703659 -1.3162713783243074
P 3.4550483591595826 0.395952901026444 12.89544019565186 -0.6284058947530469 -0.08704624018723074 0.7143583876554664
P 4.476018007314752 5.424054613183547 11.618582175672133 -1.1610970750105873 -3.7878728472684373 1.6813163480533624
P 8.620914240130414 2.2214789392115604 5.577273486051536 -0.36833598177550114 -0.44834999770629874 -0.7326343031465189
Ni 6.461558972977236 5.660503777929993 7.704335411109136 0.29976671734653537 -0.3572164748235719 -0.918904813644411
