# total energy = -340873.70000692096 ev
CRYSTAL
PRIMVEC
9.24271739892802 0.00000000000000 0.00000000000000
0.00000000000000 9.24271739892802 0.00000000000000
0.00000000000000 0.00000000000000 13.52765118152147
PRIMCOORD
 96 1
Ni 8.078874601932595 0.19137601358888837 2.7875213687064266 -0.9942795310309844 0.3034223118212516 -0.34842870132861287
Ni 6.717902920409885 2.8158031602981044 10.682989028166949 -0.712014055793006 0.15483826013053978 -0.25240211201964274
Ni 1.8413711716266468 1.863525965719673 10.035285258197895 -0.7240889846796691 0.5419965168188665 -1.0628225702077052
Ni 5.766217259758009 0.30309551406474855 10.618435115616293 1.1236507572386714 0.5829817009819767 0.2490709907638807
Ni 2.6167889648825673 2.0665422578570625 2.785857679537989 0.31907673052905694 1.4514417277122744 0.9122163458806418
Ni 3.044652848134288 5.6838831313555565 10.052168006170495 1.412777221262541 -0.34826029407154857 0.4677548845954718
Ni 4.303695839937393 2.063242607672995 6.527592592160556 -0.22512090770618648 -0.403064386395622 0.13084446831910368
Ni 0.8786524789727495 5.680712879217923 4.71093737167457 -1.5463663422063174 1.5378919861867193 -1.6694098264237638
Ni 3.8388056299703353 1.0783293772403806 1.0067417565942745 0.8434290519035991 -0.15318812612162652 -0.16404049545509813
Ni 8.848857677238286 5.463998879593731 2.7553391502865234 1.0263668984838323 -0.5480527503152754 -0.4333236995007957
Ni 5.013157600382368 8.554125898331977 12.87866221791933 1.7275023596911216 1.3712299939483739 0.4060463518420814
Ni 8.13695583934627 8.069853709552623 10.717849786148037 -0.7486800437554718 -1.0965888680248725 0.7950511748208436
Ni 1.3440759937454672 4.493800055584186 9.006981165708911 -0.9775048826758068 -0.4308374427438322 -0.5278521069976844
Ni 1.5876400880047201 8.040443382141689 10.882292520643443 -1.6936648423163865 -0.9633116218945602 -1.6147715702535932
Ni 6.944275559928617 4.225890643160131 3.04215269302283 -2.234915996328796 -1.1133293207080053 -1.30725503375831
Ni 5.35048906471828 9.423227877206136 8.070366680379557 0.9519576303343217 -0.7319858709292426 -1.9014878821740737
Ni 3.8684377826037277 3.547096219720021 0.01125485722447982 -1.401739989611773 -0.43740943953439504 -0.4420438529826129
Ni 1.2230610921768426 0.8856020783380171 0.9462269116358802 -1.0504128836894424 -0.38159567499888475 1.6401689272807753
Ni 4.787505892836625 3.2660529055829115 2.154589310009577 -0.09531233685076487 -0.5229317868779316 1.4578676858432764
Ni 2.131971455764669 2.271212996445287 7.5810581347786385 -0.3049693445933973 2.069204026708546 1.3209502718572153
Ni 8.717879126094243 8.776080518836748 5.142942916683939 -0.6565821000769466 -0.6956217304779116 0.651850241818916
Ni 2.1424249693730184 3.8369016301442347 11.483230912359478 0.35698764664221744 -0.8524294556299965 0.4805823753774433
Ni 5.441677716583861 6.081236803801653 0.20181473884907355 -0.35058894220472525 -0.34532897935736656 -0.8726563241998326
Ni 2.9931616683711466 6.727284278776352 3.916836349057096 0.19997757567133947 -2.373316679728603 -1.7625963751807774
P 6.000372267497987 3.9319722234028363 0.5395695196511768 1.3770034060970413 -0.6205645443317571 -0.18813610295172117
P 1.764185236928748 4.5236078198520255 3.188494489365635 -0.3659777659559697 0.07236858357039794 -1.9357879410075245
P 6.886064924468508 5.427684242133781 6.993200961285323 -0.19532696427320553 0.7160491450943282 -0.16718649728324755
P 3.319263230820105 3.4324125797090614 9.363447828297135 -0.55384827395113 1.6843114261259442 0.10524296570091553
P 5.249808141875003 9.273033716166637 2.389687074945004 1.9497143212806292 0.9528289771956816 0.4003976381967362
P 9.26989119218181 2.523603886014861 8.179751470389043 -0.34207987629244957 0.543759008035928 1.4596551167610021
P 7.234903572219446 7.477081258838334 13.583521104998294 0.22045512679940096 0.920006531349022 -2.0915749382045785
P 1.862324412431357 8.353115275914314 2.1040907981169372 0.29080179484376373 -1.1566642360502144 -0.3200061843218618
Ni 4.180702996801847 7.721209158871336 1.4790187464691946 -1.5184202506153528 -0.3528810806730116 -0.18387244257936075
Ni 9.195478072764642 5.576334869333674 7.003387360354962 -0.1478507730691131 1.2607365784817965 0.6521168652167415
Ni 8.099448891315607 3.508221349484198 6.519502441443149 -1.221050058525452 -0.8185479723912032 -1.493141421443906
Ni 3.5369569585101543 5.355738928316461 1.7509653779419916 0.13266326669539732 -0.7083990847482381 1.093202210940827
Ni 0.47972939307775997 8.142769508718198 7.292270347562453 -0.4439122736499193 0.5432231901371161 1.3617518792546095
Ni 7.928856052527543 5.4618822972627745 11.271049541447518 0.17598249830832274 0.22967818805956575 -0.5840193982178716
Ni 1.8549302383494126 7.877466542658028 5.489088236525529 0.1805230664911536 0.890456328495731 0.05025195417701668
Ni 5.320644329580031 3.6918926336797 8.403187698525484 -0.03244372235100219 -1.3361727452339245 0.2935492756819138
Ni 4.83859039302526 1.4834192043197119 4.267162150070265 0.6565219362629725 0.248525659783372 -0.8583044263535348
Ni 3.4843104390467095 4.068681259460388 4.233748801665718 0.9943502363679197 -0.44433162057552505 1.0139590117377828
Ni 8.978921199339691 7.453290503729678 1.5619028165689917 -0.4077841604687945 2.1936621318853318 -0.43632597666222916
Ni 3.337415928191279 0.09925292297370168 11.11511657704867 1.58099833045789 0.8224635053955255 -0.3328742985337816
Ni 4.316062596089445 2.414623002764601 11.281479948261861 -1.854529254036348 0.033299385483078134 -0.5583441049389546
Ni 5.54913355142972 7.674043570946132 4.150580980135526 0.7177751266464992 0.2840958435784978 -0.6858255703230962
Ni 6.92847051282846 2.0152451751635723 8.3837077469066 1.195388906313922 -1.0947147909306114 -0.017483501496744082
Ni 5.021448318071748 5.98422523984654 8.148448234413133 1.3417795498977407 0.9503872005234084 0.6023379940214013
Ni 1.452067906212267 6.246108400393812 0.9315651887031445 1.2711485178437398 -0.17461312876462184 -0.200158581333894
Ni 0.8889858372522669 0.8045027770072494 3.7357557986055547 0.8730083082226127 -0.21076489609483057 0.06298791368644636
Ni 3.46187836342561 -0.3763107772806428 3.5624797988975065 -1.3151002408343417 1.638119243840598 -0.18170860215882254
Ni 1.9315338818383578 6.139641536331412 12.125023040150017 -0.2649593798593631 -0.41106514521291143 0.7635543897641431
Ni 3.044144498666154 7.17380920886738 8.284401216170805 -1.4421345913787356 1.0316975666681263 -0.9308774126252549
Ni 8.769231665093345 3.1156923756265695 4.020309496888067 0.7001561280131555 -0.3084984407925784 -0.061394343947081355
Ni 9.030495563561253 0.3747607735387152 9.509195317898104 0.509932032184154 1.9714869370710306 -1.554604928066026
Ni 5.851804824756517 1.8813644106923642 12.804003242213936 0.9634558607819084 -0.07908301947609606 0.17658722177185718
P 4.741994751362257 8.009563462631968 9.431817134674073 -0.35609264563177384 -1.4209702985962949 1.134011274537389
P 2.394233567733639 1.7846763418533371 13.06520891156095 2.44053637210821 1.9284021900664146 -1.6445608857008838
P 2.205672885926451 1.8138186304538009 5.311496811968906 1.1362293652346305 0.701482817244379 -0.7019502437991008
P 8.994227139689315 2.115759729090006 1.9619562868267584 -1.0877856679109459 0.5264539410985771 0.33792394514254703
P 5.204001233437356 5.536443300161583 3.70930868645796 -0.11882764636388567 -0.8301333632359574 -1.34742466399866
P 9.534325342787351 6.412828540506456 9.804016751165156 -0.351898147934452 -0.5061280850570316 -0.01336073757762215
P 7.87374172746425 1.1488050989589145 11.521825728251947 -0.1881939527728501 -0.06867005167288819 0.11816635863080294
P 6.808934446076225 2.4736007837857112 4.801815468228709 0.5916530035037294 1.501099757059034 -1.6696255419789954
Ni 6.469588069302982 7.714693042961622 6.390854903678438 -0.5198549477248209 -1.0145786475996528 0.06440947662432134
Ni 2.807068792163807 0.2395019198729846 7.098811025425976 1.0119291257919476 -1.7023310026318166 -1.8037628221167579
Ni 3.9512710177567114 1.455949847605288 9.18478794558567 0.5509771230509221 -0.5051826904246267 -0.9735253292027685
Ni 8.195619367968897 2.8746053296847682 13.407146946349913 0.09322331553222009 0.90252688650702 -0.019769469317443375
Ni 6.584123825832304 1.5390233934159347 1.4669117106817706 -0.9077418550490561 0.8707467658819456 1.369076437940481
Ni 4.509688287142765 6.067021504129115 5.661471389713182 -0.25897230903799273 0.15912480332103565 1.1131729976357991
Ni 1.1271863824868293 3.8817657813864326 5.95859241111972 1.9002264989631465 -2.15684779127046 0.3105177852154523
Ni 8.174425816506524 0.5253052335753456 0.16906039620957977 0.09860206334563018 -1.6261965242610832 -0.8251742194584691
Ni 5.937780583894327 7.014150505002992 11.203019442806589 -0.7122783651979863 -0.629452076629374 -0.5500435554930592
Ni 7.415302934383688 5.5522853181321485 4.807754838560031 0.13776459247770467 1.419695288538613 1.2125790449399632
Ni 7.750083408661329 6.929367056435896 8.435870872239438 -0.02463271094701564 0.1166360380292056 0.8950915132748972
Ni 6.5957511645761615 0.9330708274005804 6.112320063098627 0.23373358907586197 -0.9251759913651034 0.09536170203146158
Ni 2.5673866392975757 8.601134360057939 13.189676892425842 -0.9538918712425571 -0.8326530443340175 0.6682662212830943
Ni 6.552717071419244 7.211149787981199 1.9940839732128073 -0.0593505740441752 0.12599048266091203 1.7584368444864489
Ni 3.5051527672401908 4.341341428732093 7.045864117640452 -1.573851949221096 0.45076786311917205 0.39496592565820365
Ni 5.665000259293791 3.8643247732706465 6.005641540803133 0.18170037462870642 0.6964164584650652 -0.7960860438432612
Ni 9.041457426637736 3.2685854102059775 10.767279839885836 0.40162971083162446 -0.5742661754858497 0.27021625738292815
Ni 1.1062978407053359 3.8483348718184414 1.160559987205686 -0.33202506315960884 -0.7466033637321013 0.03558895284820322
Ni 5.248967054573182 4.467134815301175 11.85192753887924 -0.23166487947229134 0.8840738220081549 1.1985207670746842
Ni 7.916720364315551 4.319038751157428 8.66608386092198 -0.3294135936786907 0.3773127313528147 2.101249999400497
Ni 7.909631199914487 5.379132246568212 0.4174066725563303 -0.0009366528816564516 -0.3793739847572176 0.04560751342646984
Ni 9.552810777992212 1.577657952994095 6.223423074310405 -1.2673389142896625 -1.23337104198465 -0.6720889374632941
Ni 0.05245334666555426 7.63027006038102 12.702708602921858 -0.31476601896884504 -0.20930682349206534 0.44494328601759503
Ni 0.8981268849610708 1.0154141985206353 11.85660805107311 -1.7838437145953276 -1.1352577453499804 0.7699086141169451
P 0.32695374101190283 4.631100625568294 12.587141359108106 -0.07873103545331603 -0.3784982670204836 0.1878774499736958
P 2.0263456790040912 5.915182139356384 6.401284386221019 1.789084651279293 0.39741207320585104 1.5403275922114052
P 5.965453280396004 4.909722347693566 10.007242852992121 1.5779577438593533 1.1979417546427626 -0.4936371516788724
P 7.558500358198146 9.013710788395239 7.740778764850962 1.076275096168185 0.6178299190094134 0.3624422419988855
P 4.3980085303525955 8.793715624022184 5.586690410135437 0.15000047242226425 0.6124923088465838 1.3667549888961559
P 2.0734927814940907 9.127895321655668 8.99732252581437 -0.8577423832024776 -0.07506695633816748 1.2093862490342784
P 3.8616074142955314 6.950264840934992 12.32013311165029 0.09062650133932135 -1.1578999082295285 -0.24387581971618646
P 8.2598932261762 7.431754971716014 3.5614926766575667 -0.42403970309570843 -1.2650508895864343 1.3427997636321392
