# total energy = -340864.03615632706 ev
CRYSTAL
PRIMVEC
9.30354647753020 0.00000000000000 0.00000000000000

0.00000000000000 9.30354647753020 0.00000000000000

0.00000000000000 0.00000000000000 13.61668068675551

PRIMCOORD
 96 1
Ni 4.029859086873829 7.36662256491215 7.686970651967805 0.9710241600474695 1.3136357404736732 -0.968991702998473
Ni 5.031869654443452 3.6731518096534717 12.265143556693515 -0.7708912897451885 -0.5288604936575408 0.1399870540503202
Ni 3.9812294492005598 5.626077867290979 3.772501591903622 -0.8068916190991976 0.09047506336312161 0.4128080960459471
Ni 1.3031105472248137 3.4411027522885056 2.051162205368911 -0.7228455991908712 0.11451539214177697 0.8149551128336223
Ni 9.098412625255621 4.5651479395941665 7.336653980853774 0.7505122118682043 -1.8982495777424342 -3.299125676692015
Ni 0.7439394905811388 1.0434578673274988 13.54606421510744 0.389432140324168 0.2824955889709135 -0.35393754696198404
Ni 7.804624231646383 1.8701431006800273 7.78270879745791 -0.9347278967195967 -0.7057647324491846 0.3687177905949521
Ni 8.045167426986419 4.006786291497952 9.021731864462268 -1.5358291901204195 -0.08953609648861999 2.86697414312245
Ni 6.048803110635215 2.95169899101729 9.24454156977571 -1.4915172555769216 -0.12000572583238686 -0.9440741138211869
Ni 1.0592831999623238 3.1905024231576133 5.312956775174026 -1.0505830907187197 2.3146340782857298 -0.6774298900602332
Ni 1.8538153765329854 8.284370911627212 9.96471422041039 1.2806842252483168 -1.391088680545514 -0.2511702964950706
Ni 4.532576223218786 8.052405586180948 2.9700297687306323 -0.16549496851343753 -0.08932989401508487 0.8473787805799665
Ni 5.29432270184405 8.231108107785722 10.36902030234932 1.1872004569658585 0.1247391267523142 -0.5428118136313104
Ni -0.14846227398793915 8.959882817535135 7.374167741141923 0.6523307809997604 1.237983858166313 -1.4351645878188057
Ni 2.823719405053355 2.9167827809182314 8.233176286177681 2.1987752847421813 -1.4342009383539558 0.12954271878854465
Ni 1.4218517114918756 3.6004538971264153 13.15318288829818 0.044494997088581435 -1.3690296438629455 0.425204412827771
Ni 4.836281195900285 -0.041317980461211996 5.369492566682141 -0.45088202009953315 -0.35082008437892487 -0.6850917774808652
Ni 5.0778570849043225 5.410272802154353 6.038793424931624 0.21830928410099174 -0.3801003214002809 0.9596136042176828
Ni 2.7759084794740687 1.6498165119334502 1.6054339432477167 0.22965479102079803 0.08331094151451458 -0.023127844266715006
Ni 5.320121436351027 4.663839961105174 0.8470674430740893 1.6167137815816288 2.6201083875400037 -0.10437881792840734
Ni 8.601398562928976 4.628551609145215 11.535098912843775 1.009782254652274 -0.16265364240990052 -1.346073035066772
Ni 9.252786372703977 6.655031505589852 7.283262788070274 0.039060713446887566 2.2135028207603424 -0.07070482271472985
Ni 6.324495104737374 7.7432487352372465 6.73189647660435 -0.17086471746578316 -1.8481074096704042 0.41108777092073073
Ni 1.0863937345289787 5.831425746136281 13.063952573600584 -0.24782811949571515 3.0576895767655725 1.9218384208059676
P 3.7326665967581016 1.3309932761528387 12.804867410041144 -0.7873250098211796 0.09686759715302672 0.43555927369953373
P 2.025782130455447 8.20864004293381 6.837779209222622 -1.4748765616964472 -0.6294358786794578 -0.36689179312980685
P 6.962774217462129 9.071655625456822 8.232332454508088 0.7335717273591237 0.6061910492189043 1.3538346812900621
P 5.9435706959188686 6.945888280523736 0.552437149670667 -0.6580044343457699 -2.0125443692329728 -0.2508339962015744
P 5.669292840888136 1.9881864989578995 6.055664476195583 -0.38907809941885896 0.6706213517788321 -0.20020588963206165
P 0.9156224863346628 0.9355181205730951 9.922611020622677 -0.33127070149208754 1.388817368012834 -0.735009745357231
P 8.68996832582347 2.521549517548074 0.7835512006101185 3.4457729163713307 -0.5134475015365803 1.3823908956611999
P 4.394800002766626 6.492042674061633 9.565772563396353 -0.6598887958526763 -0.465837612968101 0.23169624693085902
Ni 7.08184100585748 1.0564084040868618 0.6193612812258409 0.289756641408701 -0.38894285939257534 0.8655094287424062
Ni 3.4309060652998116 0.26363831922756725 11.05614582538132 0.35668117114539216 -2.133886040267964 -0.34232258843087493
Ni 0.46133589176739226 8.308374061655341 11.926904749675034 -1.3295318428786393 0.017665535600563127 0.6583312215575695
Ni 3.508590678762945 3.735578606819654 10.302421794922434 -0.1841632343469022 0.029815283589219622 0.8974214469596545
Ni 0.9737463932341746 1.0923200936638309 5.43000562432864 -1.612408212227739 -3.3990801403004816 -0.2347383761912925
Ni 7.7039319476330315 1.0150541397942119 10.309392942331767 -1.8743267483782495 -0.3897938945389609 -0.932313116630517
Ni 4.970363908383001 2.299473862055261 0.5616113768965348 -1.188013182675141 -0.7259247523368272 -0.012846002724732715
Ni 7.59133112407084 3.122474890984867 5.768720772929075 1.0841041052943008 0.6953389091301702 0.11124083515556325
Ni 1.0327308781870206 4.210738638364875 9.334942270625836 1.1699912921764237 -0.2935513325644428 0.9578477705665117
Ni 3.225455847442762 3.9329812569347147 5.354378025001639 0.94244480574788 0.6501134616334675 -0.3027319706224464
Ni 3.483657174082562 5.327117703335971 12.337094394434812 -1.4991842852038761 -0.45817598265778514 0.26308710253731465
Ni 1.6722101484131824 8.176831217373277 1.430050927042182 -1.1302826607328922 0.03863365321179798 0.553524314952808
Ni 4.43576351810533 4.713790702384643 8.289807904214978 0.5098212176379026 0.82577585759821 -0.02798208703522278
Ni 5.895759770339582 5.33593746543933 10.687950528914943 0.02160832229839504 0.8852683565368882 -0.04898928541450918
Ni 4.665207582443987 7.28133695394011 12.526461571418364 -2.077546228025654 -2.8628117842146437 -0.688494375404511
Ni 0.4609330482029666 0.947063821807556 2.334525903933548 -0.32288761963471485 0.2578708484436978 0.12495689919007512
Ni 4.8046770483632475 0.7922630415738164 7.640469665738891 1.4913475627682766 -0.482721018987001 0.38510574503467226
Ni 2.4787997212770443 0.5675358753220825 8.024596355270452 -0.6946835349343584 -0.6023266811674917 1.1271214893960912
Ni 5.406914221859719 1.526125860916402 11.029906102769173 0.6931480721264385 -0.2547572425153806 1.4658059668537464
Ni 6.4714074078746595 1.6185752027107916 4.107172488830713 -0.32290304625368255 -0.9961492372498715 -0.784944682514461
Ni 2.0761980490610417 6.395109022843383 8.393907146964882 -0.13393056344359516 -0.6583111669529114 0.5236594090725756
Ni 3.8243251370980764 8.971986731560948 0.9226857388545683 0.18596532055264747 -0.00032344477768976555 -1.3783830600533875
Ni 6.524809764913987 2.6793097559306305 2.191822525243056 1.2053311051282982 1.7793622817852066 0.32702272484901096
Ni 0.059359417877703935 6.398616459882377 9.850552261741718 1.1186468762661765 -1.2409599100755015 0.5147183978292038
P 6.7779778728850975 3.3675582170278986 11.234197098729515 1.884523486405593 -1.0122312304133987 -0.771996092773593
P 5.320642434956289 0.7456922787459835 2.122214320516132 0.2721219590460733 0.40096868020885784 1.11589451033202
P 1.5251396849850136 4.96580517058696 11.326886472024187 0.7446326131589757 -2.240464694061167 -3.3150780862562135
P 3.3572405839344124 4.029942818792532 0.7690469715814929 -2.123782633285374 0.11268039581556721 -0.3156985580854434
P 7.591805604943488 0.18923971839619214 12.42776768919805 1.9591541265372905 -0.8120795910580402 -1.869625486247838
P 5.069567624952748 7.154055133965365 4.972499072309922 0.5390425763968651 0.9533321420843454 -1.0701697546013955
P 4.016685264997925 1.5753788362066807 9.447443546240239 -0.0028120155274983833 0.8786616498536479 0.18073775360512098
P 2.4686402484744407 7.508231846531594 12.02795428987485 0.47843447579650505 0.1226256799537372 0.3605771637656887
Ni 3.17824965238744 6.426796902299124 1.0080764799023136 1.0055381346639392 -0.881756743839204 0.27640824512625295
Ni 5.554589415811852 9.087229762335538 12.791400526449781 0.9744712380558057 3.47824337819521 0.5338492051213838
Ni 8.296484129199547 5.68059664991301 5.158597913400108 -0.7022158387556615 -0.7170888992127521 -0.05968070369008431
Ni 6.059511492682649 4.107394843592601 4.3184625428399555 0.04948396566274058 -0.48943031268637643 -0.30322562242941326
Ni 7.2411921506953885 0.39297715333844413 5.863138745167632 1.7307681749265869 0.34681379143300917 0.8931027649796425
Ni 1.2422281387813714 5.54370426638049 4.23036260904485 -0.7710386139563301 -0.7509986645863196 -1.465252665453438
Ni 2.49190841832729 6.357550605531927 5.884189879884163 1.0944111436472634 -0.3006758594243661 0.6713985962644888
Ni 8.629113828019594 8.486881208783142 0.7971520552714064 0.9965225614288902 0.32619457252076084 -1.9849456336790976
Ni 6.651672925295218 8.323017843881805 1.8217209320942105 -0.20606389107473544 0.20334597792294012 1.8976548815812284
Ni 7.082603896672326 3.2912598319966233 13.513561344976326 -0.8994793579299475 0.5327289754740115 -2.2705905669122703
Ni 4.349519641841468 3.5606068073704153 2.690697296874208 -1.3130790966392547 -0.7339748763348133 0.9886009925889683
Ni 7.255659165537925 6.600987203840469 8.819632784062636 -0.5918535495503098 0.47498739778816906 0.04537997079669604
Ni 7.277057322539745 7.749835646175199 4.515740525431615 -1.8420858860666727 0.08332842501601134 0.23401075399664859
Ni 3.1607961991111724 1.6626274954949756 6.006807831987164 0.6509686105449112 -0.011063714013329333 -0.46103659203503183
Ni 6.120086884090847 5.986534473759916 3.0139843742763297 1.2822466846394305 0.8284492906653151 -1.2240502788043564
Ni 8.964739268819896 8.597807393971278 9.558365079655111 -2.0869585224784895 -0.4918849448744561 0.018793478557419245
Ni 1.9457623268151585 1.9346538922672565 11.509649061331393 0.9002067230142754 0.6210623099037821 0.4550654620532615
Ni 2.6201671106869013 0.10010523022778027 3.853139151033006 -0.3576337648666486 -0.3250720288805434 -0.3334527967450709
Ni 8.168104490735143 4.536279034734754 1.6168307877378172 0.5450237336809646 0.4835602270588447 1.315861030259766
Ni 0.43120914741813265 7.696805430996772 5.0150097674353225 1.1630541987369585 0.9766191376367439 1.3925716928489436
Ni 7.39940826285755 5.558915564944828 13.103154927582572 -1.3305764820930697 1.89473925059633 1.929795470869515
Ni 8.766313228587357 7.456243628563691 2.913179517350055 0.877935827431217 -0.8052394282077552 -0.6606984362381654
Ni 9.019109194697567 2.375725729353924 11.38088983816887 0.22684663214804157 0.4074902833774595 0.9924460773666713
Ni 0.7764386392936437 2.251262883975506 7.737951295847318 -1.423158307386549 -0.5646934441957501 -0.09811586773783101
P 6.634554399693761 4.902085180454146 7.504207132305947 0.24405271161368292 -0.3929437530218523 0.12340883797666488
P 7.744895462971734 6.677006482476069 11.285614078940934 -0.042662314755216854 0.7907839149040574 -0.8360206752546698
P 8.621559348243299 0.14497158333268556 3.9900827040714004 -0.012271361168185318 0.3791945217565599 0.6682996456241911
P 2.5018353024668305 7.0639781965342205 3.1965162356297774 -0.9112200434056436 0.9212123787316651 -0.5151991941203643
P 8.763624503642346 3.998720116662918 3.781992139711256 -0.00680802406076892 0.3588588955230013 0.5493447296538218
P 1.9842510987788688 4.421910537333281 7.239349118129275 -0.601331407133758 2.060763866360993 -1.8457736193309051
P 2.7636929228899856 2.3133361463738322 3.802743700229761 -0.6677589426293725 0.3176076021826982 0.26731785278921055
P -0.019473253226309436 6.44056615115247 1.1241698548290633 -0.5441549579227661 0.05664243108439277 0.021917626008697736
