# total energy = -381167.63907076354 ev
CRYSTAL
PRIMVEC
9.29232561950919 0.00000000000000 0.00000000000000
0.00000000000000 9.29232561950919 0.00000000000000
0.00000000000000 0.00000000000000 13.60025782681774
PRIMCOORD
 96 1
Ni 2.5017169919053113 0.06220282569092708 4.975300539672311 0.6809867541735563 -0.2136851550654191 0.4280989607667466
Ni 7.4698494318259065 5.158838832459422 4.514034156958721 0.6173365243127625 0.11042965210817755 0.1334713644189895
Ni 7.203856619545838 3.7775346736670237 10.725584727948386 -0.9064393341875486 -0.6862796271413792 0.25745381551093727
Ni 6.531696267536096 4.634287068155144 6.975218025818943 0.8395698260585089 0.2954002128477235 0.3498975725646555
Ni 3.0416568469392233 4.066349436932591 8.95801347333126 -0.8871270070121818 -1.2652972012692856 1.0766571620979521
Ni 5.944105368262107 5.157937476903398 12.180947790307279 1.5276271139256015 1.3587822551033244 1.9719479358678493
Ni 2.8101664385716743 7.005976551860105 4.478006882461217 -0.889634603925384 -1.2552357032682253 -1.5870972442667763
Ni 1.0620756147550345 0.7834313015520191 11.84691192587277 0.316087565993746 -0.17826795190838976 0.22438814330522
Ni 1.4754168296316132 5.860650994564733 8.515692283479735 0.6113327413208439 -0.7532082706431286 0.49645970872933204
Ni 0.5265979343397036 1.2234368439338437 1.6578846465418793 -0.26070317568617035 -1.5337969901817392 0.11418603382681623
Ni 1.240627645775525 4.066591037390906 3.7570980625911266 -3.0203715570414045 1.7154264023631942 0.9182126726733928
Ni 8.414813870575152 5.485696375584363 2.104558361573212 0.3610523036298943 1.551841763498592 0.8202850096869678
Ni 8.288531169478693 2.1786971791374583 7.984098795048092 1.1372323525778478 1.2492164936573389 -1.0629837783759175
Ni 2.0382622665789007 0.12762637133770646 7.216378027914305 -0.4198490620531285 0.15753431890546418 0.1765813082345862
Ni 1.5309105964416247 3.1457215981959745 6.306534861943881 -0.7324715523164095 -0.05685711819836015 1.6400347156957562
Ni 6.077821929614428 7.107365113424746 8.362906941338595 -0.8283886126307088 -0.6357589926840083 -1.937207189952554
Ni 8.855809045603538 2.121660886324355 13.198560557639471 -0.7533316835948703 0.024371229755512865 -0.42906235312128044
Ni 4.839331518662464 3.6541233010943914 2.1332958068573116 -1.2489678679816425 -0.0379548819772185 -0.19139729020149618
Ni 0.7742969457626284 5.095437296802237 0.2877433581561907 0.04242757303659145 0.08678758720920537 -1.1886459311631337
Ni 2.7429085879067605 5.109543046637735 6.02011287244817 -0.7982485987122189 1.375526821551515 -0.7302897141737422
Ni 7.5334089370135295 6.802037888065845 10.09789186952415 -0.8120543942470596 1.3622499019369505 3.4311507955827816
Ni 9.216388437314135 3.36555013828714 1.7623210908114235 0.3904826930758694 0.2607178309741897 -0.016679260427893854
Ni 0.06342662493554839 0.819268083380467 5.846342672037263 -0.8475232765776306 0.09027503153717356 1.8997374751418699
Ni 8.867889068519315 8.176781665182444 1.5014409159223228 0.2890570442385151 -0.5014214236099815 -0.6623580833287754
P 8.681912469568282 9.048466826459528 13.012236425721476 -0.3027769649277689 0.3151709677167475 0.07945094433847608
Ni 6.819433121064563 1.3311348943906474 6.094397579519937 1.7474150394546486 0.11417137853879691 -1.573254424846413
P 8.804682671693845 4.051202946661271 12.108581019181525 0.9511824427311941 0.6102927300921037 0.22375590903785983
Ni 4.235618434958573 8.947821650920472 8.244638870830487 -0.00886413525884925 -0.15638400735110486 -0.0373874395095227
P 5.800576111372047 7.523800672632827 11.675236215588953 1.2427645673844079 1.1833944529562073 0.3101449752570659
P 3.6837658188646416 1.3582777766498644 3.3959025897118256 1.1500004508767936 -0.929435795082722 0.673632370691014
P 8.606514541923199 0.7475703596777399 9.455647229649061 0.630169928632005 -0.6461683609427904 2.171928853973298
Ni 7.80044248972942 6.948856628119123 6.207021491628781 -1.0537843712648367 0.9405216205832382 0.9696388496641689
Ni 3.1118882417064815 1.590251385934045 10.607384491415113 0.32664708667714715 0.1358563197113983 -1.1844468054801214
Ni 1.3706551539758751 1.95091440857252 4.424680085915789 2.5752575497739003 -0.43879397858674757 -0.8309928830227753
Ni 6.948475642781011 3.612047652046211 2.663569785093539 1.4366535136595064 0.3879691826253963 1.003500278298304
Ni 0.6599539534696158 5.9086551471669635 11.256606738372861 -1.5558786525721269 0.004509457834579331 -0.702204525901752
Ni 5.527084392558876 6.57572330490144 5.90506830959351 -0.32292155819644386 -0.26936187980243287 -0.5073532157133843
Ni 3.181738651135627 8.450366307248814 11.590533882601125 0.3911766338191005 0.3407215624923422 0.14058252154247403
Ni 0.06082477384599662 6.8996165962493565 3.840209549484198 -0.6678476456884369 -0.7363796291215641 1.6649731308086486
Ni 3.5259449656326867 3.274559688755386 4.447094103819746 -0.3864558313046635 -1.043029446741178 0.8720721695615884
Ni 8.027156642882577 6.245715663493076 12.993087730934906 0.5431216315622454 1.2338338405536815 -0.7036286599427882
Ni 5.723719288651751 2.9988471041907765 13.305471548141684 -1.8125711644370073 -0.13841611001877452 -1.1638041895291054
Ni 5.097147084661086 8.93346500830134 2.090958114235112 0.7406695147461696 -0.7108640013489628 0.37562428790679825
Ni 8.967809442683423 8.304188737642603 10.750174079209716 0.9208904766158721 0.9035897805538955 1.3571002394152112
Ni 3.9718464884299425 6.45650277104805 1.9848899376394062 0.08563778987547832 -0.4199825023071993 3.032800526833377
Ni 7.500346843525581 0.1834323602784641 2.6938711287289654 -0.4231259330321874 -0.2521820255890367 -0.7778998598525377
Ni 0.49709201375165446 7.754436187070953 7.890923719833647 -1.7348814257640122 0.7773671272775193 1.0208608810639386
Ni 9.071409577674183 4.075121392034508 9.40997730916717 1.24539969101441 0.9252747217264967 0.10678151383262899
Ni 7.082089988554815 1.8559933054304794 1.015760806895949 0.060329135907360616 -1.0678182236500835 1.382675002560522
Ni 1.6919837635355193 2.904669387074322 13.446438910941067 1.1910293437936454 -0.7604089021566258 -0.06989878187366672
Ni 0.08385487291865776 5.506994385217409 6.366103313406637 1.5246006683944517 -1.7365323311038738 -0.04715171798513815
Ni 2.3911290282740407 0.40798976472489 0.35597876144475 0.47646243967179874 0.5712212180119388 -0.9670908864313343
Ni 6.141623035260366 9.072134379049128 9.52226112216931 0.3824924757815413 -0.06607066637682815 2.8603278414505255
Ni 4.688433447793781 8.48998878241256 4.500052924282508 -0.03374855720535478 1.3686018122969075 0.671280839739702
Ni 5.445358391370991 4.011013639653016 9.058138278652406 0.1037725518029761 1.5423132551828664 -0.03970683167131872
Ni 2.4491410152457256 2.6482290852230355 2.2315575009518303 -0.3085598901581331 0.441044208073505 -1.1243529255120184
P 2.364385716003576 7.003987994241663 10.206204142684593 -0.2786268500441266 -0.034948233940410786 -0.5447931057273973
Ni 5.939245482119836 3.432863742903972 5.0971312877080415 0.9059369406298332 -1.6284408402105697 0.6227566668870694
P 3.801908442980932 1.8457996245546284 12.552887978953898 -0.3645860278147657 0.2939326271632615 1.6077905109500694
Ni 2.7597462813862883 8.8524638084884 2.6266718197135672 -0.7270665792507544 -0.25883295524665095 0.09711982237314887
P 1.2770721456798897 2.6443356009140273 8.810341697813621 1.3728122508338294 -0.5036945359148745 -0.2541779729731429
P 7.442251225626019 5.3783049718631135 8.81133504739031 -0.6021310202169179 -3.215072714805153 -2.4052767775749673
P 5.333525256146864 1.648514265689365 10.047176216393591 -0.16994811918878475 1.578418999766488 -0.05791744114207444
Ni 1.5776509928003584 9.23770503159782 9.591772361724281 0.46016087429829783 0.021972647616349254 -0.21175734191508694
Ni 1.152638617322076 7.650984729285311 13.107737369963473 -0.6095530237126019 -0.37948582774473355 -0.6855610038077999
Ni 4.94097097301074 5.018589766407261 4.046633910301512 -0.4109612726451955 2.990856578301423 -0.5566145238423575
Ni 7.765363961647069 8.650606625565782 4.770249584537268 -1.0903488006524318 0.3280496234516286 0.4751699461126204
Ni 1.355016170462605 6.702823730626044 1.9773278432941304 0.571573459145035 -0.8852639856615142 0.30716352403123875
Ni 3.5349956904941995 7.566563953754675 6.564408969592018 -0.8609218093717237 0.8943240389812535 -0.13608951876812692
Ni 5.977158169424734 5.661925325274897 1.6503643676605426 1.4104400884889323 0.03758875688705139 -0.5325001472926572
Ni 4.451655706319249 1.623861726615862 1.1732778010899454 -0.6025336549719752 0.041834162426966665 -0.25247873089384903
Ni 3.443066716105143 1.8471934733526023 7.960679347544529 -0.9927034447931162 0.2820770133762561 1.0022751476419514
Ni 5.956417699310879 1.6572397591646832 3.606394201321628 -1.1120386269210396 -0.7509881230633582 -0.22541992700384403
Ni 4.198978796222493 3.6663891705165637 6.816829411509946 1.1223366664129382 -0.020554941333216212 -0.031711215060351836
Ni 5.892588716688982 2.1797657965492383 7.961128166857477 -0.678217161848219 -1.272746458458479 0.10000922810580196
Ni 3.881404286092059 5.827542439450187 7.927045776049413 1.3695099259334738 0.6096288712558597 0.7755544995488127
Ni 0.4963309723079606 9.128706055596242 3.8304721217815505 0.1946134831459487 -0.16800925029485902 -1.8623235532697864
Ni 6.57789770902628 7.7846919983123115 0.6532597623092119 0.9742755771052318 0.44700479653231406 0.10360003078085384
Ni 8.68315764116114 2.053464510802139 3.7059614671235823 -2.809859914607961 0.5348413938313241 0.2467883653772911
Ni 4.5034975892785685 1.392018209886159 5.794974697669255 -0.5245842348796901 -0.3635038504941804 -0.07463578233801985
Ni 2.7380208247885314 5.9036744607955365 12.121107073712652 0.9901544531190172 -0.09407949288492831 0.0980050531915796
Ni 4.673956004945488 3.7244197421388883 11.2126373134245 -2.1518639649026228 -2.0266255299163873 -0.33793474377582444
Ni 7.423118327792493 4.304483857903817 0.4184612861278038 0.6878852810656024 -1.256156672420598 -1.0706027283737563
Ni 5.355668867384013 0.2579512339482909 13.019240980547563 -0.0230216577061539 -0.46387663258698825 -0.5855623172249593
Ni 4.6315086628845155 6.821858417973037 13.312244724067307 -0.4805633492140498 0.018796820991528917 0.18417351875954732
Ni 7.655677353571823 9.074987122922316 7.880070283860087 0.8932752860017646 -0.8063956532993853 -1.9944900828344234
Ni 4.8926601736729545 6.115344339255893 10.413907127465915 -1.7961371872507002 0.2772094008713097 -1.5516805553303792
Ni 1.8880425354585653 3.7482080949576475 11.14141256908055 -0.4980319383124584 -0.297870528765087 -0.007654945442096494
P 2.879013276866278 7.592731141855309 0.7806491793512628 -0.7261859764180139 1.7435146759589781 -2.1255291836628363
Ni 3.354473686505905 4.578904809248971 0.4615572324961011 0.08955460843138126 -0.16469612676122602 0.31529463777880534
P 5.9001991311259205 8.741680706025413 6.573208801669894 -1.2813786802121803 -0.8651620727053163 -0.2898389167098621
Ni 6.153331365163348 7.139209912295795 3.631785480258057 1.5910989092270016 -0.6651335891913835 -1.4057002598111015
P 8.464732242193268 3.300029952457034 5.662004310040116 0.04246254003958493 0.15723709938001953 -0.14555323528418804
P 1.2205748077353367 7.533195213531173 6.011789736659201 0.6735372398740465 -0.5260695611759649 -1.9446713595400829
P 2.916888794869896 4.790983550023399 2.9966671246707453 1.875571676528944 1.5134150840912775 -1.4639239193396854
Ni 7.298238767819329 1.1100054287547063 11.495590477878318 0.04372469458146018 -0.06791697555694755 -0.5021014803961418
