# total energy = -340887.274933255 ev
CRYSTAL
PRIMVEC
9.10151978333377 0.00000000000000 0.00000000000000
0.00000000000000 9.10151978333377 0.00000000000000
0.00000000000000 0.00000000000000 13.32099419863090
PRIMCOORD
 96 1
Ni 6.96936143740782 2.237108082299455 11.389876814329261 -0.18363307287504504 -0.4098904081785199 1.2076129591839395
Ni 4.967090771408496 0.5177954784308326 6.002826442436473 0.924253479550834 -0.4492200590160779 -0.415093292535698
Ni 3.180944796807625 1.6436343761035668 4.711328960872493 -1.178447393363577 -0.6916228937311637 -0.6541824894965186
Ni 3.4008375174421164 4.021351839242518 4.338660857756445 -0.5563813247856289 1.430454841047962 0.21323264090903274
Ni 4.076179395082841 2.8368163296226037 2.3469197401222717 -0.8901750498098863 -0.41509689208012385 -0.7823442687771365
Ni 5.1753335465789085 4.91371035723129 2.6560064455641292 -0.035852233811918904 0.18974484219973775 -0.17758866645317803
Ni 5.6355883060890735 3.2083767777675734 0.17651760727655286 -0.47252556651123784 -0.013137822933538662 -0.49983865250389403
Ni 5.706270709584416 7.8889517029188765 12.045216281699355 1.0156564540448638 -0.16069960400732325 -0.17668132414756024
Ni 1.9752300503948097 6.862136431538825 0.2856166160916847 1.7607958316369288 -0.8752145718453122 0.22064847375712968
Ni 0.8822321669549164 -0.02475067319923162 -0.07952361992019062 0.056193002251799996 0.5840844471278521 0.39689656702201326
Ni 8.096866823373112 9.283368261290091 6.643752742902726 0.29112909627619543 -0.8704444041501783 0.7439163038182414
Ni 8.133737080462943 2.510135476074019 0.6338407672289216 0.582536643024758 -1.3422400344739271 1.067467268068568
Ni 7.123113412973982 0.7352699252295383 4.53681095751661 -0.49305016882715086 0.8763209175356135 -1.0639785381890192
Ni 0.928819206683381 7.709697268610254 2.4793969129366484 -0.08004075540367507 -0.057874760829597104 0.4496046960490063
Ni 7.576896991839647 4.293359862788976 3.5975878034426128 0.2408231489327917 -0.5833169728342082 1.380466167834661
Ni 8.01837531580888 4.367691975761737 12.564468003313198 -0.12216802359102832 1.580851777577697 -0.5354970251374519
Ni 8.47610895430846 7.485071757630981 8.881799191903234 0.3373827279270964 0.16672395582453223 0.3871821679477267
Ni 7.232368057779298 0.34199962168185905 13.031769159525153 0.5132317859813483 0.5151158903779387 0.7525937769875812
Ni 2.228989526554175 6.98464288930953 8.811331584277386 0.8198934306755041 -0.010244560546143647 -0.24840507504510767
Ni -0.03910285991978334 4.456632028164065 1.8173696487485815 2.0530847525491804 0.6881922707830599 -0.6236046167096615
Ni 6.633660977644469 2.2235650206974626 6.917938760159774 -0.34012506655892394 0.6778746909071357 -0.7656369833247846
Ni 3.7084597883330592 4.662981687196564 0.31278647327869147 -0.8119489790174469 0.3531574742628499 0.6593218676056128
Ni 6.093513076506424 5.96692913782329 4.752650771342387 0.36092169158930104 0.3495934110606753 0.19649835887348738
Ni 5.244741737289117 3.490250848878923 9.624085478818913 0.8105191885494557 -1.067268778904517 -0.19725966251954416
P 0.5356535706144806 6.282715472058983 12.293878906718186 -1.3904330492393862 -2.011203281824046 -1.0651229362061077
P 4.06760576334287 6.7040976401026775 12.76156596737364 -0.8161504186933041 -1.595180535495543 -0.5137192671407282
P 2.5951072658026453 8.541385054986876 1.4323134669050674 -0.35245504887918655 2.900695960854927 0.08039736741214541
P 6.7027415136385 7.956275645573402 5.637045459424073 -1.4753473306852787 -0.6656398394038406 0.4121928310594514
P 5.2581755806523836 1.253643350173628 12.735403648438876 -0.8641323458892214 -0.09428595246877956 -0.7733415510578939
P 4.451325842065972 6.244789438661469 7.887986941810132 -0.04720493982057677 1.2112158460438496 0.6649063036719258
P 4.899348158838856 1.1266043354958037 3.549591848434586 0.801536268324555 -0.946423073669338 -0.023799159302126754
P 0.3151637902749551 5.874148244025773 3.6754758802378853 -1.2138093178026386 -1.2258942739916305 -0.9807892098540334
Ni 0.9233218886675187 0.5226274753424572 4.595929879986864 -0.19104530617871612 -0.6087207576192936 0.7437610091872997
Ni 1.7334026668162321 6.806771886024768 4.953611420445761 1.5108992596479591 -0.10600015558191421 -0.754964591212603
Ni 6.598638329093081 6.073189382583542 9.287437550834614 -1.0958648453746545 -2.828542835729445 0.06344839826263265
Ni 0.02911667229229311 2.263730027988854 9.93744807830688 0.7228350576679099 0.7765112070351271 0.974809852342147
Ni 2.7269336799446147 5.156948476393408 6.7873264887716385 -0.07060377836049131 0.877603898013095 0.6106051191262001
Ni 0.9086384066228322 0.07809559144885156 8.79107069084177 0.47707333378292033 0.5978809866913123 1.4677476639611495
Ni 1.8584120425577362 1.1217714284321898 11.352244760024318 0.1907293176001941 1.5389286549813497 -0.7556428482265501
Ni 4.226718534126487 7.199984849997116 1.6895815789834967 -0.5984389160773113 -2.6377872928770056 -0.18721873334377434
Ni 6.203177289706961 7.888860687719938 7.942429503358946 -0.8650330033266199 1.0548945736098803 -2.101443346358226
Ni 5.539885824405644 2.9934807915547847 4.478171685144759 0.8485293492446419 0.25919548079239235 0.7615371022237981
Ni 0.8561162657716129 7.826087505012318 6.771114861536781 0.0922529811991508 0.03620370361406668 0.5465874786236586
Ni 5.464588950324139 4.665375386928637 6.919817313865856 -0.5670074370409074 -0.25150016903066363 0.8898415777298675
Ni 1.2923794188416908 7.8224377955349 11.000423688225046 -0.9932377200300314 -0.4058938854246171 0.2896085458666109
Ni 4.858746278592561 1.037928227170396 10.480199014134556 -0.38057597548511873 -1.3303196288872574 0.5742139820916756
Ni 8.453509880412124 7.685914997127725 4.438248778282544 0.20615387968538046 -0.07888761563583832 0.17717189063073358
Ni 7.694506831907482 6.021620170865205 7.096200218647981 -0.42754437381485727 0.40242752414257144 -0.9674809227809016
Ni 2.229999795262388 5.631647347975053 2.643764901306952 0.6743077994914839 -1.1091327661281543 -0.47560626231909053
Ni 2.65879970201954 5.492503311838459 11.293818463217983 -1.449969256931806 0.9802312804680344 3.095527730659269
Ni 0.9409242281421507 3.207903498733095 4.054431313296578 0.5207458349702063 0.5637693897195839 -1.4228988830775753
Ni 1.6263778943848997 1.386625657342111 2.4248342113252366 0.9627053557691292 -0.3573244611563459 -0.28643169080052605
Ni 1.5293374892770792 3.388295623028444 8.269126739643339 -1.3220306494055878 1.8833562055703692 -0.4276981257839021
Ni 4.068288377334906 2.8341495842937166 6.475801486150229 -0.16874921378467714 0.3608335027508689 1.1121581832180394
Ni 4.17732458566277 7.091795083019376 5.836872969300668 0.21998795735499532 1.5098019128187223 1.6216808957789166
Ni 8.510822151183456 7.41866706848573 0.4797611369465828 -0.3225022112708381 -2.090596376341393 -0.8098059645325151
P 0.6529039006465103 5.873693168031082 7.953632564196239 -0.7277142401370822 -0.7833305439498058 -1.7365721832028738
P 8.709835985181543 1.809354850330091 7.883071210915485 -0.10382937318284054 0.3044759498967466 0.7575536920960179
P 2.028401129614458 3.458495645969414 10.571301587663655 0.6631646383904708 -0.4720835938778128 -0.24764094318557353
P 3.9304731631028087 6.193784521176547 4.008846350908422 -0.23304170521515993 -0.5349347248760786 -1.6562236667507926
P 7.024343719086337 4.16025013434198 10.590377463209094 1.251843646867541 1.8390830946846066 -0.7129285971874755
P 6.529211935343085 8.135848633078307 10.036303326481526 0.8243406678135803 1.2880216394499948 0.4155758885990714
P 2.8054524920685284 8.903443516362707 6.047171777815092 -0.6413418860884245 -0.5533373957529826 -0.5584394928662383
P 6.9608970239065755 4.178880945564613 1.437161846552501 0.2765332007398915 1.6412552183664184 0.7619302238971588
Ni 2.8677159896620945 1.6332677449445152 0.3489950498722427 0.5052222854133106 0.143123799907089 -0.07324250153491903
Ni 1.6862021846469242 1.3888828342757766 7.093629039277978 0.6121925182179779 0.025448521980091652 -1.7886233953721582
Ni 6.875042386748249 1.3630800253768203 9.22353668981215 0.1425640707488771 -0.6341003740346627 -1.2189679791854426
Ni 3.008279862902123 1.9686860575911589 9.212626697915438 0.2411540499096492 -0.6471497510194532 0.7718713942702706
Ni 6.459430582317231 2.1436627775496895 2.292436221733936 0.6904844092513464 -0.6482321854503547 0.6632181173362256
Ni 4.465979289095009 7.249569930378602 9.946493168777351 0.7257853985454855 0.2133005180324907 0.28048498629878793
Ni 7.784302427179829 6.635781631779726 11.253016349534025 0.33515332437594536 -0.07713720860363489 0.8878888248788709
Ni 7.803797882792374 3.897826011243706 8.5065071206018 0.08759748470501043 0.1586964575343654 -0.02934682859323333
Ni 3.582203504366103 8.83807640048535 12.320894038066998 -0.9285315381008976 -0.1663172073044168 0.20148655611669813
Ni 0.6261254088149373 5.033249719516613 9.882246449998924 -0.7432946110738425 0.46933765570155944 1.4783519218395573
Ni 8.704993976598036 2.3425582917891576 5.755481717498267 0.1357269932223856 0.9368778531830639 -0.17131466051900818
Ni 3.9830253389696777 3.046515347976026 11.799376948151586 -0.7784490474877884 -0.16740709793448585 -1.0524556251510842
Ni 1.2466624844150744 3.485427043335203 12.772222937017304 0.09914585166424215 0.4577671772551407 -1.0096899520487836
Ni 3.911569306283362 9.00507108749701 8.105785402717057 -0.5661312050835411 -0.4185136310711567 -0.3383031828588367
Ni 5.822060245673489 8.010020120546361 3.2102398588898367 -0.45105145579786193 1.465123338964425 1.5791221964810997
Ni 3.097192610744769 8.423065296367323 3.7172900829340354 0.8663650918744822 0.03602604038562183 -0.156338241714834
Ni 3.7357006373752375 5.0523902158533 9.526828457537619 -0.5048250499748919 -0.9460176107008028 -2.4469471607305597
Ni 5.3552523918397785 5.288165088702493 11.43379619857685 -0.32578062491179377 -0.13965383908061757 -0.37738189402785327
Ni 8.1649825982584 8.976938289505236 2.1212220700995075 -1.1755618442856657 0.9751587510411334 0.40516652034028927
Ni 4.7317618730341 0.29706541796611047 1.4237480265330011 0.33503299674799714 1.5475583056318896 -0.4123185580040383
Ni 5.972872430313949 5.898731449258959 0.281214210919048 0.8389352777983036 -0.3427763881388419 1.025895872384685
Ni 8.306192679410888 0.08970822068136595 10.78614205460509 0.5373057962114165 -0.3809616409593117 0.3348753881242103
Ni 0.2894601879428414 4.999747024787492 5.748688343049525 0.054563694178493126 -0.9703888404563158 0.16675558039341604
Ni 7.280287560020216 6.41205717126994 2.492504921887716 1.2810794038042066 -0.9263365873321079 -0.4994208482401851
P 8.755489208968903 1.632211968636833 3.100528317785851 -1.4946902539882645 1.0144156396592272 0.9039458783417335
P 2.0631689356088185 3.4319465124391653 1.4140367048063038 0.34378246080585306 0.3785692294677351 1.3277989193479325
P 4.939886328445892 1.9014531301355717 8.20769057020812 0.2848206375596643 -1.1207143003181668 -0.0944240207085406
P -0.06908417660198857 1.761153200972464 12.219828030710145 -0.10888930420425118 -1.0960309386388736 -0.6099911396912849
P 6.435857645792258 7.883827547218661 1.0378572353152244 0.07399274943738225 0.10076076155984581 0.5252730334165986
P 1.988272528402642 3.318486965442908 6.003452627005167 -0.6433889984254404 -0.47411347982364804 -0.7633096207431885
P 7.140187864294773 4.184023304304616 5.800866446448759 1.457317212656445 -0.5951597311054072 -0.5124188031617498
P 2.9539983982554294 8.713185344502467 10.064157617964549 -0.45527783517438364 2.0236381651532893 -0.09645853464006614
