# total energy = -381163.1040899651 ev
CRYSTAL
PRIMVEC
9.31010357305945 0.00000000000000 0.00000000000000
0.00000000000000 9.31010357305945 0.00000000000000
0.00000000000000 0.00000000000000 13.62627765886171
PRIMCOORD
 96 1
Ni 5.99810869763162 8.179130797383543 4.214184858847917 1.3705908177024781 0.2282229436702779 -2.8107909110626625
Ni 6.690901433642444 5.943570110992842 7.970200901433021 0.6110252373827542 2.608221406294431 0.20879388841138877
Ni 5.8204439914472905 0.6902818010814153 2.082258659195164 2.2166652776487243 -1.7654819242586886 1.9776496142383166
Ni 6.665745533830567 3.777825891178481 4.13617457013078 -1.6266194707311146 -0.6537456590694161 -0.2945185815737186
Ni 5.375374490889626 5.773437278586383 3.203278918428462 -0.07261746635641042 0.2637270501141587 0.659268131549542
Ni 4.9589335587707195 1.5531580259498448 12.436335782749122 0.7048663890046312 -0.4463782186919087 -0.12762776115401891
Ni 8.23311077780888 4.2637946766634505 12.570118246826382 0.4515587344515836 -0.7202004482585402 -1.134123374635221
Ni 5.1404712680348945 2.564886979523767 5.565844313506694 -0.2478011229125216 0.17008027389127484 0.5527259874212287
Ni 6.664442119332542 1.1371360484910176 4.326861318160733 0.39357958683363825 0.3380599564997791 0.007526133173716071
Ni 2.6418070551143416 2.422358604164761 8.540882319186041 -0.22534202257805708 -0.9696722740052653 0.3417862563114307
Ni 7.916734838724047 4.699730965631384 1.6075597540663302 -0.45085656617823644 1.7454322046966648 -0.0583262465447189
Ni 6.526149841092117 3.2653046903480365 0.32324493348942557 -1.0044914385669796 0.20588365674312928 -0.6823412113189216
Ni 2.826733642073381 6.76632258256029 3.5795551327907353 1.8678570814935058 0.6707455360615223 -0.5791463863962865
Ni 6.385837270379752 4.244876546234977 6.69869212829921 -0.3161988947606296 -0.6990505536538025 -0.6730322752131699
Ni 4.161355607222262 4.399163582386878 7.913760260637483 1.3556722487194328 0.08041793623743569 -0.054392972928583735
Ni 4.436245724855682 1.9867388587177763 1.2098637844497313 -0.8731690021701929 1.095211528061372 -0.8723848157060009
Ni 3.2629026836302475 7.627926116272434 11.21337733764602 1.2314077476106922 0.9672148136037084 -0.9783443478579668
Ni 4.163236248140842 0.6533169659174335 9.686362082485129 -1.9113488341285534 -0.4275927105542894 1.6684245796923587
Ni 4.060452704868033 7.126660830642789 7.086223326851927 -0.5601755017207385 -0.839210128726245 -0.3848851443834339
Ni 4.6538973258187 6.531810384054967 13.559727325358468 -2.274300925884322 -0.5260793313679779 -0.5388482009978719
Ni 8.88740623561019 3.7437229818480198 3.596152254402369 2.0616948628156946 1.5169680915498582 0.8285696182932635
Ni 8.095926401891777 7.848975905033874 2.6250069732451586 0.5451242638145708 0.17231096299400644 1.4770175192988497
Ni 8.658563890171273 8.128362802685478 8.184705687393665 -0.17606734471264518 -0.1066753272720679 1.4494102991045426
Ni 3.482360444683386 3.994667513132012 2.3052393634343917 0.5883694476564512 0.3131973889301445 0.33662168139135573
P 0.8747186765933399 2.693561920789482 2.1581294861148286 0.1121173242232456 -0.24181893718715772 -1.579380335238493
Ni 7.174673034687887 7.611670675461355 10.070868428392073 0.11863841317121503 -0.9614938519595312 -2.779954128187464
P 2.6157015247396176 7.210107288827045 1.4443852930586123 -1.2440704306800252 -0.8679447776567761 -0.49586732656097177
Ni 2.169291369269699 2.3912256178690847 3.8376228243064334 -0.4759466763776449 0.3929054435847491 -0.36739830045258015
P 2.9242942172505337 3.426900157792433 5.460130880644396 0.6759327366894166 0.14428311032251281 1.466244597053062
P 2.598552313987035 8.03134221351465 5.699068171370514 -0.2219499661773726 -0.00011287142878045079 -0.34625663337795853
P 5.852694190169845 2.8450931662884154 8.426190222453066 -1.6181852239208323 1.4756795172137167 -1.4048515386575613
Ni 0.9509712177588546 8.411874076212975 2.5261215703318 1.8044755319130665 0.45799780520870803 -0.3128531182168483
Ni 7.900982143505061 2.4263340183837365 1.9753060515493879 -0.8150962663971769 -1.276837340698401 0.9971416830701278
Ni 2.2166425559622267 7.187660629150348 8.893121708184028 0.8949405895193298 -0.13350607431166683 0.7023407943693001
Ni 9.276000647989152 8.523641869418597 12.151642126069847 -0.7000879937793814 1.1467035252930768 -0.16788583734311732
Ni 5.718004922006102 4.914459194077403 9.689659721165132 -0.2754669642589062 -1.2835260655724863 1.4486340830601503
Ni 5.337901324071415 9.013613999433213 6.182337957834216 -0.14628291436136098 0.38644117601664413 -0.3968382029802521
Ni 2.604389748917474 0.887097390283152 2.215537446669973 -0.49747709425025294 -0.894783495116175 -0.9246697411526462
Ni 7.175036128726622 1.0656158329636884 0.2396578927414543 0.42128373761712606 -2.2976447428165847 -0.2933998945882431
Ni 4.150965531652294 3.752893433851979 13.341924900717821 0.4821864866397696 0.8591050678779591 -0.35194597045325193
Ni 8.76541594869863 0.5843700630133474 10.29357634659707 0.1045330841180845 -0.8435876889686504 -1.1394057060800828
Ni 7.643110895174423 1.9587806177351457 11.774725376582827 0.007069248141955567 0.04832208414415549 1.1255448889375907
Ni 1.7868602454456814 5.07942491900955 4.587709006598647 -1.6260839099426188 -1.5349514155011565 -0.00860522517050776
Ni 4.004312780417395 5.159473189395384 5.2435964921082565 0.4917011109984242 0.06498463240150097 0.1299558950665633
Ni 8.066329582683057 5.148114863055454 10.348953773566365 -0.9110701480913406 0.4807831785343397 -0.47596184588629636
Ni 8.454793653612219 8.898755251846563 4.822380407874801 -2.4970505051448546 -0.8479968737799395 -1.9310763944644675
Ni 2.8348148119611345 0.23989716240287742 13.189923494989243 1.040802614293188 -0.8955062322148125 0.034009781286541425
Ni 6.978956037705913 1.1282448995937775 8.044246017045095 0.7368118315629762 -1.7633077994255053 -0.6604462110180432
Ni 5.777021668455951 6.427220680692038 5.388892761254853 1.2787021618212817 -0.4757322463739936 2.365380712710978
Ni 8.372045453194762 6.424241447553696 12.68838076827359 1.1787584968460925 0.022152881947955397 0.3906282175147982
Ni 0.72415940590579 7.152226375011188 4.325375425632985 -1.3795709097139015 -0.6895467279284253 1.8562961161287836
Ni 2.1729409298641684 4.9528168207335606 0.343027972538374 0.15752352027218677 0.027021008673534106 -0.7230073215797161
Ni 3.246935856029445 2.5998184880708304 11.086529969708607 -0.3853690259983879 0.8126521757320585 -0.12325868555204578
Ni 6.143793198096557 5.2084070936926565 12.510898540118983 0.014600266411678081 0.36128267447314555 -0.880662996554393
Ni 2.002863958079054 4.3978136173710665 7.236902697875366 0.5910891605804593 0.3270648909408561 -2.1198570729787236
Ni 0.7341444919710153 0.2739637623294656 0.587001098278646 -0.8090652297117485 0.7326733839145705 -0.21430710492013416
P 1.4700374213900953 3.5812896050834637 12.225605312770616 0.8034440268702291 -0.1834296986149873 1.732559462499055
Ni 0.6636213885346749 5.379889891114925 8.598821886654308 -2.546436254666834 -0.6319977258693631 3.2727505291325962
P 4.995242962644266 2.3449078526714193 3.4126463892461767 -0.14415301250255175 0.07934912865328915 -0.7713306912754523
Ni 3.147317747966125 1.3397797625196364 5.722341568243102 -0.09084453088739838 -1.1790829700650467 1.121890837124771
P 8.824525796184053 3.6506312563783805 7.604716959114393 0.8878795689074902 0.2836798390870018 2.6481827771787168
P 6.181769110506864 3.462176140171117 11.253056999007317 -0.27876080451882956 -0.5533857324924146 1.2926223714467997
P 4.650080183360199 8.451749249748975 12.732080532350937 1.1393131463662765 1.8884991832238895 -0.8204891552779741
Ni 5.465421812496021 8.371086512528358 8.422170119737014 0.9816081062109031 0.41512208889110436 0.907047914305825
Ni 3.4063062087236418 5.341643985701457 11.434695257389912 0.04217843314026284 -1.1139070475883461 -0.49483657130361225
Ni 0.3524684175454961 1.7903980847974632 8.49592941516988 -0.4493786960811293 -0.3429039148556417 -0.8459878137697108
Ni 1.0232548617778843 2.5687972230178415 6.168451938378474 0.07093210823418751 -1.090881276117134 -0.20585383194645837
Ni -0.1803041205428303 1.5742174801965014 3.7871918553571446 -1.1495708195385426 -0.5049484629266335 -0.1318482269932697
Ni 3.8560773115777525 9.135818418726592 4.008714597379296 -0.14845755341517658 0.07690786620164819 -0.03446743764925032
Ni 2.235756198565404 2.369291013888039 0.26701190800321506 -0.09503260082681698 0.8194869392657048 0.6690264964878865
Ni -0.20276381436450816 0.36685159653119914 6.700544838907116 0.13482607867467103 1.4606149095711103 0.2835250586766923
Ni 1.6537536948866831 7.154283907897356 12.744507658579247 0.3626589859953819 -0.5431229171138259 1.4077386303973691
Ni 7.888702116912957 5.659323339284317 4.208080223945383 -0.19007857139007264 2.355159549203602 -0.4229436418180523
Ni 0.9058851792618229 6.695081670139681 6.903903568888937 3.2095127042188727 4.668631745970747 -0.8668659427703006
Ni 0.6205491254370914 3.1725201982957887 10.375701701086543 -0.3206656722827316 -0.03347602027025847 -0.7720922520318252
Ni 0.8766542471229066 5.410464271197163 11.230886849406271 1.3717143897839603 -0.9146938608868569 0.8574420783532394
Ni 1.2389792713045369 1.2254796211464234 11.835390011362321 -0.19847682275609688 0.3565076216820054 -0.5257047216373784
Ni 0.14269223318161478 7.201365101586721 10.211001314105781 0.1273721934997871 1.258730346685045 -0.30810223379542423
Ni 1.2127806398942396 0.2642356351224224 4.767316731395391 3.08265755956482 -1.086458207348774 0.737617358183407
Ni 6.444872637036716 7.184271751455483 1.4408018341994 -0.8729689703442449 -0.49359318581481443 -1.4007130910091554
Ni 0.5789655478983234 6.358856590270641 1.215036477986178 -1.2587663421293032 0.6735477813970078 0.4886669521577907
Ni 7.932757526946193 7.266470655763057 6.286224748378568 -0.835175039424923 -0.7105613825068796 -0.7543058745826815
Ni 9.11303659532183 5.178354079409629 6.146500576211026 -2.2492226427594555 -2.558369001548678 -1.5239599494866594
Ni 8.046378030759723 2.841667048179322 5.964944246739736 -1.301778326914455 -2.072839566578604 -2.5019415146885686
Ni 6.736539561280425 7.806791825815658 12.083360895570108 -2.045961511240838 1.2918965490243686 3.1831390993213504
Ni 1.9954717358545422 -0.05873558132241798 7.6421342653112605 0.3057607301464412 0.3005969265573145 -0.16120354022693528
Ni 6.252563137956722 0.3632206561438445 10.540824766768809 0.5129335380146391 0.34281366913468053 0.011904207636753691
Ni 4.483503810512636 1.3154990124421468 7.645404904690946 0.8801024960652326 0.4791289307603684 -0.5818074781682173
P 2.499176268616205 4.345565316207389 9.432327527830463 0.028066676329229084 0.4769774316350044 1.1774186949887466
Ni 4.310158992378902 8.436192066704693 1.324532605923814 -0.21009409528005107 0.686772764727714 0.6589853102018006
P 8.272604237099031 8.158145823965345 0.4060452704868032 -0.33313218018085855 0.24112911020898475 0.9812612643944455
Ni 9.165582819799342 2.6508192353578273 13.687731939168055 0.9894661688027411 -0.9472324569445105 0.6129337672593765
P 1.7089719190851458 8.892703684534304 10.339728391951416 -0.5690190681542975 0.5541004991712523 -0.39561641475800896
P 4.6325027078439796 6.724408496345237 9.511114279184278 -0.6853301187439165 0.587337149737195 -0.3759441331400622
P 5.555264311824155 5.0976261714641105 1.2523234427332433 0.39819111746372066 -1.4088935699374185 -0.7148659234195044
Ni 7.616968124385469 2.7640487148219486 9.616867745491874 0.47686867397128196 1.1194243778621495 -0.5711512840059518
