# total energy = -340866.9777281478 ev
CRYSTAL
PRIMVEC
9.27702787856866 0.00000000000000 0.00000000000000
0.00000000000000 9.27702787856866 0.00000000000000
0.00000000000000 0.00000000000000 13.57786803663414
PRIMCOORD
 96 1
Ni 0.17022418429651226 3.6690459665868445 1.6255013407623227 0.37348024498060195 1.0917621360601908 0.43784806973371043
Ni 9.124457864819435 2.3969242435586935 9.172216004268911 -0.3803869994027642 1.6778327603801362 -1.7811970210011001
Ni 3.9958663812460538 7.19598642033626 6.786259063052325 1.898568908755066 -0.34075678660565184 1.157137061921575
Ni 8.623201495212964 1.6488989327408627 11.285584180320024 -0.20416256028696453 -0.005626087937525794 1.4096322478756562
Ni 1.269524155225926 3.948785464830728 7.501473381716911 -0.49363869434076924 0.8300914542544285 1.3838841923772747
Ni 6.285715169185893 0.4717229513979619 10.471917403437185 1.0008299305549926 -1.2417320123548357 0.8763718253782069
Ni 1.2311914760873797 5.888315126529089 10.469527641059138 0.7186690992156785 0.0985033329842368 -0.22804733732436208
Ni 8.181169671497218 1.502897068200097 1.3008805094099256 -0.659989840206915 1.0694043371902806 -0.24058969276574693
Ni 6.877357621281924 0.6784123491237783 3.4071897949584913 -0.023827955657533158 -0.5519770250703462 -0.05322646342430833
Ni 2.4464728493861316 5.655461727115364 8.281657509629072 1.5884553009565676 1.572922495428291 0.8036643704111514
Ni 5.523236248954254 6.284212290671749 10.518869369165184 1.1316378892092058 1.1921225768578245 1.5256321949827596
Ni 6.311226995814887 0.6430501743076332 5.733037161826021 0.4987258790556895 -1.7570204237548968 1.4895660453878217
Ni 9.199082276966209 2.426740611117088 6.746734285833115 -1.5828870628401708 -0.9337783883221338 -0.5779292261597337
Ni 7.221173550989976 5.085267763443418 0.5746738404279971 2.1646678015355105 0.022063664668258775 -0.5722640574541563
Ni 5.185301954912669 8.221496911626758 4.57495423153226 -0.3565222769700247 0.5437752059858442 0.16311721230988038
Ni 6.308954123987941 7.197813994825682 2.6413433136118254 0.5820807864342621 -0.0369197558444848 -0.27217852331562153
Ni 2.4075278864084897 1.8195869684306294 11.295699851504118 -0.08810784868252568 0.6017479258458863 -1.3271108921419725
Ni 1.5002531152585468 2.3092748842893354 13.415096240261963 -1.1005198276481627 0.07459233069459413 0.3613130134904487
Ni 5.2358988648888625 7.70908955452645 13.074278645959907 0.8332680522101973 1.1031114996347389 -0.7612275414031794
Ni 8.235727872371804 5.507947707032588 11.1861669112038 -0.34164715963040515 0.7283919829303972 -0.8542243427468902
Ni 6.841093719357293 4.408796168549016 9.234511246382983 0.694600745412565 0.15129733685681684 0.015297806699334943
Ni 8.36286026223498 6.347722823436146 7.952597620443231 1.9720214694182616 -1.1240636764063738 0.6999165011985237
Ni 2.9326169406003744 6.857254301898276 12.117717808871108 1.5684305210952085 -1.3263210492508255 1.0298204042500716
Ni 3.2813868031883833 0.6532697482038149 5.116656587224945 0.667825791311566 0.44741643014843596 2.2462332211138283
P 6.258746849182081 2.5937549437722796 2.2841369218833045 0.9249443349702715 -0.9169145226872596 0.8774732859725016
P 1.1587007803495766 1.1230862703755011 5.62104766454703 -0.19136283741913496 -1.2106041806017795 -1.1523254994655445
P 5.470913811795154 5.318993203476462 1.670267638725308 -1.2131606284750462 0.39644225309341397 0.932697239442813
P 6.80473704715401 0.4368904948729134 12.72387417106207 0.07377909076467938 0.03623404263136985 -0.1576883279848252
P 7.047915778581579 2.4278816855444947 6.749992378019336 -0.4114950336614784 0.8393438260906319 0.496893453832641
P 1.226951874353034 6.961305446433111 6.956661366283848 -0.3006684032251983 0.1214504286987134 0.1033002401522479
P 7.185726027517473 6.708209572217762 12.538291867134904 -0.7163954726901534 0.12635917885424044 1.0772102063879447
P 1.608441814221211 5.878045456682436 0.5629773636956933 -0.624759299139395 -0.38311134031246274 -0.16521214716569613
Ni 3.559205956664194 2.7613258980993773 1.0999744108552056 1.915176692515076 0.2743138244910695 -1.1637512248039827
Ni 4.697525106794171 1.013543125344534 12.157921664530042 1.610412521953949 2.071832979690961 3.1378236632140024
Ni 0.7562187818282771 3.7360353848006493 11.399557106156571 -0.37773387805063335 -0.2993072612116136 0.2236741479573309
Ni 7.4865243790151075 8.171697826046962 0.6474307868655281 0.4900923717504076 -0.07041043140276261 -0.7730667001299525
Ni 0.6045542194786612 0.1423504263730668 13.086498347063802 -0.5872618164145692 0.7956507560780556 -0.651040344323111
Ni 4.778263080304037 2.434023077991183 10.058484801223935 0.3836805825523715 0.5125607280562526 1.0082205665921087
Ni 7.077027092022227 3.6146733062695597 11.951646949949795 -0.14981535299465168 0.23837802982640882 -1.9078397925340305
Ni 7.972315943170477 4.633550722636519 6.532950744898866 -0.057366196624294756 -1.8855850949008879 -0.22099017336726454
Ni 1.7994187098519265 2.0109442222038134 2.2158134670624996 -0.7204812127237528 -0.6982673956308748 1.5971836819685008
Ni 8.714227692625213 9.166352922658175 6.634716957470529 0.5739327034058309 -0.2560309670214816 -0.26730833970751383
Ni 3.8943849734298484 4.795638953495349 10.906911673814475 -1.676127090542939 -0.4791171036858265 -0.9902421277368171
Ni 0.7089087228246843 3.5122549186389804 4.712294135155392 0.09118648760784942 -0.22984659531662996 0.28376545682227255
Ni 5.226723884330291 5.915673081703236 8.286084507326292 -0.2850438093140639 0.06585495082159626 -0.19207091922975308
Ni 3.0710394733753628 4.4506448412484305 2.6437061726090634 -1.6629337317811168 0.16898344128267026 -0.51673825647271
Ni 5.165690318005872 3.9481546269359025 3.5339121401900297 -0.019482019984011608 1.663735658857122 -0.9656626386252403
Ni 6.774512490369551 7.607802964295412 7.212604360350993 -1.6544349502814863 1.5771000238447483 -0.474975056492995
Ni 2.598959356404595 7.5551929392724935 5.266407298725993 -1.6598100985504705 1.2735309020329875 -0.8658773536047862
Ni 0.31901936192745617 6.986520408170422 12.547199669290961 -0.14360819574267528 -1.4391189444808634 2.0174945141493965
Ni 7.43610373256835 4.580987082752927 2.926152707583981 0.3085825158659525 -0.23869504684619536 0.6111694762701023
Ni 1.7796771945550178 8.038321996430582 0.8791264132016909 0.31575229414151423 -1.0660557324330222 0.7647363258873862
Ni 4.322287883707064 6.300419258352059 3.5719572314647587 -0.6416709872930692 0.27360471423918686 -1.1211058793296307
Ni 0.5387717425901039 8.33503845566758 4.234176528450025 -1.7868539621765613 0.9950290076024992 0.25619911716822974
Ni 8.616076737812575 6.6471110666982876 2.2593162338302597 1.3695315232000285 0.3557882270174776 -0.22972266814425596
Ni 9.182773261979383 1.517313569502445 3.900052309752631 0.6056490606725053 -1.4742214446109514 -1.16214557087976
P 8.635020428713085 3.0731546357286024 13.263445593454145 0.5991919921932519 -0.1940324138314981 -0.18616046728258906
P 3.5151771824164837 6.9553588715715895 9.93260388241976 -0.24148109423176475 -0.1276714699077608 0.10087826097431657
P 1.0606054877041289 0.8232824162650031 9.723559047318997 1.3132894128778478 -1.6432429382204083 0.38642266407388287
P 4.485146107878696 3.2451136242358865 12.311623462198833 -0.03931808087333228 -1.1652360368796255 0.15655781392480778
P 9.127927473240979 4.650082386292107 9.375816151715654 0.30496651637991995 -0.551653066072024 -0.9846895733497041
P 7.714266136075169 8.422205409487953 4.7687643314729735 -1.1133853707569212 -1.2314586554532856 0.4110977982230597
P 3.0136146708904636 2.6868591954263104 4.000026200540759 -0.411822077983594 1.08135533890457 -0.3357081684381508
P 9.279439892333606 9.076504907784791 1.608502114902334 0.8988946890710714 -1.7566643259670585 1.6623991994338854
Ni 3.4928937614845403 0.39793254405626005 0.9260922944714889 -0.6331819759854516 0.6520096502149157 0.0924869515868278
Ni 9.079853914844088 8.431009308931921 8.993029283351937 -0.4414087905017753 0.16049442997505262 -0.08782682710699713
Ni 9.007483820468531 6.387363563503669 5.310331242558829 0.4369538400542153 0.15486191427962365 0.308041812871134
Ni 2.3941133041155713 8.997622339847943 3.2885050666692663 1.4413640317612983 0.6450450459716246 -2.5350123291006086
Ni 4.201992663380459 2.0034112755773616 7.818312642096072 0.6036258595948895 0.9725454817880025 -0.21033012255025713
Ni 6.556019930090983 6.114683883465118 5.211566148501521 -0.050843050793796314 0.5200560079920333 -0.6079062321377983
Ni 1.8941186102987517 6.69391367227766 3.2378190972255676 -0.0750348175486514 -0.654945078694156 -2.3607691820808956
Ni 7.369383348162632 2.6785562554870554 4.683875815696266 1.8351493068478395 1.7235693431853027 -1.0770659675005967
Ni 6.503484121290985 0.9086709638436389 8.202186778125576 -0.07211353013679839 -0.8480565233732814 -1.0008543560350247
Ni 1.6311055932956227 8.150787405239052 11.066831863261232 -0.9231504762946424 3.4661987883258494 -1.885840919665436
Ni 2.2925855111600413 8.282669633369153 8.689835603259535 0.1773654946987784 -0.07392718630676945 -1.1350775110183742
Ni 4.441581185024239 1.4383567853426749 3.097831529849739 0.3922837508403502 -0.8769883759162832 -0.7473412703393904
Ni 2.2991629239163887 5.289520085949075 5.089881229400727 0.3740777693552848 -0.7553867663516861 0.8451311221963703
Ni 4.037418189053786 9.17369105169946 10.509391957498211 -1.9027402665239357 -2.336022828374151 -2.2500127427609184
Ni 5.8045528419352035 0.491029374087998 1.2843442072404052 0.6146304382355092 0.14318987725833404 -0.9505612642074276
Ni 5.3453306855854485 5.155355708964162 12.78984961013022 -0.30093168418891403 0.8532956602850338 0.6029458028087293
Ni 6.075748197515341 2.655799706133993 0.15848781634438855 -0.267194696947785 -0.5384784763632791 0.033464193195716564
Ni 2.7562328098014435 2.9825273505145513 6.125044468184849 0.9549128563079038 0.4714107361805043 -1.2776315544649222
Ni 5.277348625390078 2.5040739154004674 5.142400339550566 -3.473153879487444 -0.3730292734861124 1.7522212025940402
Ni 5.573044611561916 4.069043577045873 6.909858760704476 -0.02929746341253664 0.23662145214661828 0.2755955194169705
Ni 8.548827562818548 8.58151980901512 11.311450389413464 -1.945491027227901 -0.6075984710893922 -0.48120303968057776
Ni 2.6862098034757538 4.248776714904101 12.987000367805154 -0.26198975570807786 1.3006233873744053 0.241449469662881
Ni 2.0160280334738823 1.2952957386351422 7.547637727779165 -0.7777322239264218 -1.0877051923819978 1.5681420433205122
Ni 3.687618576372752 6.427913452301972 0.6984980421544817 0.6341029451378241 -0.677035482835292 2.4793453745556073
P 4.444373570411631 8.376794358088343 2.257795728963172 0.12025692261124449 -1.071078382458594 1.56000398759441
P 4.271431216950647 9.25472589010101 7.264376669757694 0.17919586303929785 -0.16572251114321138 -0.2997752019869676
P 2.799435928569161 0.13433136348648414 12.578102376812359 -1.2836913875057567 -1.4327840034017711 -0.7757959261356574
P 4.5236550505466795 5.3734957421838585 5.4386288271218595 -0.3455310680658436 -0.647797411905781 1.4634670343079248
P 0.4116514128631532 5.170607142774368 3.5194381213149186 -0.8143365054130168 0.38619949231948325 -0.7136629042503386
P 7.001085341918612 2.344128677978474 9.736064480881138 0.18813738850330178 0.2596937605850495 1.1647683532145876
P 7.096239816730827 7.250655945545228 9.51790867671407 0.675973617229681 1.4797403175466515 -0.7874929028576115
P 3.161175076112564 3.687108339840172 9.210342733388853 -0.5843708680200195 -0.7161435045803473 -1.755218337549151
