# total energy = -340894.63144149364 ev
CRYSTAL
PRIMVEC
9.03863495406265 0.00000000000000 0.00000000000000

0.00000000000000 9.03863495406265 0.00000000000000

0.00000000000000 0.00000000000000 13.22895589449793

PRIMCOORD
 96 1
Ni 6.412559111052679 1.7835396364696 11.258622426914979 -0.1988318921026705 0.663826697454502 1.0067689217472466
Ni 4.34737560423587 0.3936723294817232 6.051029975785615 1.4864380412818012 0.6786524496134247 0.036165137066647396
Ni 2.6060825483183514 1.5043813907804613 4.700870296744538 -0.5595216701868234 1.36489582420023 0.9875185581580671
Ni 3.559938751194197 4.359758534350623 4.81582908138504 -1.0458612597630181 0.7289473412132349 -0.040106381102582536
Ni 4.981960098758877 4.583103208172173 2.62458553827303 0.4587570519722357 -0.5259510333202297 -0.20508327232902096
Ni 7.324638742402697 6.2093705935493 2.3924959849726295 -0.45454738476626233 -1.0153137259934644 0.7467617436868365
Ni 5.05592324994794 4.445806340695469 11.528386819123634 1.0401819499900538 -1.0859434724958847 -0.6108560587947416
Ni 5.5977261549615065 7.8468278092053065 12.403760553250288 -0.6046301324896878 0.05643005796327055 -0.3652275180535065
Ni 1.7379216450176627 6.627642472374316 0.43088800572586955 0.49294732470069946 -1.2008980090576094 -0.5283326461785288
Ni 2.709448379553611 1.7625067325447619 0.2391812664157538 0.5703467858267854 -0.6705303347269226 0.46676629542995746
Ni 0.7261106176142411 -0.19540896425537302 4.5131378452968 -0.2813877006187154 0.005868800075951183 0.4114204716698011
Ni 8.694995251619986 2.119469549349073 1.1893072245774692 -0.40585583309783 0.40547171028553397 0.14847606535793784
Ni 6.964792600995024 0.7653997567549743 4.941676709754915 -1.2265550475040814 -0.28279486537888715 -0.711112369914343
Ni 0.8938703970367476 7.067164182367055 2.5519049694075306 -1.0029580326415888 0.7554340746498538 0.6304494075456368
Ni 7.539550369657048 3.723149385560678 3.690892304543505 0.03632968766896969 0.5070238573984235 0.1465855332034443
Ni 7.362745628069701 3.760713953120467 12.598702220069942 0.7406515170240406 -0.152015445969764 0.1813738445272231
Ni 7.867128583685404 8.668114350772344 6.960825544040742 0.1725233361151287 1.3739507353136466 0.6578285708895381
Ni 6.667267848741522 0.6101593908375357 0.36576192809388147 0.9853148656385289 0.9147792215118117 -0.17432413676929331
Ni 1.9358135223405704 6.553814900712056 9.315248990159825 -0.9257094952710703 -0.23048500023157725 -0.6393137999148022
Ni 9.074880047089271 4.660871624746865 1.5207078773981815 -0.11650259777513483 -0.26370339596507486 0.09123662411949449
Ni 6.293529325154014 2.2034746241567422 6.985973738535834 0.5071464990192169 -1.0531243690833347 0.6342494980180173
Ni 3.5380923701085356 4.352509548984176 0.5260657374056882 -0.2349846878741437 0.5635459608548681 -0.09300837130793659
Ni 5.887685569619354 5.728397702895063 4.747911873227916 1.1355063710256768 -0.7246410005283972 -0.04161227622414769
Ni 5.033950327970595 3.149711257626211 9.275654345152027 2.304491333424773 -1.7690477872330759 -0.19938853593708886
P 0.12510013324542957 5.4378778928597615 12.639632775348515 0.038779948981675146 -0.3485037775409224 -0.695240435879093
P 4.273150332628319 6.123720487149746 12.388149926534092 -1.671049676020032 0.2538087625591822 1.3152611918922381
P 2.4813403450236837 8.329997088193766 1.518009844814785 -0.9730645875162661 0.4310559865125415 0.4321371353918622
P 6.319235203436025 7.782201568095469 5.71125773911652 -0.22908194923646352 -0.19655363759145503 0.7706874012644984
P 4.7190623576510795 0.8533872541966285 12.56488868608506 -0.0230630524670506 0.8053055055590002 -0.5550381804941731
P 4.210087775394285 6.2042004942605145 8.061130232452554 -1.058605189692248 0.8784899001624742 0.2909807436237892
P 4.7073573251703476 1.2258558495497407 3.8442815579883147 0.7974204463839686 -1.1822816795080027 0.15195245394231252
P -0.11645829420695182 5.43643171124052 3.8449431860791177 1.18156125640221 0.6941294622031013 -0.8103991180318237
Ni 1.4167247073842084 1.04755069453243 2.483022435019564 0.6107102772454966 0.132900579517184 -0.20943949241518767
Ni 1.8932686668295207 6.375726672937631 4.782387035303601 0.09571214339234484 0.3793649858961531 -0.16675326640057087
Ni 5.9469428614677575 5.5601706260368395 9.296569746820301 0.8391543357876451 0.4145654450566861 0.639997199135072
Ni 8.724786592976354 2.4738292392387504 10.185926249477994 0.5620876311417867 -1.596454260001644 -0.23965535387693565
Ni 2.5551679166859436 5.077860017384804 6.986635366626636 0.07061509121440097 1.7768456860109398 0.2841984305946331
Ni 0.6723696047797286 9.307805674138294 9.212155221841686 -0.5455035015308605 -0.1882554021384048 -0.2525941734257908
Ni 1.6016280660393067 1.1119961629398627 11.503477244595716 -0.8613519549306068 0.693627068645386 -0.9299914104758759
Ni 4.213667074901908 6.754074900436471 1.4640220772414896 -0.4376048433746528 0.8188112533549188 -0.14318524927264373
Ni 5.500217359284175 8.17853667948362 8.139789858450102 0.19034082391252383 -1.86612210108027 -0.8659686277670118
Ni 5.36047102168988 3.0572098658055005 4.801846312854002 0.4066251071636868 -1.046798683975623 -0.41329146344026885
Ni 0.7946587225027584 7.395890303055683 6.834977915670867 0.057705068020952224 -0.47006167835177753 0.5015774895718716
Ni 5.270699297675487 4.601062976156125 7.164022196315729 0.4240846974010309 -0.006509776094059756 -1.0422308620992826
Ni 8.456438554891042 7.29031000621596 9.317695748686878 -1.029017191622486 -0.7032049421418083 -0.42498149818368747
Ni 4.497715222191105 0.2848571051324607 10.31841365920721 0.21123617930429428 -0.9435069284638073 0.4682955875902902
Ni 8.01083384346237 7.323536028918025 4.385928094614302 -0.2608998650780087 -0.1402135682388295 1.311974036500534
Ni 7.289324794987853 6.3572607413869475 7.279179830928876 0.22180778417255348 -0.8541353825775096 -0.9296867347512634
Ni 2.2732076941095247 5.0876488592200415 2.6020034122885796 0.7467694569963204 -0.004194497697321809 -0.15620145902665356
Ni 2.3255865846314148 5.117964441413384 11.74032835087747 0.28515693785316054 0.35742627684153283 -0.793892378626052
Ni 0.9567576047494482 3.43346112995644 3.841464215421331 0.31085717083274206 -0.5046101057506084 -0.2848802871530062
Ni 3.4828843867940056 2.669461457781594 2.8455223196985444 0.16553250661959235 0.780623686541604 -0.934824570198461
Ni 1.2464187444483255 3.435160393359048 8.01953895294669 -0.79513576411485 -0.9772575425516911 1.161810041917212
Ni 3.7376021631179692 2.8585316272271304 7.100840329098109 -0.455308431302003 -0.9182975190777152 -0.3127623582752549
Ni 4.218014658394751 6.997322648792829 5.821534510764728 -0.8998984477452373 0.13358346451682154 0.7257254918418276
Ni 0.6594479720118093 7.173422376840796 11.362191627440444 0.34451651075840023 0.38691888698401106 0.6282529141149502
P 0.4700108339803901 5.547010373301745 8.099547143304182 -1.0651787291447075 0.7079455421505872 0.07312140257602245
P 8.49816089460615 1.6417144127976466 7.864707133336687 -0.031986065988293295 -0.11395669142482953 0.6436486798447302
P 1.7789841643689903 3.3178569867683527 10.448771566502094 0.6145003404155481 -0.4723144789416962 -0.03625538278760852
P 3.9963511707055677 6.224736273253738 3.6216256281629273 -0.9994980991174465 0.34735423731751147 0.9258676181154892
P 7.035989929837288 3.7224895651968994 10.364066901336116 -1.7575426148069537 1.6462092199375842 -0.6723637883912357
P 6.281950833564966 7.720892506074765 10.187407681774204 0.016333961273333163 -0.39445890411479806 -0.7906648728276899
P 2.377387002505608 8.572322895767858 5.879953921137485 0.15747415509149007 -1.710377269975061 -0.6170382763460535
P 6.713147960611947 3.8674421566204615 1.533063691607573 0.6511987242778462 -0.2776043223168832 -0.11413024088821634
Ni 5.093370315251164 2.6385131711298335 0.3947822738744907 0.9291856267451288 0.6802118236807446 0.42703066740323237
Ni 1.7334475206331355 1.124523711216539 7.072424668007044 -1.0030660189743628 1.1115614301743049 0.16466321664076158
Ni 6.782356789727755 0.7864950272621423 9.219907659184331 1.0006664083939347 0.2288137831767414 -0.8988535514204906
Ni 2.780238969815464 1.67628719213263 9.308660729020671 -0.4422672818473286 0.06671164239493671 -0.8856409093849588
Ni 6.592418911310674 1.8130055869616382 2.548888776867901 -0.9824069479631145 -0.14248128122708364 0.12406112684868312
Ni 3.9718745467999117 6.777656699465222 10.315675856629284 1.1160631746994005 0.966649685128858 0.5102328512540244
Ni 8.105802782670912 7.116650709650463 0.24540798215009887 0.11112950638867958 0.9376427563735464 0.6964876780226328
Ni 7.798245145433925 3.9752911508753686 8.12752714218245 -0.22579890760981758 -0.1327357718045456 0.16922152543540536
Ni 3.0754227155728184 8.468957064532598 12.612619006564604 0.4080446132190328 -0.8079578555801826 -0.48557160106191855
Ni 9.184066759341974 4.828484074416912 10.34168362532431 -0.4497569053561545 0.6902175287432049 -0.1304055810094722
Ni 8.821472872857743 2.10915646667686 5.690646939451798 0.352753811066528 0.9596992219529537 0.8939687125243636
Ni 3.748421409356917 2.484784065004502 11.294406383356076 0.0047588548412240625 0.31024036318434955 1.0097051215574353
Ni 0.874924513961177 3.2965800396952676 12.552493101881142 -0.16578473183971448 0.013849761398898729 0.09831975621852099
Ni 3.020603393568459 8.347947817542597 8.079055653623046 0.5284205779066448 -0.1039540716861629 0.1409195931669186
Ni 5.568956179373729 8.009143618694884 3.511454608545626 0.11900042449632407 0.08013742888253941 0.5517883060983078
Ni 3.1567161998444098 8.494870831422375 3.706753301452532 0.07775504469329189 -1.2899006016402623 -0.32812161434014453
Ni 3.3714289771261163 4.541299520740985 9.43273497717995 -1.108588206478594 0.48986097246589183 -0.1121396928207488
Ni 7.18302140733851 6.167621137928834 11.516772172994104 0.524853943601309 -1.0061870811018478 -1.3861339076433998
Ni 0.619493589326225 8.920744202383526 0.2102983078889724 0.39392334332630224 -0.07157488402450898 0.7196687441247864
Ni 4.371092982791424 0.4225281721031438 1.696296018698343 0.4563700397972979 -0.18890743390010692 -0.2435662588955676
Ni 6.102660467319546 5.665280913850308 0.34785819964767634 -0.49610566782402304 -0.4380956669681423 0.5297212989959393
Ni 7.76045461199613 8.745783342360712 11.370777426941176 0.8082612457532145 -0.7721938106066959 -0.02621471072215485
Ni 0.11902074726354468 4.82876427210564 5.996143767881366 -0.41238386402433497 -0.2785869979451267 -0.26080370581977663
Ni 8.023885632576022 8.761917306050371 2.4367608927470643 0.4755862077144326 0.09674649819413016 -0.42555074042359614
P 8.59660066970087 1.5226032791828994 3.611862094506025 -0.44741154505242947 0.18707475156674233 -0.7815467125765057
P 1.8437821395461131 3.16022319027107 1.502465200134967 -1.3614052945484683 1.0535861392111014 0.4688638013889344
P 4.681651446888336 1.1210619139654805 8.226862646017587 -0.2440100313012056 1.0462888342187402 -0.29384289566293265
P 8.565498726252065 1.3897172656448806 12.318129427984484 -0.4301278182713173 1.417271509588469 0.4287214248420939
P 6.234064144697843 7.869261701573785 1.4386361666427359 0.2422516538492021 -0.7010089629317541 -0.281054999869645
P 1.8737000217941642 3.309152781147545 5.887401756476577 0.31754615281714343 -0.9007641381796422 -0.2002737667555196
P 6.977898621919397 3.940311632959974 5.924112173017501 0.712991846325243 1.1558129437935127 0.19198221617068872
P 2.307030266729527 8.448403208269134 10.440437944921216 0.40987189623575865 -0.42569960729663453 -0.8568885198426146
