# total energy = -340854.3263480188 ev
CRYSTAL
PRIMVEC
9.48246086355291 0.00000000000000 0.00000000000000
0.00000000000000 9.48246086355291 0.00000000000000
0.00000000000000 0.00000000000000 13.87853997564321
PRIMCOORD
 96 1
Ni 4.206979079393768 9.391950719090458 4.2174799564919905 0.8914893977459357 0.05334550550067587 -0.12585832795842197
Ni 3.4399902369792894 0.5787155313276853 8.546002373778025 1.7911572175376056 -1.1741801334467907 2.256696325428681
Ni 1.619490516390973 1.662939151810929 8.142442117256039 -1.6676450212138572 1.7505080765576755 -0.21785548439302482
Ni 0.8142854604301166 8.083532329489458 0.195745490203101 0.27403691668059904 0.525411872987308 -0.8886491000836632
Ni 3.4171185415116043 7.479736637572021 0.499877403928066 1.5427426294108013 -0.12249378236156325 3.2707946909578056
Ni 6.828604501303555 7.7471515148042736 5.872689954498727 -0.022079605507858747 0.8023078563832569 0.8987167687323104
Ni 3.812594051949117 2.3353309652098067 7.124021085300347 -0.9577752654573635 -0.27084026412017226 -0.41433995930944123
Ni 0.05707493160033063 3.5635372188401813 9.61431726976453 2.0271479780787605 -1.5167883714388846 0.0858589047473489
Ni 5.562705465963376 8.331185758398885 8.403983558264127 1.0318258647158747 -1.9465855458436605 -0.6120331098219782
Ni 0.7434154448470378 0.7634120581978897 4.146338742529817 1.1581302790727797 -0.09319143385302014 0.2745909894118561
Ni 2.0964108827040864 9.304759491965514 1.6720584343695 -0.08955949352738768 0.6338864582516438 1.0507090747736227
Ni 8.641698420001214 8.485399018511224 8.408827199244596 -0.027516717363030026 -2.019161617439174 1.385066128500518
Ni 3.061839182437075 4.237578980419563 9.402446854958278 1.1798743556180906 0.01822372209687829 0.5366655915242564
Ni 2.399318610738803 7.289869324823488 9.93588268768408 0.4171725436622299 -0.7389059950878436 0.8326566438784434
Ni 7.924947654944861 3.24590322917142 7.872005179764439 0.7324651245585063 1.1086864226193551 -0.4116585558225362
Ni 7.560166870141219 5.301340398726307 5.736486732198069 -0.6407402479486837 -0.026641770957244435 0.8469733176114317
Ni 7.889208260161402 2.332182788221717 3.484720901100419 0.7481815068524985 0.5138923023834827 0.740640461280447
Ni 0.7361518798684943 2.0280802701252556 2.125928834951747 -0.10462512961125851 0.4508426822211655 -0.3907315758618819
Ni 8.311111388869412 7.1688162301549685 12.246020651020526 0.5597540979126037 -0.888346995462212 -1.4260749668127117
Ni 6.976189521311453 3.0596108041473133 10.313406951566918 0.30794051140657935 -0.9146902613424313 -0.28691197287105424
Ni 8.428712867804002 5.1417505833361155 3.4927146155611397 -0.9174382564012136 0.5074848561952421 1.3738563758276274
Ni 1.7328912651878419 8.451802659870259 8.07006533865065 -1.1731043838841086 2.6718096725690375 2.3703516835630083
Ni 6.0999058356297535 6.820734058833332 13.400645853522958 0.11579682995736185 0.010736155470581508 1.2177240794760122
Ni 3.8423310490414306 4.912957768972802 3.3112250569360318 1.1645827195663427 0.0322532036067509 -0.532896097179495
P 3.0079313927464493 5.93596357072892 4.955429710929586 -1.0287852781173379 0.70013324519502 1.4240728487810184
P 8.344480168450996 3.973122630959251 12.192949214373122 0.30959193096707327 0.07615427586507531 -1.426567075957782
P 7.422747048118958 6.45117411378271 8.028874477148959 1.143940874946275 0.3211593240896985 0.06350830496629062
P 7.2422104768050035 7.086186066678431 3.821525581783699 0.5090447444831944 -0.6162368634906806 0.7772360010162936
P 7.79696288142606 8.258407871701337 13.860234177972126 -0.5764205028246911 0.7435584062581904 1.1688862320377031
P 4.987233884477935 3.8928630826845874 10.737743279718131 0.0067224063254981 1.465497177364076 -0.5373150521827972
P 5.45615105386952 4.36224489265574 5.411603401241975 0.38567935814995513 0.3302306902633474 -0.16118965626986434
P 6.312123308501559 0.47856841800145644 4.8474273270704265 -1.0989023466493977 0.4774623416912228 0.8488173127987059
Ni 0.3792538647341258 6.1326582552588516 8.288944240239722 -0.28027467006019474 -0.19591394712492713 0.4583860417860622
Ni 6.533406013905333 5.2507799177007275 11.700761137913855 -0.18425990782576654 1.0087964937002367 -0.6873867441626291
Ni 6.155112722451007 0.8855935657025017 12.111649440147875 -0.7141362443423315 -0.8150638704973446 -0.04680487616868068
Ni 9.249040552260656 7.444623085201856 5.259730412456925 -0.46513107381937957 -0.2512726264008899 -0.7680605051646128
Ni 8.139194374429472 2.9092474231228174 0.13766731424933712 -0.5763312855449946 -0.051943997167458934 0.9886189903110973
Ni 8.889304436606604 8.444093419233763 1.8176028288116257 -0.7502286191895144 0.8118466491116276 2.0869058148636834
Ni 5.474091869717306 5.917539149379952 7.338916405104191 0.7223480907291625 2.641835751914767 -1.2278028038682531
Ni 7.353695768518757 0.2110814740670676 10.07749944685974 -1.2221211801024436 0.5934746300935005 -0.6521646877355414
Ni 0.04184894428173105 1.1155451367764904 -0.0773863626499914 -0.4220725520670086 -1.5246016968357161 3.6380562087222055
Ni 2.2376711013533845 7.6429772003731 3.4749786208667954 0.2363923668549477 -0.5155977151103637 0.7772059191093066
Ni 2.9634396866376687 0.04125060100477792 11.13151858493286 -0.4799198020927799 1.0495808747064506 -1.2224132574215658
Ni 4.927627135842003 7.07758547472603 4.561140456339092 -0.4618811994235142 -0.6417224093562948 -1.1228334035436984
Ni 4.662440636899513 2.6197668595915173 4.234828118539308 1.3122686849228176 -0.6567114265659593 -0.6900658336566889
Ni 4.454679920607231 1.0026943707064564 2.2017050757566254 -0.06436653920152786 -0.04117544579704521 -0.5539156368539557
Ni 4.699194654989375 6.004891578338623 9.940004713397098 0.21369286837490295 0.09284433492624657 0.01219448518366287
Ni 4.509754052977179 9.308590406131744 6.732202011750207 1.897040902146314 -0.32843554603613756 -1.8072191560964748
Ni 4.624207354923681 8.195415884557127 12.060368292100925 1.229004023265206 -0.4259155799621826 -0.6875037293564675
Ni 0.7736853562367331 5.014913187575022 6.0836576390361055 0.6565036814305274 0.6795453937413394 2.5036245588179464
Ni 0.11326704609948318 0.7218068131589114 9.882436693834778 1.254483141372917 -0.02764038742508788 -0.1953591030627216
Ni 0.6267422988255014 5.9825509006761575 13.663255967864051 0.18679090177773636 -2.2816313981074643 -0.5375873320075774
Ni 2.1873097520047624 5.762131099205867 1.6928629533811506 -0.14623894849730298 0.556747449875796 0.38815995847996376
Ni 7.679930350139919 0.4662725110723738 6.914857913054637 -1.866342187510876 1.081399561878944 -1.2188841612223846
Ni 2.5499569831267173 1.4017826987116258 13.872460862937315 0.6091843275192734 0.60782575660885 -0.5063998506611794
Ni 0.13562194745315978 2.1852899878527654 6.188593395070121 0.009949397903228026 -1.1733378400511534 1.0593916901492852
P 5.177935653777528 -0.030543006260951144 10.023928284527779 -1.2988904638436984 0.6511539870828398 3.2660008691135882
P 2.022362346258334 4.002101031186965 0.5647554525268867 -1.3888536205674082 -0.5158136877759116 -2.1486061200869577
P 5.004586787755657 1.7539328457196801 0.23957247580927615 -1.461926172183366 1.9377381227553596 -1.7282762617426686
P 2.622971931344452 1.737348021767366 3.7702577091818803 0.43794191499909735 -2.5968347617240437 -1.466978647005609
P 6.783401610634211 5.24735674934922 1.0087688350997395 0.8029305775689204 -0.8506775059358962 -0.2614899332535238
P 0.14370290055330961 9.24633805093052 6.684459718076615 2.1924966508223207 0.18042562168134088 -1.6105397915604327
P 7.263527048700259 1.359765914873602 1.7384119538699674 0.7040091832106584 -0.3206078224616027 -0.2941072050679128
P 6.541304903757979 1.780284604303717 8.247183482843502 -0.44050967572627353 0.07225519792098524 1.411913587710665
Ni 5.957536169065977 9.42018000491438 0.6056286515915262 0.5632641679483913 -1.0492425175304252 -1.8217356045450948
Ni 2.645103994869152 3.351205956438685 4.9775105691659265 -0.9868510997773972 0.9691043173169374 2.129907258125874
Ni 6.422432775075184 8.714590096228452 2.655839088749321 -0.8770454544064638 -0.19246712622690723 1.086090282486394
Ni 8.08955369210222 5.206411483582444 9.872429852944625 -0.10884919499493512 0.9341830799597202 -0.34539788492208906
Ni 3.629174812549682 5.9255328638406715 12.765217620597786 -0.1414070743262984 -0.7072626571509497 -1.2013132422181567
Ni 8.237527493003226 9.360431019366334 4.078445271394212 -1.1427854211855932 -0.5142419724134176 0.687232735083268
Ni 6.9713629487604365 7.2401433003489695 10.071476187754817 -0.06544306009515827 0.647055391533434 0.5656624929772387
Ni 6.320060128197435 4.321394451497039 2.918629369845756 -1.002136822291874 -0.11459458211914458 0.08084628202410593
Ni 0.7562120257067564 9.386318137370804 12.149648505341762 0.5910804188297111 -1.4630060355111063 -2.0774156159850614
Ni 2.630207048940573 3.8766385922429585 11.600765743960546 0.62823234528966 0.21310357153033618 1.050665623130197
Ni 5.361297998412117 3.9816947755292293 8.323155062341014 0.8204973828080901 -2.3909233370667726 1.8574430852490331
Ni 8.462015270159934 1.4232509899798014 11.814717558914044 -2.0076916691263618 0.8552908363381915 -0.47726436674780387
Ni 5.9138220247434115 2.3899594219218026 6.252213121119786 1.5503410105833493 -0.8722086951394526 -0.1592307327712806
Ni 4.922269545485766 4.322940092608661 0.44785757218421257 -0.9971326842090633 0.2147141105505657 0.7783150930130853
Ni 2.6052017997912005 0.16734931306896741 5.798411942501434 -2.8623433292186573 1.335365675951597 -0.10077773084071032
Ni 1.2871681949313973 4.8674229921751975 3.878774042416807 2.1683910160233686 2.4209111416781144 -3.353602981804289
Ni 9.255384318540871 4.439318334099084 1.5444595970055641 1.0424257517189082 0.0808676221803446 -0.9308041361851582
Ni 6.159522066726494 3.2539159085537555 12.715185312639186 -0.4487055812735047 -1.6143501664454585 0.08916174386833675
Ni 4.104615914976827 2.167481926456284 11.536494572853405 0.392903129591904 -1.4746456766325635 0.5573825123566336
Ni 0.8301192734864767 2.5749053375112445 12.354481985982769 0.7831353972198641 1.716534033605076 -0.25013876990676276
Ni 1.7968599457952237 7.424624575358843 6.289879351939331 1.4054084396022957 -2.5185878649959976 -2.811734248812538
Ni 3.6889901753233802 4.669988675702281 6.854943932688542 -2.050374038486237 0.5063851953731602 -0.5619053399276517
Ni 3.108834258199036 2.9613819926424414 2.0050881474053153 0.5730155909082002 0.2822865582839009 0.37706744811122805
Ni 1.1602359745622286 5.558315086609504 11.325901445517923 -0.9087831518293769 -0.3526717928756829 0.16000566326409216
P 1.6431302911840655 4.149316235223372 8.007057231323067 -2.50838675609328 -0.28507851920674127 -1.9530726962299008
P 1.859946757547508 2.0822346037968766 10.407128749449987 0.5011486295645692 -0.46729260024707264 0.19628110065635876
P 0.2867145297137526 7.336693716290913 10.651460472338545 -0.33610257566309215 1.3628266003760272 -1.4604976672669556
P 3.553599599913923 7.205532318401601 7.894446371511464 1.0898883160762456 0.10724842616671852 0.440402460724448
P 0.33405476704910575 6.613295746208505 2.818689922411211 0.6467766839507505 1.2277585808938791 -1.1517395450550874
P 9.532717849777768 3.615358867153158 4.752400742580247 -3.237629259949431 -2.089978026031104 -0.8781651698332038
P 4.391545696550909 6.809952500895205 2.152811611341004 0.5958469869804189 -0.4550076122321325 2.5842175871806656
P 2.6174721040761026 8.222402968015267 12.84389454616368 -1.9049249328800808 2.0718304085877994 -4.253685520535874
