# total energy = -340890.19077807287 ev
CRYSTAL
PRIMVEC
9.06222109121874 0.00000000000000 0.00000000000000

0.00000000000000 9.06222109121874 0.00000000000000

0.00000000000000 0.00000000000000 13.26347659034611

PRIMCOORD
 96 1
Ni 6.545569786589489 1.641050428281264 11.380274699937909 0.1348502470443871 0.7498442392669022 0.9655114577593565
Ni 4.452405148746234 0.35395948062617544 6.102300304799246 -0.6953173118636155 -0.5796948027005887 -0.30235324712678896
Ni 2.606911012954075 1.644910934460326 4.628820312686186 0.6839589494280027 -0.16407957622314967 1.1371742456464027
Ni 3.3005243520133103 4.237748318080872 4.873651620873668 0.2222137613617205 -0.2983436117467636 0.07257272916140405
Ni 5.053620081698151 5.090168019304155 2.476954231590601 -1.0583470509348547 -0.35389435242887435 0.45463223117058477
Ni 7.103557925001204 5.882052083728999 2.318176868534002 1.972927783282615 1.1424820310125614 1.1652180391574967
Ni 5.2495271769539364 4.8117494011367254 11.428527402287754 -1.7316567481791272 -0.15751966361744485 0.641612880361624
Ni 5.844706670668165 7.858413754102931 12.402955410767339 -1.1669352789589191 0.5133917085979803 -0.6231729284888816
Ni 1.9727820930482762 6.678557880903424 0.3746666557885156 -1.1570265044856396 -0.9185762266603985 0.42665168679725873
Ni 2.601337746991345 1.456398611603871 0.18501974285314382 0.919216688457875 0.7445400534451694 1.1576818786814513
Ni 0.5854113256146726 -0.4395213471525433 4.474632964605396 -0.11499233177819551 0.8846628617424054 -0.05034965609714555
Ni 8.482882346339997 2.5549210506318234 1.5970687507252965 0.7728676967452689 -1.034020044153716 -0.643692388598472
Ni 6.532094263847082 0.8162097844634738 4.938045045184845 0.5948455422990981 -1.1736517717471464 -1.2565513367558552
Ni 0.27322143437941965 7.23707162813764 2.0405058836054755 1.7093519140343398 -0.33922080957709966 1.2581629042173492
Ni 7.785281630006613 4.033150552811658 3.8035274640366232 0.01944345343659232 -1.1163886763596191 -0.5004536603800736
Ni 7.6842469272123335 3.8626086143521055 12.718984058851067 0.20090702946414432 -0.6213996386385426 0.4752799893279234
Ni 7.880471200205835 8.917298038137414 6.8224804511696036 0.37310614947063486 0.297540656229494 0.4478694585254545
Ni 6.942748811979004 0.595247460372311 0.4835673664781617 -0.36598085127976326 -0.08210355146997474 0.12341706550678101
Ni 1.8034363677709675 6.525605713555512 9.274910500079976 0.2209824600577807 -0.5135606300756768 -0.7035157885140078
Ni 0.13784363236731875 4.757711376850934 1.5835134804374067 0.8724609203595748 0.30037889700923753 -1.2475694449722192
Ni 6.2691901681645215 2.0544236427364697 6.86818666939664 0.7073940405224913 0.23416861973075154 1.5990844985356396
Ni 3.55868890607228 4.571953969202072 0.3675365002446516 0.3428509501305192 -0.680378431165596 0.3038079772954445
Ni 5.9413190095765716 5.415900493717789 4.686450601407143 -0.29019655715959697 1.2936335863201334 0.4681665182115937
Ni 5.472040953293586 2.9527163070546165 9.226949601248828 -0.5067556913387015 -0.07553592555478604 0.1245871745554822
P 0.23265712039181924 5.520940698228373 12.687523652158033 0.3024152107129759 0.9522144835401343 -0.3011563986052104
P 3.9493068834016056 6.319376748492329 12.54108087821017 1.2592844194163022 1.4131263770718439 0.1408458025061897
P 2.404696611828273 8.484033248416853 1.6678292915656032 -1.7218793570773894 1.1181195430077968 -0.8919347128134703
P 6.320264846157935 7.8094958847259885 5.8357966949046585 -1.1077690530114084 -0.05967093349807143 1.5804565990218071
P 4.705476734559586 0.825784927254077 12.632293945800537 0.23890356331257565 0.43466710090256755 -1.0847702781233899
P 3.982973034704929 6.189560431555558 8.212970435098121 -0.6556732151094321 -0.7703963523866411 -0.12042661541988937
P 4.71668670203259 1.173602940655956 3.858106502920748 -0.9714054546462884 0.07414830117864005 -0.23639596639937355
P 0.186695347530394 5.68938020139792 3.5399817631017685 0.6914172054782608 -0.1964752189450358 0.5307679950928988
Ni 1.6123413119073937 1.3415802705505453 2.5554339723448165 0.36121736845284885 -0.27346510333752905 -0.9000804818490563
Ni 1.8092271270395606 6.4088299327494225 4.982491614682094 0.4287047126715456 0.4598806240537177 -0.6098484434658337
Ni 5.863972952679164 5.612813495513189 9.296211250722898 0.26576542070042614 -0.8743969610400231 0.06482548111581739
Ni 8.968227720593585 2.17146222795381 10.232122100956314 -0.505243111348917 -0.4445195682166151 1.7172948230305005
Ni 2.2136196804068544 5.071445470557811 7.148125022038784 -0.27762566247312187 0.8418431954737179 -0.7442965699757955
Ni 0.7923181448144614 9.201235548941108 9.163112597311816 -0.5292140203422177 -0.3222944661354062 -0.07019908672290491
Ni 1.475039600360516 0.7659008641511188 11.627811081117057 -1.860635366934086 2.130786575407033 -1.1949716162708452
Ni 3.975850128937927 7.052401687018092 1.7071421128223854 1.2828388096974745 0.3678212469226117 -0.3375742751126122
Ni 5.48731079580936 7.790320224925765 8.28414240077535 0.5776021818376181 0.8105029905995395 -1.3908251424714821
Ni 5.557026462559418 3.1498014910504915 4.7161873736512145 -1.0544240617313647 -1.435285429667386 -0.7546689143490551
Ni 0.709958867216921 7.404577722536193 7.0569790148843925 0.2502961214202335 -0.3221864798026322 -0.4268488904097294
Ni 5.173558577660327 4.393410089530988 6.848105693710762 0.2491468383071387 1.256326622339559 0.9753330718354688
Ni 8.316481842912912 7.51108600686135 8.940498230318205 0.7102487363624672 -2.1361357555340885 0.2928180539428441
Ni 4.854885573466151 0.47596053810561545 10.128414949166247 -1.2258618780917985 -0.44128177800560775 0.20034627186466786
Ni 7.93787130851142 6.8848593437352275 4.844657044535852 0.6613504679998674 0.29236785377930297 -0.04389207339725989
Ni 7.153880438645174 6.001501219752983 7.370473865954821 0.4780171857534284 -0.2920986592783163 -1.8175709316444442
Ni 2.459731480432602 5.355482665793359 2.639259517312714 -1.1835677453092777 -0.3496525464333849 -0.8603325125271571
Ni 2.371936682632711 5.385995164161673 11.514488006541537 -0.40227402928384265 -0.4410472933972985 -1.027186051951018
Ni 1.2221130100844053 3.489453537039335 3.6007158625418065 -0.743143687318275 0.07888530164299318 0.6289612530358845
Ni 4.130469744964118 3.022876022637478 2.557490190307326 -1.2169375790189751 -1.148437734375364 0.25617572012946205
Ni 0.990210772708351 3.436249237092684 8.536334044922068 0.9968825158714703 -0.18928538606481596 -1.4410539567200473
Ni 3.6075433399016785 2.732105597141265 6.86176699198526 -0.8883030295981541 -0.11480027037204746 -0.497403303589524
Ni 4.195029007921016 6.829135746329 6.1103249015634695 0.40500351239986376 0.40183899862895306 -0.17801366980573857
Ni 0.8620147809002565 7.528186418034801 11.244615969072402 -0.0944517886226825 -1.6755169677627662 0.7463189997224631
P 9.161814887253502 5.409248823446823 8.128110890705267 0.5240203919564201 1.392130491546467 0.32720244495998485
P 8.552434893110657 1.7484649347141819 8.153403549732879 -0.5673704768072809 -0.728591500535713 -1.316405075688694
P 2.0090128529165634 3.2908096510181113 10.486688047025364 0.03545242727033895 0.27410196559057953 -0.4037747821990853
P 3.8090146388991166 6.132414065440146 4.008553872362808 1.2645981183197317 1.0261128734914973 0.3573997944789716
P 6.828882004138827 3.711749820073122 10.705442814062023 1.3679824335453536 0.3288116984286337 -0.5222455594441845
P 6.606558534441807 7.637540239778328 10.214614796056479 -1.836601980133966 -1.363468090614768 0.8513778744370306
P 2.2176161199020807 8.521478345909541 5.824429951007011 1.0304490389730059 0.04156085416092197 0.8126568037177488
P 6.637143530578743 3.75624532556419 1.5698385888312922 0.5286584049490637 0.5739720412841987 0.1181802425878739
Ni 5.178189372630986 2.793166842762205 0.272696731779026 0.3938881192129926 -0.05660155054412833 -0.3723641290982877
Ni 1.4093113108846065 1.2073506519489776 7.0390593789255265 -0.17706647540112086 0.2281355261627942 -0.6653364492308089
Ni 7.09446851726036 0.35103600810653823 9.27436676681532 0.33551482148042217 2.9485236218611672 -1.436626517076313
Ni 2.7097853466271107 1.6850203249498303 9.079486421207626 0.27388856402819284 -0.2693593086992716 0.7537577153886954
Ni 6.463801365806209 1.7833816725262155 2.6014319940905524 -0.3371546710766903 0.45202050457935056 0.5450628144490162
Ni 4.117619515476067 7.011522007736991 10.34384025617899 0.11873148710565358 0.24348115538092907 0.34967157259677845
Ni 7.996150452261533 7.329143794286163 0.26276634992218034 -0.5674900331042807 -0.39455712025555917 -0.842727140740568
Ni 7.716671554228023 3.809748678806403 8.727805182960362 -0.8858615100361968 0.13065317824390404 -1.042521396756508
Ni 2.9240434395650565 8.337904933540383 12.384705003739137 2.826781115843332 -0.4032577333533507 0.2820086220321659
Ni 0.18342569816559212 4.584767949805813 10.60141757831213 -0.1258621846131639 0.7462758051893535 -0.045013588596212795
Ni 8.382019825746191 2.0282972593697184 5.657867233822637 1.5434964768576902 1.0420727392548634 0.0653877813771906
Ni 3.8685534313790177 2.620159980169542 11.252826341368719 0.44843047323524704 -0.23977491017393546 0.6795657054563136
Ni 1.3908334421073587 3.42139625674648 12.570791370013117 -1.1249100835670691 -0.31588830549874625 0.7039587895886973
Ni 3.1082058963042587 8.355322522451551 8.040292531130575 -0.3421531527325462 0.4414856664862977 -0.2707525895023724
Ni 5.549704187928709 7.7528207541066125 3.7987262993097053 -0.4254980328087898 -0.2417929690452287 -0.0395322537666674
Ni 3.1585646588325407 8.364366619087006 3.732713456091959 0.001621337653506885 0.40674826300511235 0.5631844637503913
Ni 3.4171732617243133 4.230797594514345 8.94953054606626 0.4174530510171262 -0.26989692637029644 1.4197377117407741
Ni 7.473577473821121 6.014659564757674 11.424733956544667 -0.2557286052897144 0.28994921703548127 -0.06499003171813968
Ni 0.42353468294953056 0.18225939031290364 0.68201097741357 0.19869588074543845 -0.195959712761198 -0.30604637970766
Ni 4.421067988259856 0.6836104594337683 1.570116799018375 0.12468847602003685 -1.2969924754900373 0.804125626318286
Ni 5.939524689803204 5.682148548977986 0.2965421541005427 -0.30360254615285776 0.022004529295549198 -0.31538231239660525
Ni 8.049916609914998 8.76792544811516 11.375593156529215 0.23751645315706194 0.6791399307728045 1.0232939159854635
Ni 0.1171527692029183 4.961901342171655 5.791006667228568 -0.6669732135032836 -1.0662848177246926 0.44186747530574866
Ni 7.800941148028724 8.671675598049857 2.948709899116205 -1.2229845565440036 0.19802610837192344 -0.597842420143893
P 8.714521779304802 1.4729643517337432 3.5533648511891838 -0.261876112948349 0.3618395754178801 0.009070594842700508
P 2.1316428285387894 3.4039242945088466 1.4492603000610371 -0.7324270722317192 -1.0812442672480025 0.9686829135088025
P 4.615561377027534 1.3493284695719023 8.069247233695648 0.4127044805885473 -1.9152072886426952 0.8951089967763938
P 8.692482457644052 1.7023563538712994 12.552461215439434 -0.7585661925209323 -0.212467223497918 0.20144541846611758
P 6.119137911561445 7.7725310849504154 1.6670997827688554 1.0224745054079618 0.3259282062332516 -1.340164125781505
P 1.6348790557274113 3.2240120194550443 6.007267511024667 -0.31543039202572126 -0.2933235328243529 -0.4581669837967206
P 7.142842653372646 3.910167150567405 5.9522108930897515 -0.1022165201697659 1.0479088863206663 0.6865143688600047
P 2.545242598520935 8.581796489402116 10.221551020069283 0.5218740350373786 -0.05407235636437138 -0.5178368888535275
