# total energy = -340890.16895018914 ev
CRYSTAL
PRIMVEC
9.06624055714608 0.00000000000000 0.00000000000000
0.00000000000000 9.06624055714608 0.00000000000000
0.00000000000000 0.00000000000000 13.26935948502122
PRIMCOORD
 96 1
Ni 6.703705306632358 1.6875537803656957 11.387339762207674 -2.633349568820626 -0.7569355988960447 1.4238784733820253
Ni 4.894872424319956 0.3008568515160386 5.758384707275294 -0.6155218397015271 0.18798183676204402 0.09673287134737535
Ni 2.7970531194500894 1.521070402250472 4.796263457262818 -0.5924801273907151 -0.5765631990501425 0.44091051070911813
Ni 3.4775016832839882 4.436755281360623 5.380354201607297 0.054143833032255145 0.21494216740097175 -2.233117252557161
Ni 5.2076395962536814 4.560690791834679 2.7823458637740828 1.0265607596621935 0.4010972353669221 -0.5507783767765546
Ni 7.22770682081444 5.931841837742869 2.507245295484507 0.3413363132582057 1.355534180479672 0.5701907198648954
Ni 4.712994569483083 4.44248514548788 11.39187832230594 1.523667615057221 0.4871122060761611 0.3849846460757757
Ni 5.828287236379688 8.12775786706989 12.345149108139573 -1.135429495041154 -0.36572991161122176 0.6971175982971477
Ni 1.9544911055220715 6.619652189031408 0.1978090530084176 0.32675070213454693 -0.8079262310112989 0.6177838962628264
Ni 2.600179702482705 1.4859568519896071 0.5426090666105357 -0.11617169679827734 1.0610071142655213 0.23664716317823117
Ni 0.4611298547464978 0.3034280373807381 4.919535318917073 0.7742164974636796 -0.3470184512446475 -0.7947536981850829
Ni 8.598123501225306 2.6418118798123955 1.302073544708194 0.403642370386279 -1.8604872713919958 0.6210463690641821
Ni 7.235449390378803 0.7823884677270404 5.171838824947174 -0.9754078909374619 -1.9525499909572115 -1.2965456177606058
Ni 0.8273443289001684 7.4614163737771495 2.1544533906985643 -0.24221103041925385 -1.5959498095613998 1.5611756393050082
Ni 7.686794051529497 3.940342337652026 3.720795159298792 0.03357835017607765 -0.5255643394047723 -0.39824356796821087
Ni 7.724509612873467 3.6532598256431736 12.491218032053302 -0.14687169698529545 1.070164612395073 0.5162199220753948
Ni 7.912661306280058 8.331603223141483 7.245521983805041 0.068503701298353 1.411113203296557 0.4833558243575224
Ni 6.987750628004135 0.634622343552833 0.48627688659740437 0.39103959402060395 0.27812574203799195 0.42101017224076526
Ni 1.790827328266938 6.6004136262497 9.258178463211339 0.8452542780377958 -0.4183074285976215 -0.18117895490759767
Ni 0.07230145639564808 5.0464509027117455 1.2732773509724442 -0.5612612785857495 0.09991923949515695 -1.0664064309042214
Ni 6.437311955918442 2.1360788406562987 6.924986856832972 -0.0068687020953752675 -0.1345478853126199 1.4869350355228779
Ni 3.284463286135954 4.423427907520325 0.2331546990313992 -0.6730495016043505 0.5897069355209522 0.15248724339985995
Ni 5.969566465327547 5.7494925383891955 4.760263228660741 -0.39174510472806084 0.03365008395427753 0.39219504778128583
Ni 5.306098970339143 2.8023840689862087 9.416919271762199 -0.14194546332827168 0.17240892202445146 0.011473804967554433
P 0.19992239371737902 5.622819023221418 12.240480265793419 -0.2733226642223938 -0.8954717794324514 1.558414017399471
P 4.195874331998134 6.324192470608654 12.612327595298774 -0.3804931859633253 -1.1118820467385173 0.7588847522026156
P 2.371293389576484 8.599682894627028 1.2482291411452515 1.2417875481831193 -0.7052011466362307 0.8593696343932555
P 6.473259600324415 7.708888480134125 5.795897184827411 -2.2160543835376028 0.10031441805104659 0.6431249461307763
P 4.988617353237422 1.1796267109583392 12.69320390215575 -0.11687900727794709 0.46696735569716996 -0.33772931263323774
P 4.138412498392825 6.353784680278539 8.327265933586927 -1.3130916950447449 -0.8269961031585563 -0.7784253933387045
P 4.454461649462732 1.033696500527438 3.4567481516800256 0.35381361978961 0.6967828406655484 1.0394059910559776
P 0.1314677432540018 5.79984643927968 3.602259501790232 0.5599258476037776 -0.3674726053339413 -0.9983259331862161
Ni 1.2991741609298764 1.0402967237626326 2.680384200903242 -0.2707595314809079 0.5185272300523328 -0.46219538822982337
Ni 2.0907567033585805 6.607276770465418 4.794312402262525 -1.5377487757406354 -0.9374411818857016 -0.21380265447988983
Ni 6.042839822727059 5.704505851997662 9.119274589328892 0.07083414920374252 -0.4385227272032319 1.2255875413844892
Ni 8.507941604905962 2.319851539801078 10.390903697740681 2.6315305133340163 -0.2358753180092131 -1.6418869384131463
Ni 2.375418529098481 5.13656026910543 7.295865911830746 -0.6173097848398852 0.3031024665879877 -0.05874739324253753
Ni 0.39052015886690383 0.05438837800540362 9.302630241401118 -0.07519576860654792 0.26656529089390224 -0.689021965773207
Ni 1.5745884211479377 0.9502054898503646 11.416519457925359 -0.725788226758963 0.42776343180419873 0.030786132142921172
Ni 4.195212496426473 6.62806566040814 1.6922546261726306 0.05232452043532925 0.6747963090921282 -0.4912763647561797
Ni 5.5894371249357215 8.024801637593416 8.076422092310764 -0.35962842669917416 -1.124457826520999 -0.7750577624180524
Ni 5.479273234096638 2.5584840614680604 4.872946627792491 -1.3301867028538188 0.978941100901701 -0.5796215262604921
Ni 0.8985261045684173 7.354063017557449 6.805403141898605 0.200096617747707 0.32531474101896873 0.035672256590628885
Ni 5.046949545950668 4.627418323443242 7.1326255280166615 0.9801567184763571 0.45825465841452045 0.18544184394900967
Ni 8.144584809823353 7.046064688235966 9.334145400725104 0.09335958399976825 0.08885861080562116 -0.019955102965688212
Ni 4.396138522990193 0.5900245988876587 10.602643029596456 0.22835175593865834 -0.6876682799587899 -0.5938350987567128
Ni 8.250424103844871 7.347508125525792 4.8589873369748675 1.1288209885857012 -0.6613725794870545 -0.8625223210896241
Ni 7.253681600441959 5.796800182401898 6.953874619599869 1.0234288989014309 0.616223750864558 0.2221533404374303
Ni 2.1685631811119346 5.189062869043634 2.3034815355792815 0.7897050800175819 1.3731516364511192 1.6734487723798277
Ni 2.410142231008915 5.263922818566991 11.378648863865287 -0.6965856370530779 0.10130275010624488 -0.33437710833155315
Ni 1.132536656722622 3.3954340723980216 3.821907315415322 -0.024987008962640837 -0.5616369167576134 -0.16432820189884603
Ni 3.554256477115251 3.1759131861428394 3.0921193630261294 -1.4085030193672194 -1.485664139230254 -0.1744480639416673
Ni 0.9325172542296708 3.309531441692704 8.429798769622353 0.12023326846216069 -0.050885988216589774 -1.383966981899068
Ni 3.87174716045768 2.719273840418858 6.849404327925213 -0.8587600258337146 -1.624458972744686 0.724130893661198
Ni 4.225357746779527 7.070389412054686 6.170610353020467 -0.15763639170096722 -0.9488293691179852 -0.6921594829609241
Ni 0.9917016735694398 7.400500302462213 11.485466405259162 -0.26996506060407055 0.7176889946905962 -0.6591164364630261
P 0.2370749415134023 5.718603856298113 8.032448105006278 -0.7111676486323106 -1.738910087307431 -0.21011723520850267
P 8.371984259253514 1.50580285289873 7.960514737983362 -0.34816207793078746 0.28941597023983057 0.33774576769347
P 1.7786876319593474 3.3476731163499363 10.439894036028727 0.845262505567912 -0.5235329107970402 -0.1425167624507094
P 3.808165614374684 5.9425672005000605 3.8240832131851663 1.3553737436424078 0.2019133592414716 -0.7690724913688948
P 6.824839348727739 3.887667479140375 10.510579888330268 -0.29984847842706425 0.642866293152751 -0.10951948158908235
P 6.189468133692452 7.803132052290513 10.27757024915019 2.3016327809300554 0.6541691197600799 -1.3543247335526032
P 2.412100539001775 8.514714086714603 5.690086902776159 0.7023456794653066 1.0674240735354583 0.5195343311606084
P 6.846126881909385 3.7873948569133766 1.3996788789189916 -0.914699774424128 1.7749381845755816 -0.11587139194903914
Ni 4.811073161458822 2.9632463778626676 0.8709928381632481 0.8179987847559524 -1.1944262852903365 -0.63534247397188
Ni 1.235737674698203 1.0781845436800492 7.008570343165263 0.8102276254509659 0.31623951819057794 0.46482691231539947
Ni 6.506142855371189 0.746462582298767 9.114377912722674 2.375577707848638 0.08905787130062082 0.8615653564929936
Ni 2.9217229954214687 1.961707833125389 9.178256831500882 -0.3389063636604744 -1.1351338181776063 -0.04919600210867657
Ni 6.1768569928680614 2.0887711966435973 2.677318904919974 1.20647396048349 -0.4456796499629873 -0.7178597159405056
Ni 4.2738258696028115 7.046753722529751 10.573065325911704 -1.4400342572062812 -0.7038158362529298 -1.2872896463799763
Ni 7.891410038061244 7.201142735540922 0.10267064289418124 2.0104100964987897 0.16779739139436908 0.2808464834032647
Ni 7.582060838874317 3.657176441628894 8.447234963751374 -0.2218692335381082 0.6794934574574815 -0.5747256316207715
Ni 3.2597215152446815 8.348339503487871 12.407116863376602 0.07091411051205852 0.6473011889956529 0.49598251198259746
Ni 9.08346656502982 4.707536692577057 10.24959817669477 0.02275246320516727 0.9277519796223958 -0.03622787198378277
Ni 8.596047332103247 2.515791133975571 5.708452386577717 1.1644235682806592 0.4453839730994394 0.6301246772163663
Ni 3.4310553321385164 2.462118988986074 11.876779860187987 0.22818874799823283 0.8422373455883431 -0.9167204043985825
Ni 1.113724207254175 3.181398261770989 12.551182148093933 -0.24188115788366085 0.4024383227758489 0.4698562472091908
Ni 3.1899567929990438 8.527388691223946 7.934599795544515 -0.9500586135393962 -0.11560965364722024 0.4440824806791965
Ni 5.833681649600761 8.061728435995818 3.6501754905544193 -0.36706817080667103 0.3362218748497758 -0.6335352455598121
Ni 3.2384249158223293 8.301548635195507 3.416834026964442 -0.28353868552344713 0.023118845405650505 -0.15094278173087552
Ni 3.635054814302142 4.336473592892917 9.232170138493201 -1.057143774655373 0.9450264504321273 0.046760396083990435
Ni 7.164188738416398 6.012957493354528 11.394000729255609 -0.036527662612388705 -0.5803548048820908 -0.440030679207326
Ni 0.4585777079872845 -0.24096073228071616 0.26334074746763714 0.26872244644622106 1.061447287126733 -0.29918050582576217
Ni 4.745814360844904 0.336759164718472 1.3862100717236545 -0.7979547216208838 -1.2718278032989516 0.5999440398679281
Ni 6.245597229913731 5.649890817974566 0.3413911070960284 -2.2103190237157224 -1.261949624953291 -0.4755453271741682
Ni 8.099389599895543 8.62921164061196 11.313774471857373 -0.7946943057020571 0.734859850042928 0.006799539420336676
Ni 0.2924433801393067 4.797365005508802 5.50998240462171 -0.09740418638278708 1.439768148029088 1.7339283178221234
Ni 8.13359652608564 8.789937955877804 2.6895927815900382 -1.353877104492223 0.34729407350353736 0.009769420681938012
P 8.25324370470496 1.765369324359758 3.421345388340586 1.1025504849249463 -0.618928808500547 1.0318960558321777
P 1.5842983649458688 3.285152320429739 1.6451083612445259 1.6925304716016272 -1.003682312402123 -0.7726144430838823
P 4.71011150493804 1.0892272248620096 8.028055511383405 -0.3073118766836449 0.007369810101509889 -0.08110724899497646
P 8.617217004155693 1.4568904842807684 12.535577334587865 0.24373209504947055 0.5293703434144238 -0.7489921756792519
P 6.302215903133225 7.643693143205161 1.4157478839492927 -0.006499748791730741 0.6938217011546954 1.01594493181956
P 1.7955327071942266 3.138342684650192 6.090317912065064 -0.25139398247010253 0.03626926674467947 0.09562806831897079
P 6.950016934178749 3.987332663239959 5.77770486622337 -0.4377920196847945 0.4858821903238019 0.8372110960183452
P 2.2819093224394154 8.459718270581783 10.12169527928703 1.8511811634997215 1.3330727661523623 -0.00045482814923147473
