# total energy = -340872.27708229737 ev
CRYSTAL
PRIMVEC
9.18852529594118 0.00000000000000 0.00000000000000
0.00000000000000 9.18852529594118 0.00000000000000
0.00000000000000 0.00000000000000 13.44833556098085
PRIMCOORD
 96 1
Ni 2.2527598857476177 4.661926845640204 12.18932923929372 0.5388147766567752 0.9719613271497584 0.568832148954472
Ni 5.557982624252771 1.6833929283164735 6.3489997782567045 0.48486634746477786 -1.415287903499537 0.39642091293717535
Ni 7.6580659770434645 5.783634423503866 0.1922092433200622 0.5373811295340423 0.9272429011964611 0.1895656363093961
Ni 1.9288184335692107 4.216908198302106 3.521056598693629 -0.5751727464605191 0.7592858442957762 -0.7889630596452347
Ni 1.6385988684846837 2.0942578278812864 12.585973977423523 -0.23292729112448274 -0.24418769452965042 -1.450629259113308
Ni 0.2038262955960276 2.8352480570125667 4.0780466128235595 -0.9000987366815014 -0.273043185308762 0.13819165271279424
Ni 6.491720544274605 0.2631464947484479 8.224638703993614 1.743820894345487 -0.11481569699101515 0.3333062438648776
Ni 2.3135695448177267 3.1424020738447833 0.9273822172145209 1.7324589323654487 2.01563072146778 2.0629302778846923
Ni 3.8095441267979937 9.17864742922466 3.226914452246602 -1.821499834385205 -1.1942187972652207 -0.6430868938039892
Ni 5.384227614730897 7.818074953025163 6.751683215078087 0.04405148179325962 -0.7677602003153745 2.3101822131619634
Ni 7.554502110712367 6.374952767383861 3.456477806630084 -0.7246736535385455 -0.011385359018806199 1.4385985532010193
Ni 2.893540060207002 4.543789978510498 9.74425995530252 1.6910816549702423 -3.6373545546694905 -0.4175499816063067
Ni 1.495992959030454 8.60136915168784 11.74686500193167 0.8904445014211891 1.11764183204043 1.0843110790987842
Ni 2.10886758278027 6.525607824820172 10.267373715116994 0.7129658781833141 3.3176566456166667 0.611094914278425
Ni 8.119458576098536 1.6174376951938918 6.033031209302101 -0.612158579656249 0.22682606332275126 0.32234948774305777
Ni 3.556611596543703 5.894742068936892 3.94423504073651 0.42559547761860256 -0.7196196360544058 -0.3943434615828564
Ni 4.314913006951515 0.020243239633931324 8.328822795768536 -2.9588676840996526 1.889821501579739 -0.1790868482652593
Ni 8.15259239758642 0.5942935883053349 2.128750632230528 0.13630626276462332 -1.4891816654652092 0.057231985039275624
Ni 4.664389370365315 8.558219837847822 12.168255356991319 -0.2973642785526298 -0.8317004506127613 0.630443751118682
Ni 3.102946547092434 7.943819918932452 5.19392223381025 -1.0923180085636608 -0.09286773196501426 0.9888881848120838
Ni 3.7219039744542792 2.895892322630989 7.538531535247007 -0.20242320899835461 0.2082171899723124 0.09457468735379196
Ni 9.157670026435742 4.054675599247733 11.845400907331497 -1.0101676630161507 0.52522778200096 -0.5387916367283236
Ni 6.890989525171168 9.199275668060016 11.195846610260139 0.8863844724192025 -1.1724474670264 -0.704214100132613
Ni 0.17891528521449646 2.2664691651874187 1.0451304097327632 -0.12682789096054287 0.7208527371305585 1.3291968281367237
P 7.2018924602416154 4.999917552686878 7.744560320307993 -0.28068090435967785 -0.3016667625827256 0.023400381201811312
P 6.414628818738459 2.20258135021092 12.01706920280459 -0.16551733711094074 0.7831958181441544 -0.9284783162654591
P 6.952148348194838 2.3380018330418766 2.2459254607829235 0.24476310741714621 0.8720670273552658 -0.14062340208273846
P 0.91955083727716 4.992640240812667 9.54494246896997 -2.824096627032633 -2.766537854781558 0.9981996920209969
P 2.657422530874183 1.1239403894614315 6.87004152566255 0.49994458195413893 -0.2318427998110523 0.6318105495592216
P 4.190417680456968 4.986676888026857 1.361832222989844 0.09952920314558988 -1.825112491437128 -0.05817018058282885
P 6.777079379584564 6.727277573576709 11.073695276516993 0.7226406822689168 0.8392713209814836 3.5470080464644336
P 5.80566850667856 4.990021511160963 4.277202381114459 -0.3382160224616691 -0.009025086316745748 0.46435897154004546
Ni 5.2849088469930905 6.133414008245759 13.309911222833403 -0.4360578106025071 0.3699223524260145 -2.1703774503257782
Ni 4.925040261698315 6.966105717812169 1.9131336212342642 -0.908249905033726 1.4937764839247436 1.2678603340107713
Ni 5.572243215198195 4.375667534871062 9.386709634888884 0.8141565281917268 -2.8882006566013936 -1.3098791016447182
Ni 8.653412957818558 4.480269704537747 2.373953775175998 -0.012240507930249887 -0.49962730782403636 -0.2013052933438275
Ni 6.4468529762420665 0.9409233466451072 0.20968214263824286 -0.9706783466722766 -0.2699946282904253 1.3716573112937795
Ni 6.0824820136513775 8.71289028075008 3.002556397328701 0.6787524655263988 1.7296296904467696 -0.8730440465565545
Ni 7.998482454714876 8.237577066178055 13.17674652291295 -0.006731919407194858 -0.5048826426857047 0.6443621609719871
Ni 4.606529227850284 1.8647836021912125 4.235015105851753 1.858536061202896 -0.03727096853631646 -0.4945984871508773
Ni 7.511545755899317 3.4025384077725347 0.23029843639097844 -1.3190252869203607 -0.7149268585644268 0.3154293635844568
Ni 6.242886096212104 6.592812697355496 9.154308863956466 -1.7055348542810949 1.8788297784549255 -3.3898424237522975
Ni 6.163010247572568 4.981099453294981 1.9983415709856758 1.0053895249012168 -1.644339513718697 0.7205930557112686
Ni 0.8149091569525718 6.549718514666042 6.13613932478855 0.5736614520223152 -1.4769416717555917 -0.0010299839264111294
Ni 4.815062804851815 2.541022294987186 1.7599563136597318 -0.1137862272852363 -0.4551346247283 1.012006258886786
Ni 1.0138434817887134 9.008788354342514 6.517588080118391 -0.08610727331272912 -0.12132701574697169 -0.6899791874801536
Ni 0.35218330290640465 6.621471707122749 8.441587132275956 -0.16567083196966953 1.0669674456140141 -0.714105391104396
Ni 3.5187732502078446 3.531095062358497 5.214510961987704 -0.7979153837425161 1.1870179086414072 0.38209678300501937
Ni 1.3708360587291608 0.5684710762345088 2.778385788322711 -0.11484989266306027 -0.6712672128929471 -1.278542753425282
Ni 9.010230952782226 7.291453014329912 10.71408672648237 -1.5572279675111698 0.23750642585473292 0.14513183147605327
Ni 2.632944300024565 7.868492390214296 0.7279324161206228 0.4752905308508847 2.9701761671339364 -0.7534905777702379
Ni 6.6438917083513775 2.8986580686841927 4.439617831818198 1.0075924460898067 0.7291717985192151 -0.8300976249020156
Ni 7.532513970163142 6.497830913461916 5.897095250213388 -0.3671679296093289 -1.687749762383532 0.7753403266554776
Ni 4.628067130669917 5.702986738756458 10.869469280079391 -1.5954474160036844 2.565277555743053 1.390742867170321
Ni 0.6723776745516009 6.723887007817133 12.914006160973644 1.182178578271235 -1.790564321148613 -0.19863468849019983
Ni 2.8382618932433004 7.183267319876684 7.606136108623907 -1.549070114290726 0.38003295849745516 -0.9866158438381394
P 5.478226226439453 2.2399143276666247 8.435481357351192 1.3311035582411335 -0.2066092220552442 1.8613701882175815
P 8.945433473821451 0.76851445604946 4.293582764798999 0.07949053932715987 -1.1620167586113794 -0.2809040761140775
P 4.155179686722628 7.350186066728845 9.176579092226069 0.6269354808551074 -1.6493112559016756 0.8056163519311996
P 9.094140563937898 0.35338608084117007 10.451481435861941 -1.3205802901123063 -0.7423782699071603 -0.1876573635430897
P 2.1992918582273755 7.479937229576988 3.1806796316801202 -0.3949247880076231 0.09308653284403968 -0.8652479475509035
P 7.2771648578092085 7.507162829429623 1.7596880087269957 0.13206985608577254 0.16548751231426984 -2.6121058289505013
P 2.9197181681989544 2.345674251495116 3.0983219624127742 -0.5355463903181487 0.9755583004723972 -2.2638154529719654
P 0.36819982099723386 4.60239439155812 0.4361076157022266 1.404101033644782 0.2430219563563234 -0.1863137050310017
Ni 4.161933252666497 5.204564383573774 7.766145084605605 -0.3951867834197581 1.4606771302676134 -0.5539475185331557
Ni 8.709297567438444 3.1642340094674153 8.124313792758047 0.05283668418505739 1.9031331310869806 1.2791665030522101
Ni 5.330566628183687 7.216327633163818 4.651967403291142 0.9407134248790702 -4.239904664701698 -2.4705753416724616
Ni 0.3111179465576389 7.767979114214309 4.306828942574077 0.12218987796789925 0.7788763648331941 -1.1792395502475692
Ni 7.317088999341336 2.8418178524545628 10.167143445689891 -0.13471372146652283 -1.119137699859666 -0.1438907599801006
Ni 8.254640157277056 4.0884342404419876 6.037293766093068 -0.044382382770117114 0.6108606867804318 -0.8270596094066401
Ni 1.6102614570957121 4.431175414962106 7.489687173553914 0.6059892176207434 2.2650950910153376 1.4430051669091473
Ni 1.8550162000166093 2.1233578868530354 8.656424037491764 -0.18897865345767453 -0.2985269314021633 -0.7629221554967829
Ni 8.678607893625486 0.9773834142169103 8.236244730039468 1.0842971951417133 -1.5881467685772133 1.2389349092256725
Ni 3.706274293269895 1.2825251440536065 13.25451819930603 0.6287609640996203 -0.17417809810973228 -0.3058417198960217
Ni 2.8010575551389074 1.099085429082972 10.52458626035993 -0.52085716373709 0.3044939476188756 0.6325235164658461
Ni 2.263335878130467 1.298274276064209 4.759849876416278 -0.732838448737525 -0.522036785867488 1.75213224242466
Ni 4.591625440148302 3.623219214947937 13.190557794981293 0.3946594501613784 -0.07101978285198737 -1.310791843266975
Ni 2.3880333521770747 5.824734696247988 1.4577861528383385 -2.3055362297495194 -1.3843978987888996 1.0640595279385998
Ni 1.432077578478674 8.798858121526742 9.181003367058684 0.5756735973563376 -0.307372040497619 -0.7426549206073145
Ni 7.2361380932658355 8.596756512090803 5.0684216826704525 1.2222175964709918 1.6092652957233835 0.7154984147971806
Ni 6.402858318093429 4.606336268823317 11.853591558600021 1.140379897067894 -0.8930287172085976 -0.45482583523862957
Ni 4.984370568228338 1.0619086565538602 10.39351930071837 1.5416558241045255 1.2967055403772376 -0.08834130484957042
Ni 0.2758101200325858 7.231029273313738 1.6959830453998614 0.07154840166194774 0.5892060846251337 1.1311473227260327
Ni 1.0691032717022275 2.7166150095278008 6.418621232891672 -0.008469213813275736 -2.484797398809114 -1.65812988263457
Ni 5.647304276688634 3.94998154433011 6.434772822301379 1.1778848359918876 1.5039161434619066 -0.5037343880138744
Ni 7.8451351594261105 5.218714712218072 9.895944127549324 2.396133934733435 -1.4145541106573056 -0.2516978868637665
Ni 0.6309760181844056 2.2981236341352167 10.474249682191621 -0.8190292829029959 0.8053109048756389 -0.4751686605610398
Ni 8.616594537768101 1.230830501876448 12.413714859786902 -0.15964930836593794 0.35538842047589764 0.005204941239707165
P 8.419813084361413 8.00753315193217 7.172225469271583 -1.4003050569374593 1.248453133128753 0.49962782204466855
P 3.1267723926603987 6.904083173429691 12.134957060904258 -0.2231658408623447 0.16272306219525526 1.1263501584477054
P 1.0788247312513626 0.37409334099233327 0.5303460479157271 -0.4176314855765194 -0.592951924820811 -0.7596416849732982
P 3.3967496369635035 3.0101700092213406 11.437580166130227 0.02087967166248662 -0.7321308811475392 -0.4630430809420993
P 0.0170024468333832 5.260026321039349 4.36896083040517 0.4865666179853362 -0.14109211418904088 0.5848514072008637
P 2.804925924203355 5.492606268211094 5.987978951915178 0.5006223247474539 0.8649967507720459 0.06677206331922693
P 5.089762951053081 -0.0681779373427475 5.113433510546963 -0.6901987596901276 2.7578151301965796 0.18936611870408032
P 4.610066810011359 9.138953000819875 1.2620237068645421 0.6374487216816054 -0.19340377910856368 -1.1587134052697592
