# total energy = -340886.0141626284 ev
CRYSTAL
PRIMVEC
9.15363882664331 0.00000000000000 0.00000000000000

0.00000000000000 9.15363882664331 0.00000000000000

0.00000000000000 0.00000000000000 13.39727568679049

PRIMCOORD
 96 1
Ni 6.544613573697184 2.235043926477944 11.496697249241464 0.9345430344023002 0.5690473502890716 -0.33984610186592434
Ni 4.695395512399423 0.7482522841169476 6.102404956460918 0.7224650759230009 -0.9332060607584315 -0.3801463441468679
Ni 2.9767907196723873 1.7755129636362934 4.650797154621704 -0.3106463403735166 0.517120065292161 1.035259830098088
Ni 3.8045725616646604 4.831867109646667 4.967361098296017 0.06129381381347509 1.2858362017629015 -1.8900225618469515
Ni 3.5781298510400488 3.4288889280057027 3.009001458390834 0.6565803003047338 -0.5975760538563838 -1.1609209544440393
Ni 5.408500570548818 4.808140878506762 2.3131336170082437 0.364890703539378 0.30418284413636004 0.44532020974103953
Ni 5.623711766663914 2.8845311966557543 0.6915821078101738 -0.2835039756307698 0.5090604282124781 -1.0920241314723258
Ni 6.230341701117558 8.390051182270877 12.547928562050188 -1.6050456012150809 -0.8876332572246391 -0.40667267257217055
Ni 1.7825246507710033 6.76215894764433 0.2833051133410835 0.9803711484800083 1.4331506427125706 -1.1336186670846606
Ni 0.5798674414043605 0.4376858044252206 0.05106540341828441 1.1428574120741093 0.4819579155687313 0.9503902858472019
Ni 8.13200095770873 9.052124705464648 7.1431324690254145 -0.6787275258257344 1.0053162484611202 -0.1385500644934775
Ni -0.29379792921904424 2.6000910321335953 1.5725584895491045 1.1390773762063866 0.9495608479673711 -0.5699942875833732
Ni 6.900809110868155 1.0789942985522958 4.967013260030849 0.19366423185880197 -0.8455152450086664 -1.4977020442313949
Ni 0.5006619223339547 7.615653360343392 2.286151436633591 -0.4417666880618263 -0.7989636225013723 0.20403066269479053
Ni 7.727611513534823 4.03357829108525 3.8835886004169353 0.4621989877742491 0.03135871681693954 -0.7301058802977104
Ni 7.736087782838663 4.083191012064528 12.445198191888133 1.2349039336894088 0.4542673916319983 0.6710466122417088
Ni 8.200534249585456 7.075295769042881 9.16685824186658 1.0036895114909747 0.7088667684132759 -0.03951425604453839
Ni 7.3139311262255 1.041043313094715 0.06690577494128101 -0.5082950108013633 0.1608556699692133 1.7169544089719464
Ni 2.3499953194775345 6.5615752659434206 9.051949870968208 -0.35305077348165653 0.8047907707061106 -0.053284570355753395
Ni 0.19119296390521953 5.251900122114593 1.2004493517466792 -0.2049302916909245 -1.2344393353481642 -0.2872387600828537
Ni 6.5670216808848725 2.1461071742575246 6.995736004160316 -1.7749255861700917 -0.13066886197318786 1.4703943575553775
Ni 3.9219771297975434 4.53003503186609 0.3030879569906069 -0.7401586365480219 0.221988789835108 -0.2451174054327714
Ni 5.90560721966721 5.7979970447903835 4.576978551842128 1.7031159604269572 -0.7550738630969576 -0.4135154065256169
Ni 5.668024530918653 3.0518963240330845 9.09715145352684 -0.209176211451472 0.27761332117794774 0.4472310536105072
P 0.3629051542332988 5.92180915991321 12.250334618921531 0.3490776477665214 -0.7125992388725146 0.4508126003141784
P 4.245613174621044 6.313182130058974 12.410096734113365 0.8648268008530848 1.1988236430270838 1.4065314974631453
P 2.042689365839833 8.742978870476978 1.469640469796628 2.1415618116456665 0.6085351239710487 -0.42933926093175095
P 6.66178930086614 8.220123036097569 5.840475419878287 -1.4382267716838972 -0.29994798011940604 0.987658426170041
P 5.0499525482686805 1.2247110707421733 12.80905440916751 -0.3882494328699765 -0.968643318520119 0.28915577459990843
P 4.346193355086046 6.394988197843441 8.092838945870048 -0.16229883017364305 0.10693372313977713 0.6856877591936513
P 4.953427429684457 1.5825084946606314 3.61475905108999 -1.7090775773270308 -2.2103647893519933 -0.511817422132325
P 0.29105916056277115 5.890595252433627 3.6543073464757785 -0.2179169337585795 -0.9044325881701649 -0.2626307317261864
Ni 0.9332409118081902 0.012693350587078529 4.253835888136853 0.16927628993274074 0.7618381784039848 0.5350874484038591
Ni 2.041032557261005 6.900854879060941 4.420336912034397 1.0251001159562667 -0.059875336199393656 0.34028524628587203
Ni 6.246552795002115 5.71829631387404 9.058447123616013 0.5160566570246532 -1.7116149990369036 0.1715936252120077
Ni 0.027355648827781194 2.5163077784208023 10.324516164086706 0.3381813125689918 1.210938681123063 -0.527541260625485
Ni 2.6550037098374126 5.776531762374071 6.802546631685802 -1.393222181948749 0.2586702044165416 0.33369756576602533
Ni 0.6923885433670509 8.995088383615592 8.723810235974634 0.6185053478098832 -0.27142853252347443 1.5428133347477364
Ni 1.9547412065835765 1.2587534525358888 11.512037832099246 -0.3527746370021344 0.34720819865795044 -0.5391839870707359
Ni 4.451148974781325 7.2230812635466535 1.1196181464685393 -0.6244463958846664 -0.9291300909168451 0.20802255746300302
Ni 6.072194287767189 8.000133640655687 8.306109570611047 -0.6369609834119094 1.0802685335982942 -0.7550898039365577
Ni 5.427274683229353 3.141638596446525 4.905734226710595 -0.022403307395864644 0.5097463985359092 0.2936063541720943
Ni 0.695617031686127 7.694987945717452 6.385771399180334 1.1962157730905916 -0.7341635953068517 0.669859276801827
Ni 5.256952930598091 4.742307910004368 6.88051915564257 0.16846664954725182 0.21851162991978496 0.7670441480849564
Ni 1.078710535757027 7.550918828467847 10.98949047533921 -0.16626527102055882 -0.09697815458896202 -0.07065905707845896
Ni 4.8335788400568385 0.9577635095025605 10.495331297836191 0.17133574356493073 -2.0612788583241985 -0.876546146172542
Ni 8.20523006616523 7.546360316466429 4.5751157863957665 1.5338880072336487 -0.3076183521804702 -0.36772560188501185
Ni 7.421577915656554 6.262919500742143 6.8226159842221605 0.28860607274402555 -0.09012127956812865 -0.1419187238553943
Ni 2.532106958570292 5.564982021681801 2.1637535586678296 0.1005026228024527 0.6560377975377024 1.278774924040746
Ni 2.656385909259529 5.581083271903674 11.241921281191177 -0.6812374367317816 -0.35609958761030935 0.2929157558629729
Ni 1.2919262386666832 3.680943519312975 3.807277461858272 -0.5122928191068468 0.2241469738286914 0.11535048644856262
Ni 1.9547503602221337 1.5267170676553354 2.4993021487094915 -1.0429620838383522 0.3085750596667847 0.023394210554224224
Ni 1.4671268806488589 3.5619004498783773 8.062748189841416 0.37155371738185045 0.712618007925592 -0.07204231057923076
Ni 3.79285590431162 2.8790847817143024 7.117811674048869 0.32254926245868965 -0.7472998755784936 0.3348620183877717
Ni 4.661508742461178 7.057986238531475 6.061878137113379 -0.2832260393790348 1.8993296981804904 0.022569400660083713
Ni 8.413484496976958 7.809948492355601 13.10769278245553 0.6661396618583948 -0.5753660934182478 1.9632648062715543
P 0.3821772248513381 5.892334443759469 7.838249712046326 0.6846325784562597 0.2474609659642835 -1.0956946383453774
P 9.091338893043105 1.8487969939241355 8.17730872247462 -0.8632347737756165 -0.5507099854324645 -0.27319385195401336
P 2.216123355580496 3.44856009726483 10.511877414891938 0.2046850084493378 -0.29583755749545826 -1.1842647713763024
P 4.201474329498889 6.5213450244851305 3.3552405829032894 -0.016754336640203402 -0.05198410637677499 0.23951959963001979
P 7.372349647496672 4.067767131095878 10.276460477025983 -1.2184218768739854 0.6700356544786912 -0.08926124556067852
P 6.857869392396975 8.319421707164583 10.4044576356971 -0.2421336402140991 0.5088079458820399 -0.2996458754979549
P 2.7434827801299786 9.040353126280266 5.779477403261734 -1.5098564202057416 -1.604726013092133 -1.2438457162637289
P 7.374647210774495 4.1526854359897465 1.465394096870007 -1.1761089750383873 0.9568545534153069 -0.03237378834501521
Ni 2.8784897952080932 1.571194597404102 0.3221906852953406 0.7547810144468872 0.17758455268811998 -0.11369495312301066
Ni 1.574407524537631 1.3161650735657846 6.990470831262294 0.6954420103669376 0.2430924045829426 -1.2723137417964345
Ni 7.183537544980144 1.333053536703565 9.23609453318449 0.5305913603057185 -2.0209493054672163 0.11515868215273069
Ni 2.8662422268187435 1.686347370451948 9.167527372845102 0.09508196600751367 0.4354692850888887 0.1773456972044365
Ni 6.646539339030074 2.1727076479043483 2.624271283745931 1.0616964270230618 0.46047891975934885 0.07663507215623577
Ni 4.686077108348333 7.034443080162711 10.218450208034456 -0.5222599576218877 1.450903081599985 1.0581393057994228
Ni 7.555797717818761 6.490295882499575 11.543011914248634 -0.9214756596953808 -1.6364040609217043 -1.9883978538937561
Ni 8.179911101916394 3.8723827160953794 8.230750410462319 -0.74508924108042 0.37396232682334307 -0.5911333835548335
Ni 3.724688757977176 8.55232688661048 12.246837928992733 -0.6290633258313876 -0.25843674824949686 0.15165497730655172
Ni 0.5439201874269205 5.182222625418234 9.873751640891154 -0.3991501389428803 -0.6651533866857254 1.3910699114924365
Ni 8.516243243418542 2.507318905357767 5.952636783845684 2.7137855027801905 -0.7093087410467009 -0.21204581968978317
Ni 4.05641661928512 2.76108522707521 11.704945272506201 -1.0064740162146473 1.5405836740862693 0.2268633443185899
Ni 1.7332048462255507 3.75353187307048 12.646438189473585 -1.2032911918801341 -0.08128208400994388 0.32613209471394156
Ni 3.108831955858013 8.672221244430885 7.964881147844729 0.9875267856881832 -0.6036356297869023 -0.7246921654813068
Ni 6.107710405368591 8.040675105824917 3.7283410597614437 -1.5636372134716232 0.8567190841442859 -1.324960421457873
Ni 3.608748772013423 8.699151249065762 3.5556366150137793 -0.06838517344261771 0.3696135629363441 -0.22916653853046984
Ni 3.906617324298793 4.467167842256185 9.251877236784578 -1.522703708482055 0.19451758099803274 -0.5036089181796036
Ni 5.21747328750148 4.840663756300004 11.20787889939746 1.2859429025440952 -0.6737740384752009 0.41903350813036866
Ni 8.309590699354299 0.44198526845547287 2.358778235673036 2.0673662021688592 0.7276404494763533 1.2976992717490747
Ni 4.98563908376676 0.29422631950351474 1.4642288386816928 0.5830673187172474 1.088099599606939 0.2670764262023658
Ni 6.240319167144755 5.736548669156823 13.479936478744744 -0.17945965822364576 0.29197396077499393 0.3722898242169266
Ni 8.735079280402232 0.19857628876534614 11.168142954421254 -1.2286507536908453 0.36348610988236757 -0.24853260176190745
Ni 0.06342190010646304 4.819024554751109 5.660308928978905 1.1695284936073924 1.3185833142869354 1.2167581160183174
Ni 7.544465513285118 6.363655293062616 2.4783348242306844 -0.8359245159964378 -0.9570936660093066 -0.2535187421225892
P -0.23690531949533383 1.972645723601191 3.833536504786917 0.2548312902864256 -0.2889004640559928 0.03288672342569175
P 1.8911966477204492 3.664265589862007 1.455721447006759 0.6279397537499056 -1.5754928272586286 0.17095110653200238
P 4.914121705720431 0.9191626157074281 8.239029876537183 0.6224882437170312 1.524325046135562 0.512865146670549
P -0.3493101702483496 2.1170260645617374 12.415147711869151 0.9229684421908233 -0.03772656801649631 0.3244716762923831
P 7.003659393695309 8.322790246153582 1.6158991373890836 -1.984036234490951 -1.9616732934147185 -1.8308699627461953
P 2.322452021059333 3.822532000513617 5.910502585567527 -2.2663495322477294 -1.651251410347182 -0.07025976475751126
P 7.086682895407867 4.058265654273647 6.033382860285245 -0.015100603086864317 1.7011683497822832 0.017138459452499515
P 2.669255925070759 8.819988431657544 10.145730041881729 0.15549877653267413 -0.47413687686241573 0.4669390735623958
