# total energy = -381168.7644029856 ev
CRYSTAL
PRIMVEC
9.27677491151613 0.00000000000000 0.00000000000000

0.00000000000000 9.27677491151613 0.00000000000000

0.00000000000000 0.00000000000000 13.57749779378202

PRIMCOORD
 96 1
Ni 1.43559947216962 5.803207148268481 3.0659481355558396 0.2102733011703927 -1.9351011993531448 1.96256443777042
Ni 8.685343410236495 4.3677282741728005 7.542707273021889 -0.5988574916719686 -0.3810272040899244 0.3916785131561835
Ni 0.2916766462738338 1.4904530422620192 10.714600816533123 -1.0943597215840377 0.11260840492705122 -0.15137549839291994
Ni 5.774551190545595 2.4599316818825625 3.951391254223226 -0.6600147799075794 1.8929808731443267 2.1541820715128384
Ni 6.643144902928722 0.2012123203022374 10.298735984426894 -0.3009231995484818 -1.6719171662266497 -0.44342042161516537
Ni 7.338494843711046 8.055988446223548 0.39743373569838464 -0.41603200229988346 -0.24492225870282983 -0.5284331763121352
Ni 6.232693996664863 2.223550180187243 8.268805084271193 -0.19478060485143228 0.48562662266957013 1.5193628170342799
Ni 4.383229765061418 1.3041475715761317 9.617200089175535 -0.3257268888557229 -0.22339338349211846 -0.3003776114576569
Ni 7.540858411780654 5.74245354932799 4.823433143843516 -0.9429615974832986 0.06587706230878332 -0.3907169205738626
Ni 6.105490858983994 8.152188602127183 6.057491897878788 0.4097711089918362 0.9825352460108627 1.231259394958286
Ni 4.757612570442604 2.9330657562699365 1.0534983900563388 -0.34970859648230096 0.7863613603563295 0.4765079481977536
Ni 2.891375929786723 0.8810988049731074 12.05376357503869 -0.8159246758357432 -0.8868945792864015 -0.8617905851299221
Ni 3.670689960355331 3.953353292118464 3.611790788721025 -0.20397127021176484 0.962988948447819 -0.22461362905246476
Ni 2.5372072169526936 2.7109983182736825 10.506376182070078 -1.1545865275855793 -0.5919849329218514 -1.0222238228497362
Ni 0.455815263292245 1.837172504836587 5.895050930670441 0.629354117598929 -0.185276522015739 0.7108133506166855
Ni 2.0631361882985626 7.290932818704496 1.6099379032107934 1.3055038553951581 1.3093409697530611 -0.9293956858734057
Ni 9.4993247486751 8.94430458208316 12.298361516279224 -0.34808365928436824 0.4122643077273352 2.0155697863228577
Ni 6.495031914581818 2.9782714804472175 13.06774383162021 -1.228418583075381 -0.13620496130006865 0.6372728582253735
Ni 6.814403444696993 8.331369509675751 4.0390744030742916 0.8606011928075114 -0.006176046903724847 -0.6521230358643285
Ni 7.727015454067847 5.408155688369137 0.19149582625272296 0.6787851185365471 0.015005729380212867 0.41644672123979887
Ni 7.547444921972707 7.213351150062058 11.78080096680771 -0.5009650527988533 -0.248715664306991 -0.6702480275998135
Ni 8.248546463204427 1.1218589444299039 0.5491461127136217 -0.46600447756326835 -0.5586590650762121 -0.4197030233935675
Ni 1.1652185903984265 6.446913283080165 7.924846389912335 -0.3872585297116169 -0.49660343339604796 -1.2235190888912348
Ni 1.120291169468697 8.75267424259412 7.630947956045548 -1.9691929988305314 -0.5173247251037993 0.7094627501260621
P 6.264893682406571 4.63434278532713 3.2616676774289024 -0.04760731746531801 -1.448543323118557 0.7462657778870245
Ni 6.64206879703819 4.895864347051267 10.697873863677785 -0.046570134450055284 0.5011121198996789 0.5868429837095958
P 7.51300025670075 1.2884327148643908 4.991631277566212 -0.49593494657411363 -0.7391417652477335 -0.3692209554836157
Ni 8.460641368163419 0.24601264941558484 2.942094841297999 1.3811505954961956 1.3754265485282249 -0.13990760696263646
P 1.3490842692807792 -0.08784178170216948 5.617987987925536 0.4511625274544294 0.6199559642134806 -0.7024091857133903
P 5.115946555214989 4.72355752971722 12.514338751541558 0.8195543021685305 0.646275575944616 1.1117758601779564
P 7.601380091348186 8.25735939937689 8.68871644559682 -0.6059357386749886 -0.406857534889467 -0.9981490412887196
Ni 5.346947527457646 6.265858466998083 7.047223592501146 -0.269509975344523 1.5383457858946858 -2.295699446164756
Ni 3.739820487047122 1.7176969206627313 2.8083692031720147 0.38257346553112176 2.2270306800434483 -0.5118382480679313
Ni 5.131475876428362 1.299434969917593 11.886474565257997 0.3554884363888716 -0.9587306873920972 0.060309852633650976
Ni 8.731847882902349 4.698473130337912 2.7767205578604592 -0.9954630098161241 0.6497812751050293 -1.350101953720507
Ni 8.317194597600462 3.7186879937830453 12.27051449332922 3.083943882476411 0.4050207387910444 -0.8335107643486226
Ni 3.007669580163573 2.8364666990448133 5.646664354553241 -0.08260414525547709 -0.6044349857597462 -0.6591578312239229
Ni 5.71789792611903 0.8359877038999942 0.5529616502375527 0.18576117496164135 -0.4494614856029227 -1.5191622709877
Ni 8.90241994332666 7.834950730243235 5.297274108479671 -0.12122237184830735 1.6336041295790642 1.5934794936440364
Ni 5.166783281767727 7.664573482092211 11.97759290386134 -0.2902767755782291 0.35621271614940586 0.22266807529031976
Ni 1.7027056523946245 1.344455158596506 3.6334743224152537 -1.3252738389332337 -0.12748532203888366 1.1395388892238376
Ni 0.7969566011083892 6.20311036145014 13.645385413850628 -0.6612982746056933 0.0487422024007096 -1.0723150830791726
Ni 6.2518319833214875 4.71161832039726 8.14082362517467 1.6399773800952593 -1.4943480401574973 1.424595296943392
Ni 0.41862188961197166 3.8306957741476033 10.159294925273693 -1.6363261564959175 -0.23118022652638895 -2.1425357455231615
Ni 1.801160064603424 6.686838512794307 10.066587475126832 0.20377895169530066 0.4998430233792682 -0.004789965189475622
Ni 4.125910582375308 5.764235416836353 10.853851701800494 -0.5479465637547144 0.3430628090310092 -0.6652647154526091
Ni 5.176050779911192 1.9742183007058605 6.400920888389805 -0.3675163140876832 0.4221154894898021 -0.6138794190020975
Ni 7.796832462103599 0.8411910469517153 7.1424700959431675 0.1940450122369884 -0.8892872478882942 0.2495749269834928
Ni 8.592148929406418 6.0128900917486945 9.416442330844298 -0.9879294204432405 0.20659276699501192 -0.050964149752692874
Ni 5.206951717164326 4.578858394540281 5.419092078320419 0.34459518651513554 0.03620293228311829 -0.7486746444388331
Ni 3.748735467743688 8.106908663750554 10.041048513776524 0.0772883894695185 0.46525860053617935 0.23387834218384235
Ni 5.055341384673191 8.832732810139765 8.01424017605835 0.10912378881256045 0.1863964945527951 0.27272616828897545
Ni 5.582800252982617 6.133896343784083 0.5495394479701612 -0.7025192289286933 0.5299835515183905 -0.478634250512137
Ni 2.99896796529013 0.7210085725290787 7.53384145923239 1.357607775179249 1.270438893371225 -0.9098727853491297
Ni 2.626180765194906 4.190792346154479 1.350383017769353 -0.9289951080008776 -0.07575986864013402 1.1944447972330978
Ni 3.5812247430424446 8.631538115709873 0.198345796852457 1.5830927510930735 0.360987768940546 0.743959498351351
P 3.536083956289593 6.225587987077382 2.9642394307056716 -0.24905736391712593 -0.5178525725828114 -0.14481815689037641
Ni 6.161967864687111 0.778415111079017 2.7075427196165847 -0.26484625132026646 -1.0202042213165463 0.3176469400610658
P 2.6242604727868004 4.409093413533871 9.093786822408017 -0.8086867633264073 -0.06182654638849351 0.5743659342885076
Ni 2.1954601057343788 8.113792030739994 4.014852743762393 -1.2000868260102235 -1.0928916216789435 -0.07340011015870586
P 5.58921050445122 8.215474760620392 1.630616762181361 -1.1727958515047543 -0.6854453041655421 0.12246961399184715
P 1.3116895895847769 4.037447256753607 4.451953041334292 0.8830314967865696 -0.21004421587872213 0.6955697941940536
P -0.012043109199044928 8.145973162931865 1.1621906510650661 0.6320126382676986 -0.08684440858906979 0.3920335825027571
Ni 0.9975965443981623 2.0677374686580805 13.004160816329613 -0.8963122730558758 1.1788140326743763 0.32528517333261403
Ni 4.084220755892095 4.069350085697926 7.5162313574048225 -0.009565789311564172 -1.994570301253055 -0.3640286126493989
Ni 8.92461926570635 7.261117264116812 3.1886483266913257 0.07427274257164627 -0.6809818690775498 -1.31714452495788
Ni 4.46027338075859 0.3695468226162333 5.008996472535934 -0.37560449041245636 -0.22571740363960482 -1.0851333178897635
Ni 7.068883934258078 2.8692786519311344 2.03208960567921 -0.6464514394008479 0.8396407885057603 -0.7867187436957483
Ni 1.0745381155712317 2.0704741172590033 8.195418373246847 -0.1845769248455531 0.6239103208755383 0.49649210462916427
Ni 3.1818224757063795 8.030375270673893 6.1437223037776345 0.6114612964789082 -0.6971289111510575 1.1907686339330912
Ni 5.854285070969098 7.007861308844954 9.518749387676703 0.7360721251834743 -0.02115169437695067 -0.3185511970428901
Ni 7.645454048985425 6.647709076188567 7.097365488612497 0.9951089689108154 0.05943104957312346 1.037025406638943
Ni 4.8784703940793 7.082520793388102 4.380996845338563 -0.5701698939292891 -0.5825757237928095 0.12912234342167442
Ni 6.812158465166744 6.476682453793257 2.45291101862433 0.46868356705732833 0.5478915421470628 0.17368881717813958
Ni 7.250319098111815 3.428055912365022 5.8683978286524345 -0.5516021582294306 -0.2946666771158087 1.3159057674547725
Ni 3.744097080284497 8.923394731417122 2.651970199468011 1.2474969398630709 -2.4394493096916183 -0.6152544449727533
Ni 1.5424771960043115 0.3475154098625653 1.3102025225653602 -0.1907797112221553 0.6859096453964703 0.48531320519420934
Ni 0.46114291512787237 5.789366200090254 5.769119638830882 -0.24701436534516813 -0.18058091631228254 -1.4830272158280395
Ni -0.004927822836645098 2.420830075601578 2.0914099428948103 2.746183716605238 0.6461660469499452 -1.0371526762454266
Ni 3.166580734515476 3.3834531785574358 12.804300122132982 -0.16285855933185503 0.6057128240309052 -0.7643203213958901
Ni 8.717877059875264 2.9454316972361414 4.203742723940542 -0.2791459557723902 -0.10615802131601718 -0.5444910011059462
Ni 9.098067126355359 8.27560681564135 10.196252668871042 0.7732194236577329 0.29702643559723685 -1.207354049095598
Ni 2.969671910097876 5.717526855122294 5.337300609220019 -0.037108474816523185 -0.16110069610048386 -0.024238303722074382
Ni 1.9519447641268226 0.34088344347341315 9.580988198281627 0.757767864989353 -0.3992491264145898 1.3757181116267145
Ni 2.2585885590539756 7.569393771429601 12.320994991725092 -0.14626825907334165 0.06508027743910082 -1.433689803045492
Ni 3.374324832037747 5.766740146064317 13.431933316721075 -0.26536432860726555 0.8368120608077138 -0.5457688393771052
Ni 3.5631257551766797 6.142551574782935 8.179465103419703 -1.7053119396370113 1.734903023030567 1.8056214725920516
Ni 1.7576798205609625 4.867959808096771 11.4872689655502 1.3806561723582804 0.21765390990518 2.1008100836496015
P 0.5498233172826638 4.185569521875429 0.6015116517729105 -1.3571457479411662 -1.6085091342836493 0.4165284823203278
Ni 4.5831349877776555 3.407823266268028 11.014011510056411 1.7345525816696838 -0.37204711207850116 -1.7839470729424116
P 2.8870065688001647 1.776678655593811 0.47122027572171193 1.3366057190062852 -0.9041168567019592 1.4631153073954608
Ni 6.913479400825324 2.50389431822078 10.601676490806627 0.639826992105795 0.6334493707142251 -0.37998487886833915
P 7.403868276560892 0.979015164236641 12.168466258517038 0.3854147916346588 0.017481444614215056 0.05145240224302106
P 8.318075891217708 2.5285612627287604 8.823133203454223 -0.006994171929646019 0.3957012611623314 0.19783713228956895
P 9.335496903616454 6.1623667660086 11.464160519228509 0.1903120275571174 0.06946400832909327 0.025154130668124424
Ni 1.6086762618218933 4.271435350519984 6.916092668319833 1.5423356237803696 -0.9504833597816406 1.2959468078343424
