# total energy = -340898.0201400256 ev
CRYSTAL
PRIMVEC
8.98558508738401 0.00000000000000 0.00000000000000
0.00000000000000 8.98558508738401 0.00000000000000
0.00000000000000 0.00000000000000 13.15131205225040
PRIMCOORD
 96 1
Ni 6.374715525805836 1.8335445830400743 11.423019413526891 -0.5929825209484303 0.2170479008900649 -0.2914720814379109
Ni 4.598759557704474 0.21717350496414603 5.85111110479435 0.6811469339005043 0.34222822894485583 -0.07936301261036009
Ni 2.8189937015185405 1.5647228334502112 5.004192751881512 -0.745882940626309 0.12206312258204785 -0.8030370212397976
Ni 3.3336520739993705 4.426829372303116 4.974812584263303 0.7085386956498958 -0.34649446042037746 -0.5647425522661306
Ni 5.011737049135771 4.586880614195506 2.6521331832334902 -0.38674945128568233 -0.6460562608449584 -0.4023020543083007
Ni 7.2682331230738235 6.107672922066787 2.703541512736901 0.037698800102354435 -0.436749437352893 -1.1072892851615124
Ni 4.969477842386394 4.57972808845183 11.266347650192536 0.0468023050655194 0.04289885624605515 0.3209217541575957
Ni 5.498450251939679 7.759546945451553 12.16417473407694 0.27254182019231127 0.2159047884245572 0.8092495778084127
Ni 1.8591714717598753 6.564266443598334 0.404209357485721 -0.5777222523552503 -1.0454866500324187 -0.003393856172897381
Ni 2.6335671672892924 1.5979964550944692 0.28464536495997855 -0.4223857124320532 -0.734254098138129 0.7813374247791769
Ni 0.4702300454870767 0.16667541523188442 4.772203814196045 0.4121612064905676 -0.9137595219980457 0.6877209875735962
Ni 8.390299077490528 2.1948549601169334 1.4106622811474043 1.28013478050275 1.1028664735034681 -0.819109501321628
Ni 6.953764601149953 0.5868916940238655 4.743257650338413 -0.921706287648948 0.5056663149292646 -0.44775221622129985
Ni 0.8608522997353464 7.2894660606772215 2.6930993642862413 0.08491273878399569 0.7026637249263575 -0.5127975266574072
Ni 7.479645969427078 3.8283894043021505 3.791313083041406 1.1858231170023579 -0.3937320532511025 -0.40841408074330954
Ni 7.5813538072319275 3.823375447813494 12.464642815848523 -0.2201846467468337 -0.015046609920477311 0.43677797659798323
Ni 7.98242539839894 8.776616337914936 6.7172559141566115 0.05194785382220086 0.059600228161136075 1.2834286207626735
Ni 6.706616082833639 0.6620066927101127 0.410861386139041 -0.49893773795617946 -0.3945530064905011 -0.449328045348852
Ni 1.859908289738495 6.429806148085325 9.176656383911881 -0.1669664108526415 -0.09815057763050838 -0.9920447281631947
Ni 0.13479725495445163 4.790188462783942 1.5245132386633116 -0.30319296941926493 -0.6380387898571205 -0.5824661947981388
Ni 6.508106536691337 1.8557928917603503 6.827753451311288 -0.37336968754466665 -0.09297571829778827 0.6963966609707232
Ni 3.2605992670947486 4.234717562755659 0.3384546428034768 -0.014462969502865413 0.18767587548585096 0.13554470200825042
Ni 5.933577210655096 5.567154035653424 4.736918320046751 0.15736076944207736 0.13288309601568726 0.5119264369063635
Ni 5.232530846338769 2.789718665246061 9.203432528966626 -0.0420125969863599 0.9450251648805467 0.19586612460612718
P 0.12835009764152833 5.571601900280457 12.485132645563727 0.43136143356810225 -0.28000573266952417 -0.442927798249463
P 3.936494978701844 6.116865175629324 12.486605382962457 -0.06101124957604975 -0.07484224192187111 0.539561939235445
P 2.3686541472201563 8.428955064612753 1.4411737339303485 -0.3224405047949673 0.42253997862173037 0.24965334562991198
P 6.342547131129509 7.606243877973108 5.689086628412875 -0.7714204227757812 0.637579847942831 -0.28613447127508146
P 4.507448041866249 0.9754481622564681 12.66609424255424 2.4240926247298895 0.38095161365698266 -1.2896584037224692
P 3.964485076304292 6.068495771008466 8.008267941161265 -0.570729880197817 0.33040655371957933 0.9734255704001106
P 4.655108161898679 1.133091267340686 3.7421403671121496 1.1063004388856819 -0.20403914733522277 0.6519011496615095
P 0.32262114328974556 5.446477627691666 3.606957630556688 -0.010562606007194712 -0.5536197028800918 0.641682557257295
Ni 1.3721078311368675 0.9788896413517288 2.813723655854388 0.1588368397669716 0.9731900573505368 -2.0241616417569266
Ni 1.9504021173321546 6.474940742068341 4.7876302667045145 -0.42072015180417216 0.20427003239910627 -0.4844729686811011
Ni 6.033245320641082 5.675394393829694 9.130087690546087 -0.23900460766681422 -0.22262333809531337 0.21023216351981214
Ni 8.599456541982397 2.3917021730147883 10.304763347194758 -0.5088305715898592 -0.48528775127291257 -0.384021510831558
Ni 2.157367099058374 5.230194594211438 6.885790446946745 0.4081487428970648 -0.2877385825374077 1.3248256956522215
Ni 0.6522537386370159 8.842849085724772 9.043039834840243 -0.023960110360023254 0.5321052258470836 0.398285734060056
Ni 1.605283764614721 1.2138626918506061 11.167147689190527 -0.3470665308737636 -1.1494530630137558 0.4688401472398506
Ni 4.051636266238847 6.824210435104339 1.572778410496951 0.5141031328427081 0.3597901490880191 -0.04273790518815865
Ni 5.565311990706873 7.85389558905531 7.734142000683849 -0.0603137092883929 0.33898786763068717 1.1700422000190172
Ni 5.193614277248496 2.9310349621942766 4.926232018392473 0.3972696340907158 -0.35680792653124355 -0.8695362905136123
Ni 0.9200250733280904 7.421814743690528 6.9560316642719755 -0.5218784059127528 -0.2786165656314814 0.0688508002251266
Ni 5.2283705204350985 4.6618653218977295 7.005454179467153 0.08328085960752753 -0.6830667766310365 -0.24240617714919543
Ni 8.1789311590628 6.993166391835903 9.241558366567649 -0.40242726703225534 0.8567602217948663 -0.03695318018558152
Ni 4.545762576754479 0.24160980365751877 10.399058077287883 -0.3259662585600386 0.31922379762988246 -0.29881823739033697
Ni 8.167142071404884 7.022710995661537 4.720518728671396 0.7905463449719546 0.5407860414505331 0.2629027544406504
Ni 7.205100402125254 6.199101250511379 7.003876310722696 1.0445237718985172 -0.8636698044305061 0.1127521295937671
Ni 2.4511328329000492 5.052001455991811 2.6098649908990077 -0.6125241905257838 0.1465924751819798 -0.2815237119759474
Ni 2.173568109002905 5.241049181018423 11.330815629087729 -0.19884988982479948 -0.5984684837636661 0.42373245626793477
Ni 1.2218958049345832 3.2938189752283753 3.911292209599005 -0.7543912352076363 0.21097161278899793 -0.2712886645115006
Ni 3.462388551800419 2.6679460159014803 2.8246384460815768 0.04880185199405143 0.5075578755250226 -0.6286056694686787
Ni 0.992269177573252 3.2612282580521064 8.271675875725293 0.008254783809624492 0.1990720331379346 -0.46574736724713983
Ni 3.8634331862121165 2.7328039691902335 6.929676044600149 -0.6181019417238774 -0.08157493266001435 0.6446015306763028
Ni 4.09276328926498 6.817902554360545 5.936646686527004 0.1128932831573217 -0.017249016888434807 -0.1821210071058928
Ni 0.833069769148827 7.349426870083685 11.181732192374646 -0.4063898512244291 0.07235932759901731 0.6658306152584081
P 0.20333480534375137 5.552193036453399 8.006256068656228 -0.05713068357472096 -0.6894145732259352 -0.41295079227139847
P 8.45118540216282 1.500314159416714 8.091634402649543 0.3483119732450905 0.5811402768978636 -0.42849105399884274
P 1.7030289593882122 3.2509846910322704 10.4025301073725 0.297492576600378 0.22764881633436276 -0.19425867090969126
P 3.9809646393870812 6.1890284096085395 3.740798819255955 -0.0807434378976545 0.2869549102938478 0.06860603120417216
P 6.742863933147691 3.8413915459492585 10.320742413187192 0.8791840980160214 0.12383049889511577 -0.04255998484939767
P 6.192245249076174 7.730092197476971 10.019327250745528 0.09445615949805668 -0.8096444992539863 0.19662460003870655
P 2.3997263005136604 8.431471028442186 5.719624139392623 -0.06013990271468997 0.5440701115184436 0.3098960924710534
P 6.83626909031541 4.004111506617869 1.68378902456113 0.28040116833573 0.05951666730839427 -1.5826659479683
Ni 5.372436406425481 3.0663129459518523 0.20168325480143037 -0.0504229325372422 -0.4456518820488454 0.746392790383192
Ni 1.5500044450480255 1.0577740929895738 7.110690656542784 -0.7012359913408955 0.7619340805519007 -0.5889096364306374
Ni 6.6910710206017825 0.755231239617218 9.171409700769 0.30821767632736596 -0.3355217634589577 -0.3872909256114491
Ni 2.9126055271436764 1.7277033760868705 9.16191373442991 -0.09300759997698821 -0.58868697889687 -0.30802895735532754
Ni 6.275415824809159 1.9243978340379384 2.457296045723651 -0.298408403546428 0.598232199383144 1.0119715489941088
Ni 3.9768132990685157 6.61087467353859 10.22600020095583 0.7625352044710093 0.9313738926456993 0.15007426308299318
Ni 8.137804136036667 7.266328179031539 0.39946856278425985 0.3388006913205455 -0.4212965931329325 -0.2108224888056434
Ni 7.5901237382945235 3.829180135791401 8.02502246314827 -0.10888596177014151 0.05187560582336872 0.5384707630537952
Ni 3.0890195195124894 8.252882524477934 12.384379975455554 -0.04127726148223213 0.32384612689324227 -0.42656015552471693
Ni -0.263187787728953 4.847588380435446 10.189479188854582 1.3481368595743362 -0.6603073714473336 -0.2973938462389846
Ni 8.70662761553116 2.313788164568296 5.7656141610776475 0.22417217063967199 0.08094526949581543 0.16167636609829572
Ni 3.6758501115576396 2.612433071122051 11.484488902672503 -0.06387314450487709 0.1803592872197797 -0.7760440375907216
Ni 0.9344109950813869 3.282533080336345 12.542379808268443 0.3226397652899669 0.27426394508974056 0.09685654140943319
Ni 3.136697034080254 8.411118678179092 7.8660755496652985 0.3526550807051346 -0.6367573520415357 0.7697875151580484
Ni 5.645112972025442 7.872154297988912 3.5494471902083915 -0.9034856508758633 -0.01833196553996843 -0.05266339183198672
Ni 3.135879345835688 8.539729357788667 3.5834567312727583 0.11586856373556173 -1.4065944894905968 0.11630050906665776
Ni 3.2476600245433755 4.233567407862203 9.20189419679663 0.5916907987202004 0.6148302129511412 -0.3140697642327688
Ni 7.2146341079217855 6.090510454516009 11.46893036206299 -0.49725546515775004 0.7592668181323827 -0.4596525672033116
Ni 0.7342507969552743 8.96135098209109 -0.014753432184095866 0.28432107221542646 -0.587049186183131 0.8049038992452073
Ni 4.4895577419219554 0.4160793154095839 1.6372859259666046 -0.20287598026505704 -0.7979986874849417 -0.12439588448028252
Ni 6.015525746813785 5.6698682589900455 0.3678339118631758 -0.4835034056789802 -0.1054216573706249 0.4599590427001369
Ni 7.771884153800883 8.707031966860889 11.177392154768874 0.6844281757549374 0.16722403538940234 0.6064651288158974
Ni -0.0197071852525483 4.844380526552919 5.77892360973535 0.04370232598395699 -0.2491681784633773 -0.11217697381658745
Ni 7.950472657765135 8.750926550099399 2.4243126584782884 0.29911571402609777 0.25887255023533484 0.5731192063656001
P 8.346925658188116 1.6777614940726158 3.505377388060332 0.4470263937988688 0.009508196600751365 1.0071545872214396
P 1.691913790613179 3.0275491318083665 1.5158466418294239 -0.21795010098936013 1.0663264695959056 1.183124230013956
P 4.751343778374509 1.0856024500601293 8.039633923087704 0.0009880749448821693 -1.2754520303151002 -0.3812395772110467
P 8.463576524022779 1.5028211376610425 12.429186595582232 -0.8775025965485403 0.6745834217503737 -1.1093482245730701
P 6.3191306963455665 7.7161735261491415 1.43287464752726 -1.191020087822265 -0.35980737547919966 -0.30572164937838964
P 1.8713738963326279 3.1734211204048774 6.1068246828328645 -0.8930042917285652 0.06181369087268709 0.08807802388585476
P 6.981808612263032 3.8168698841973874 5.894576177064835 -0.684147411289725 0.48339696200810295 0.4348241953057221
P 2.5121539413489162 8.372642402758968 10.11547660560435 -0.5226109132034031 0.5479828163092886 0.21929555927366104
