# total energy = -340863.0010220873 ev
CRYSTAL
PRIMVEC
9.32219627550885 0.00000000000000 0.00000000000000

0.00000000000000 9.32219627550885 0.00000000000000

0.00000000000000 0.00000000000000 13.64397655124906

PRIMCOORD
 96 1
Ni 2.6648150719840555 0.6730858794254777 12.16586984202524 1.2949178523491955 -0.2726058406610273 1.1703386482135136
Ni 8.16664482628072 0.6186526429232332 11.473124382791303 2.175093110633893 2.2736550647702067 -1.5818053997402177
Ni 4.660706625197229 2.3875543091867484 6.746441777614739 -3.4351601738524904 4.222943868477643 0.7831580229276836
Ni 3.517469757925004 2.4738219138846937 9.848453873472424 -1.524347157622749 -0.7675082322055685 0.825155707515708
Ni 2.8562743398991617 8.83899891329548 10.091972014488373 0.4005135949493102 -0.5995272640454836 0.8797093743918721
Ni 5.436154881258301 7.594588249417808 11.291155110724748 0.3045019180386756 -0.057101630108998436 0.15455929543754027
Ni 8.890224382045773 2.2930085941611855 1.7160028632747009 0.04427825309208503 0.3840811604248998 1.4945845816483359
Ni 3.3315665190135686 3.2632907532033517 12.57284244100675 -1.4982535458594908 1.175030140151912 -1.474380338786319
Ni 8.113694751212174 6.854014329770721 0.6292659634277297 2.782065518103512 0.4250383195635518 3.6096172366552217
Ni 0.8669362906953518 3.039558041646114 9.154125505304217 -1.0314952208493333 1.326795932004715 0.5334162313490233
Ni 8.639298823838015 5.102737207860127 2.613872065782104 0.30464795669823663 -0.09577822074358988 -0.7730019083302881
Ni 0.39068578979977464 8.449070085836473 10.520024895996734 -0.8587014046816372 -2.7472782352209975 0.5928719635124952
Ni 8.315809289515194 7.535597391137216 3.9914503040179063 0.6173504082698335 1.7037505086871627 -1.736301188929674
Ni 8.709299195966485 3.5177494238144504 11.771668651995123 0.23458848087698952 0.6697011539574079 0.2542335088014267
Ni 5.653818843014548 2.541491736934443 9.142541744163342 -1.3175379037415567 -0.9950426344492541 -1.9707238336527608
Ni 6.2059818529414965 0.39552867078535736 12.454290206031096 -1.7397220416857653 -0.07044102753038191 0.29731182804813955
Ni 7.107410270001923 6.556962544196913 8.284172551881369 0.4819196061316281 -0.14581600202727146 1.1708850076352868
Ni 3.7769997033314 7.315043548523355 1.5297080921180408 -0.30743708940759956 0.9544405446571755 -0.5927161546609211
Ni 7.122288495320479 5.486970173370739 13.04864920535774 -0.9146434672648959 -1.9567102929824882 -1.9159207697699516
Ni 3.6551119865142794 5.848438335480401 3.341300756405572 0.0576364195665459 -2.0012618543406178 0.8267245946647246
Ni 0.9134894746526242 0.7625099797956426 9.233738926272597 0.08449184919649319 0.9433925143731302 -0.22197824831214674
Ni 6.465222810262131 9.217731782980309 8.532342468858447 0.6960508475955303 -0.4590689267856997 2.8645583345921053
Ni 7.0635493363403885 4.724451803598413 6.57383199064833 -0.5484142474197522 -0.14484669613546666 0.18439334807983726
Ni 4.78253840883646 0.29820680569722186 1.4444873700662575 -0.9729658571548727 -0.9650823406417379 -0.19859046551582574
P 1.7447142957049149 7.905735195819721 12.075369960200339 -0.10456368024570378 -0.6194209176456171 -2.2488598601033982
P 7.734896626153141 6.824015502029421 10.711462722860315 -1.1469750337869087 -0.005277703459171556 -0.7706997425596727
P 7.93622809996571 1.4197798209532866 9.311454348071267 0.515236475116203 -0.2886924618102447 0.4141460981310803
P 4.066183555215444 8.385968138981017 13.11153394503906 0.38211812316125804 -0.5455091579578153 0.9015282700391762
P -0.07819551490888611 5.646370408158956 8.030871698052579 0.4784180207362728 -0.1906483278506136 -0.6731950260432794
P 5.535305761263417 7.753923228831821 7.321630612439452 -0.4770797615408236 0.22304037102807392 -0.7080483862770386
P 5.659244361269811 4.720648347501939 8.605433149065302 0.5027380855388761 -0.7812608059049707 0.30732473219945133
P 9.441613649678585 4.790173287618352 13.67058232916418 -3.289563486924876 5.442655924917962 0.214698683931598
Ni 4.637587578336315 5.826754906851978 13.37770036200202 -0.9093467376423305 -0.23080227436167994 -0.32795294997276425
Ni 6.076011791919371 7.8327237542815435 0.10437317438071442 -0.2659366561709678 -0.6511064216743561 1.6435442715109114
Ni 0.03777074280901919 3.5831725975523123 7.109521747467244 0.08746944376757838 1.9956488790292144 -1.7061056391829004
Ni 1.7098586036835604 5.4408066572194285 1.9177696836551754 0.5618508325406324 0.7577658081068239 -2.19629879817723
Ni 1.5765791629696506 6.57665102281395 4.446271872244457 -0.1699882283981008 0.05522755301473715 -1.9976306853459338
Ni 1.0753619559035488 2.063775786778166 11.168522550422068 0.527297262935479 0.07833714244900702 1.612011748120269
Ni 8.019866845302857 7.9987613928459576 12.351333073270613 0.26703528855178527 -0.6653721875647509 0.8846749459272636
Ni 4.373862644588221 5.732871067764773 7.1836900735680995 -0.17430176817179013 -0.1899039934854213 -0.41104483349793725
Ni -0.09642600202227504 0.652199498581978 3.5509401715739664 1.2352152942822405 -1.0425093125716496 0.09209640101662848
Ni 4.64605213259023 0.47522133042241393 3.915343893303186 0.08534699810793689 -0.3975277728481089 -0.04256949793109443
Ni 5.956352080021509 5.802787540126409 1.7140246932166823 0.020206042634229718 1.367583398334722 1.2573833457388472
Ni 5.871417549396591 0.7839612857358242 6.69021495054151 1.1139114184637202 -3.1570866252086724 -2.10497887031531
Ni 1.828455585201526 6.290133319075963 6.67882229442509 -0.11604031342673564 0.06264184320093728 2.2763598652958796
Ni 1.9587519230946724 6.405905675110518 9.804207000883455 0.07004096387848584 0.09013799173867702 0.1218245242086805
Ni 8.894587169921138 6.221344832468427 5.758699144874792 0.10282021519203582 -1.6688143589316096 1.2893377871582568
Ni 7.16026712310732 7.914209072269952 6.0277722226487365 0.321918056632594 0.09077074022666948 -0.18434269734755993
Ni 6.583642670050114 2.2726116286242175 11.12044145848879 -0.055295687248511215 -1.023504746444689 1.4345747767536068
Ni 5.096649813666508 2.259113088360264 13.556845940804797 0.71272573714805 0.050697269244551396 0.26511775981409824
Ni 3.535545496579566 0.6627112071466422 8.055908320695465 0.41557537437843917 0.5868980053172473 0.2928594487037408
Ni 0.6504571800907261 1.3072702336289406 7.04034638971264 0.4987518471976185 -0.6444927730125803 0.4740270907574288
Ni 1.476272330621489 8.16309306948475 0.47954310063399463 0.2670489153985401 -0.43743643611758853 0.8722308066266397
Ni 6.891666680686542 3.748669548730464 1.284783231678175 -0.38506152206029814 -0.42314110254083903 -0.35453275734382167
Ni 2.6524072286889435 1.7798030426341418 0.7696917998366299 0.615925760008165 -0.7788789359363553 1.0626868159607892
Ni 7.693067931288253 2.1516095204570114 6.131971071958362 -0.2949315007414211 1.9155261054346944 0.0009484799561983666
P 5.630895562276247 2.2933255488358917 4.90850272210208 -0.34005487544262075 0.45028680971769547 -0.5655385658048647
P 4.54969791147958 0.8076433932541579 10.930817731028084 0.7301295344467942 0.08032871895773908 -0.619506792491204
P 0.6889112398896262 0.9586107692559301 13.138862895755775 -1.1029693176299198 0.35233780657503194 0.3656489218616412
P 6.4536819312243034 8.096681742937509 2.723624147436507 0.1554920916644548 -0.026022906426322923 -0.6958662423885499
P 4.286634853669843 4.38935613486356 1.8586911967292237 -0.13256247945147492 1.140581985776371 -1.210578983790799
P 1.492483630013074 2.019113144233552 2.8108360906211494 -0.6304519786487981 0.1363923947205264 -0.9999835233942972
P 0.3881268469113387 7.107922990799241 2.282814772490859 0.03469626583060476 0.9145676197216379 -0.044302164351485
P 3.2672153978519183 7.919112547531581 3.905561180490346 -2.291747917716176 1.5287761399283801 0.002534079275763378
Ni 8.871701177968097 5.114884029658422 10.169606333179104 1.5920126792905227 1.1019406192550893 -1.0799962537735144
Ni 2.4265770229608568 3.991046652917472 6.109800092462672 0.6830768039333656 0.06903720520431982 -0.7280132594347398
Ni 2.765420214614293 4.335184852077763 8.490073766327495 0.5457153604313505 2.015621979717032 -0.3579826635656351
Ni 7.285687952327781 3.2158500961569025 3.5922813155715865 0.0923519686708603 0.48885001470287426 0.46724812016238243
Ni 0.8923001224288908 8.447895489100798 5.714697446048905 0.12616043257987306 -1.3140358041255693 0.48747241762905724
Ni 3.614168900299305 8.17395342819159 6.620548313041112 -0.70293651897177 -1.2849322018913933 -0.7923548589356031
Ni 8.797897349743153 -0.030165695055336075 1.034967947051521 -0.9582645463889562 -0.03245632075649249 0.11109222539284093
Ni 0.984293420103438 3.1481895953034678 13.639338055995212 2.422268169926641 -3.7836984041757744 -0.43761898444203995
Ni 1.9358566089453153 5.867287816429098 12.681858069152279 0.012293986876004633 -1.0731272945678227 -0.11835867714726712
Ni 8.835009013272709 8.599390501413993 7.882206904540584 0.03808266580433441 -0.6379351743997207 0.05404484556054563
Ni 3.1132313591226493 2.5668853996961896 3.98047994339455 0.835621125823406 -0.7112296122184977 1.767701043397194
Ni 2.166646223112921 9.273450550354376 2.518446335424416 0.5871764557896146 -0.45769904302136655 0.3597322992668901
Ni 4.311562406615845 5.123898593494916 10.236475379565404 0.03813331653661175 -0.20563991616343938 1.1895440174973706
Ni 6.9167899997551565 5.688105881060696 4.226849744263222 0.06572073923657713 -0.6984183193864424 -0.1592567009132096
Ni 7.834373783029278 2.1856821479879156 13.332907208708999 -0.728875350324719 -1.3753280752771475 0.22340392501507977
Ni 7.596704387981287 3.523883428989645 8.846945153434287 2.1098521392472116 0.4085989430606059 -1.3357300012695512
Ni 5.166370519905532 7.354523049916892 4.2737441206056195 2.1298604640483383 -0.2875028123775178 1.797255874236176
Ni 4.937818232853498 2.6458071136980053 2.802035937299898 1.698206696050798 -0.9668913688260187 -1.6428505878779964
Ni 6.74838452332676 4.434028099604488 10.827218298941505 -0.6049360937658808 2.8871827568598403 -1.1169491768487796
Ni 2.619015121489026 0.397220649416509 5.201274687347724 0.46716353086837603 1.2355654785328074 -0.6677085490074113
Ni 4.494603731258611 7.324887787831872 9.11088822657615 -0.2516886308923859 -0.11279018192055415 0.20856943110540854
Ni 7.081140320786577 0.9253333250706854 4.152776504564779 -0.7311219802670504 -2.2944863996932616 -0.7363863139897834
Ni 1.605552549116313 4.187577195627876 3.729649471589205 -1.2850563861740838 0.1789328391858983 0.6903005753753144
Ni 0.9188450764355255 2.2754455763039427 4.9902844859333015 -0.546486177159104 0.7676918089712843 0.12846696922586262
P 2.382016924575707 2.478016902226392 7.6639714921502335 0.6994943260594405 -0.8581295913385673 -0.8198852031453879
P 8.868419764865257 4.115003897316496 4.744802158153806 0.15404558902591534 0.5815102586427726 0.5596803072518748
P 5.197599877560396 5.117671366356573 5.302826965123554 -0.8283253634929412 0.16232736941873335 -0.5667950639197851
P 1.9028467117943075 8.419201768843582 8.169453604030394 -0.573529297319825 -1.28416935558344 -0.769854620950558
P 5.414079920384653 4.081369413012392 12.344483123418435 -0.6306412118414688 -0.2629197237215149 0.816186414137562
P 8.534368182117671 0.2971701774670067 5.8294844459329775 -1.1139296732961654 -0.507058824401417 -1.4188352545311629
P 2.240105130074214 4.187372107308948 10.63753957052254 -0.7665772357508669 0.6607202906150363 0.8324468418604826
P 6.476651822944181 1.4874309996104065 1.4644350057408482 2.280655921568072 1.2369163361337472 -0.044190321363969054
