# total energy = -381168.7823790979 ev
CRYSTAL
PRIMVEC
9.21442001702594 0.00000000000000 0.00000000000000

0.00000000000000 9.21442001702594 0.00000000000000

0.00000000000000 0.00000000000000 13.48623510276394

PRIMCOORD
 96 1
Ni 1.505433486451634 8.72492222545792 10.54225737377925 0.04087591227875541 1.6455921551788757 1.6428734706961317
Ni 5.798625197949094 0.363435147771581 4.928962723739609 1.8371979618467522 -1.1772646859093854 -1.2455665556095774
Ni 6.646692757795273 0.6634253290996134 7.3450619312966445 0.4613219844859346 -0.7307738528990124 0.8587703102463597
Ni 4.36773636809378 2.060583853647573 5.251836916768132 -0.8021664457093863 0.1757315586397812 -1.5302504104810613
Ni 5.259056414721557 4.77185317950847 8.979782942680663 1.9610014641586744 1.3371765039080907 -0.5529828406270412
Ni 5.206598722508597 8.65250609984723 2.7792431796613184 0.3114690933851281 0.11245568139927085 -0.24311297340823293
Ni 2.695696956312346 1.4625127187846796 13.16323920672803 -0.38254518339634763 -0.24029761544662484 0.9623302318178975
Ni 3.9812835995338665 0.9789491794128222 9.947730104791134 1.1181773928289258 0.3920436098050861 -0.13203643174467583
Ni 4.009811443393225 8.821074696605338 0.7298253599894463 -1.347104304544764 1.8586587028236894 -1.7884755569403843
Ni 7.591871088453395 2.69542052371681 13.047648916904476 -0.48454161713550736 -0.4089977211609215 -0.9887326330708263
Ni 1.2867292312830707 8.22205447649777 13.53559483435757 -0.09375527677629014 2.804373951792725 -1.9548169326145175
Ni 4.441801874857838 2.2330777932622983 7.398575596024554 0.2864748853336357 -0.30041540667412775 2.3046898225888244
Ni 3.601253281610249 8.586917859346288 4.495231688365102 -0.10666967084511307 0.03660890947228534 0.49897141940759226
Ni 5.437502869560166 7.784480106603321 8.115503532548257 0.7263356146220007 -0.755598625252176 -0.025652924681413884
Ni 5.062973560287724 5.263037044097282 12.678544136598441 0.583098429065499 0.5273545985359757 -0.08153816588480796
Ni 2.585649140029298 2.73944702176591 11.434209529608822 0.1350785610051093 0.41993982199472196 -1.6747775184935803
Ni 2.9630994203945757 5.527859470621171 8.308451641348707 0.7435586633685066 0.443339688975901 0.1663706862501715
Ni 7.184418657052565 4.562169841374246 11.598269510733731 -0.0036962179046646014 0.5005253941582735 0.6814117575261168
Ni 5.061287321454952 3.3839864759384755 11.124957013446348 -0.3948260576462297 0.03426586316140551 -0.25821203383320046
Ni 1.3198182129687803 6.9228120630567505 9.442495171371208 2.074728298960885 -2.5930804368879343 -0.6090825118340865
Ni 0.5258669409087807 8.320943630340999 3.164181097597692 -0.351204207191221 0.3346725280847849 -0.337955826821747
Ni 7.581984015953043 5.241493730485144 9.421389542702 -1.2847203429909035 0.2962718168193994 0.2779416510516439
Ni 8.383445040191782 4.559267299121113 6.1298577912246515 1.4080114244427817 -0.5705804991041464 0.5745903915944879
Ni 3.0605326959013115 4.209027200576471 13.116077963045544 0.18686803487257495 0.34608796901057814 1.0829957027214703
P 1.8983824210066536 7.268417308416232 4.432628919895954 0.0812741135901439 -0.8340257563118281 0.39393285640799897
Ni 6.370803813030075 9.029965594632358 10.110954338035539 0.07494328627610965 1.268955366847163 0.47733815740853275
P 0.2784597679036859 2.5218208537199387 5.98300666061387 0.11595135325735514 -0.17754367214785555 -1.227908476208182
Ni 9.102888513334866 6.5341754769920986 7.696432639157031 0.18774863770531536 -0.4246079168943526 -0.25702752660679606
P 3.6517483023949016 4.064148877255834 6.21580529238685 -0.2650059168265823 -1.0728483298748233 0.6397575723204401
P 3.394260554072579 5.996891869887664 1.0015309581421923 0.005998126564963863 -1.0082858726124055 0.3314637913395001
P 8.686691597495233 5.442699802356252 0.14271846330751253 0.15212986006044124 0.6124457718793646 -1.0849949925396862
Ni 4.934155970767754 1.0861681688015479 12.1214679556536 0.5401234681658698 -0.47840825054425995 -1.2940102529332616
Ni 7.376318164873947 5.115357537141875 3.1060685159220407 -4.847232398628207 0.37647609438413226 1.3846187565504542
Ni 5.258015185278371 7.016384496645828 0.9066270408846141 1.0193555001630057 -1.3144816334137361 1.5605292639702608
Ni 8.11557264069714 0.6421888556685206 5.139253292142029 0.30497885767509414 1.0003943856794708 0.4638095267944787
Ni 1.8964289639981962 1.653914647934096 9.556413043991766 -1.8907327005400987 0.007197031969071477 -0.9802562201686988
Ni 2.8039663895641103 7.711649332099325 6.668673756350343 0.5762785779301882 -0.6562766530213858 0.34537834453806326
Ni 8.389102693980428 7.4155900222798214 9.780716902103912 -1.4525105352964212 0.639903353869685 -0.20613562485293527
Ni 0.37178341215678085 4.681948085020176 8.843005015851228 2.666370503831337 -1.83266279298056 0.6444603771127483
Ni 2.8020221469755042 7.7812182019759915 2.2263881244503168 -0.5474948209292764 -0.12924215682899032 1.1945317005199492
Ni 6.402049910745542 2.0882178987813633 9.524221546799563 -1.5648638867898728 1.4372240414509956 -1.6744224491470066
Ni 6.313204474540137 5.206525007149787 6.713542452373845 -1.7922782185159263 -0.49709657098238264 0.5111741321213713
Ni 3.3680547440157267 3.568505233459035 3.849524767197388 0.48112770635795205 1.100450664973124 -0.6618983700835375
Ni 0.7057499238021945 3.946333305038212 12.995201360553352 0.6026041031985945 -0.5735154133627542 -1.2209613554663876
Ni 5.431218635221639 7.13208075229767 5.786134130398788 -0.8449830266542803 1.206056156219781 -0.8229515007755376
Ni 6.001904514286725 0.732313253349274 0.7341681160653234 1.063594158266407 0.026443796013825425 0.10591479495695953
Ni 3.8256796915064166 2.0937096930126873 1.6372558982850864 1.4120976786970132 -0.3294927836560584 1.1185684576197572
Ni 7.446421471101983 0.321543630802007 2.6655547460950553 0.5093363075816841 0.04614358843559795 0.4334607392992922
Ni 4.9792513415195945 4.318688011225768 2.1303803196945634 -0.35282451640346335 -0.7938538120786328 -1.143519214027824
Ni 2.357140742139043 5.545551156735502 2.8506936340716016 0.07659393450565519 -0.2668154592314953 0.46191668064714
Ni 3.968705916436959 5.728586392660016 10.59590556903699 -0.7216083843496605 0.2560132264096688 -0.0636322321386646
Ni 1.2073285754251604 8.950675511812662 7.992374004402439 0.8479791331681267 0.07791908107498194 1.1702296334394748
Ni 0.44325690261669215 1.3244069940546848 12.141198792881005 0.83634874801805 -0.11075232555491894 0.5559797184718361
Ni 7.315502993855936 7.059664626686979 13.046057586596172 1.4164155893460768 -0.5218421533581787 0.09951300519567377
Ni 5.17960047234454 2.82445925931321 -0.10380596827583599 0.29145588348799484 2.2560959728405208 1.129988269420925
Ni 1.8033725379207863 0.6948879656815834 1.639507902496723 0.008576685925417486 -0.3467112044168738 0.861279964042091
P 8.365578280100278 8.446840248768135 7.628825519266689 -1.3104622278416977 1.7232672385638514 -0.14984466357069032
Ni 1.99164156432079 2.8427867403972744 7.509081368974208 -0.2607255442836735 0.7059148848738036 -0.8660246778159278
P 7.030353557140268 7.2518313526840465 4.022417691191671 -1.0268929461906315 0.5724286080564787 -0.22464011141502602
Ni 2.6945727970904985 1.4781035171729335 3.6732188220902153 -0.7442361490515053 -1.232235128607994 -0.10389185098965979
P 6.175531827543149 7.027570802345202 10.23263996659067 -0.8044045910112856 -2.5528886951603966 0.42993344287232405
P 5.709475685888598 2.0302868411767814 3.459286714962596 0.21839001674025613 0.49076240123423864 -0.8002571445018154
P 1.785266202913151 4.557986494761795 10.701206116212692 -0.2928849026250375 1.3109137135568196 -0.4333370692372343
Ni 6.805346638793475 5.0965416918056965 0.757627107564529 -1.033170294558911 -1.6664175765646592 0.5115469420797577
Ni 9.051674767801819 4.274790515054585 2.214372520964334 2.195451876795903 0.002186466128357525 -1.580440143961575
Ni 8.753192065561445 0.5788609123570824 9.44794365782923 -0.4102341646711838 -0.32240965155703183 0.9085946899676547
Ni 1.8464868084046167 3.297020781382718 1.9030292529376207 1.6202966138368804 0.07469131816630362 0.4469240638930497
Ni 2.2078118540302696 0.8045533835408064 6.168644048704366 0.8273277754663623 1.3368265767678396 -0.6130096148026346
Ni 8.798812658244804 2.345982079699223 8.067317645378319 -0.40297774021908667 1.3677754597408702 -0.6922556422191561
Ni 3.582041216220468 5.852501910819141 5.153926334313102 -1.5295680397020561 0.24266688700974984 0.1072276002311121
Ni 8.471885041923734 8.60172543204719 11.769437495331868 -0.6375680208682891 1.031788583720036 0.6530648309523075
Ni 0.18607875880137004 2.195787036124435 0.9534602512203942 -0.8074042970695579 -1.0753137606961802 0.2557687144990305
Ni 0.41708610735527424 6.5397041289028275 11.652484392812317 0.639225353966054 -1.4665374457031326 0.9943546072432938
Ni 5.477124874920388 8.03230192850172 12.403277165173202 -1.196000828866308 0.18415963480247638 -2.3501268718757014
Ni 3.616567647402967 3.457314829114436 9.16645879588839 -1.911627798821553 -1.4161415097490835 1.6617919048671894
Ni 5.399843535628256 4.290934178633911 4.558900565211035 1.4813292593003262 -0.4789075587781817 0.7398125660625129
Ni 8.986445889675075 3.0322167836985314 10.742959416884498 0.9150368460485725 1.5168279664275683 -1.2855562086286376
Ni 1.4443050251586809 5.307625621757306 6.647715558398756 0.8506355969543674 -0.4805507508085595 -1.7201184085222245
Ni 0.02358983626109286 5.938997669962487 4.000934271308566 0.692045325980563 1.7562177253479432 0.9686566882565576
Ni 1.298532903112476 4.086337200257557 4.37858911179454 -1.610761934873568 -1.6356733534032668 1.1454269725734985
Ni 0.9222344252286002 6.507785378538222 1.161844356155598 0.21422817205308264 -1.8269837403179114 1.4723766780927288
Ni 7.853145963334567 7.017831160562468 2.071175829266543 0.16552942129579878 1.6129998230651512 -1.2746305628550694
Ni 0.28569953758078465 1.5202963456716423 3.398828141992826 0.5025100286884701 0.8951434495587551 -0.14210178640047783
Ni 6.562279457538302 2.671149741828712 6.081631360607369 0.8395140331199089 0.4225397215114142 0.24713289320090343
Ni 4.944024614428403 6.233822247521929 3.3668522622251427 0.7267647317396194 1.7828011322634263 -0.6219328854341933
Ni 0.534302742282567 8.44665596037111 5.801171142153983 0.12351425320627761 -1.3861205379069612 -0.5968600016259658
Ni 7.694869873550266 6.9110083912273454 6.037638955911718 0.35119572255078874 1.1211038224471015 -1.2159181366155252
Ni 7.179645587569636 2.8702825692332974 1.8802235638058662 -1.2048654783457895 -0.7465899939956626 0.949880436090319
P 8.183206482405051 0.4428542324691941 0.5460723207585226 0.18475947317000438 -0.6445408526416964 -0.5536230453142014
Ni 8.0275841455379 3.288663302577667 4.18549357227647 -0.08059045725955798 -1.7028223404459384 0.4373400197490403
P 6.943710367279303 3.6385532531679634 8.072671223311874 0.3410162109146256 -0.32099451637706006 -0.6522814158190637
Ni 3.0667524293008808 6.776689793056199 12.516682716050033 -0.6068924461613032 0.9547153955851171 -0.27551221567454487
P 3.224328223176491 9.035282314886508 11.84429912797107 -0.035519275952532375 -0.9204472184308663 0.011775909589005526
P 4.598963019840143 0.06028626331855245 6.608996566183956 -1.5894441472323981 -0.4966322297514543 0.8367143588875847
P 7.5642554721593065 1.5582781842983464 11.077822491581435 0.043940667247008194 -1.376212791874946 2.220943593309104
Ni 3.4707218099979524 8.107252019571494 9.128670460078562 -1.0511968130433187 -0.7886555557071451 0.27921614688869334
