# total energy = -340895.2506566699 ev
CRYSTAL
PRIMVEC
9.03632281602043 0.00000000000000 0.00000000000000
0.00000000000000 9.03632281602043 0.00000000000000
0.00000000000000 0.00000000000000 13.22557184676083
PRIMCOORD
 96 1
Ni 6.383149859969664 1.9741021476278655 11.489873968836513 -0.1527340693033434 1.0004501786180706 -0.7400316240518545
Ni 4.5670568496026664 0.44340783259877214 5.993511761464285 -0.42705380733168385 -0.3622257551127052 0.10108369211690334
Ni 2.9697693550560174 1.9454660412582163 4.571312957554735 0.1398592702232043 0.3210654788243116 0.6156673641404558
Ni 3.2508803153126986 4.487790227616372 4.839104378275643 0.5417432631574799 -0.4515908732410997 -0.21116136020230086
Ni 5.085732731430215 4.631097267981241 2.7236479396001947 -0.09580933109184143 0.3896985066116772 -0.25572449152465637
Ni 7.249651871926763 6.026314516192105 2.4217209065656267 0.4858940173983439 0.18694876751183934 0.8018368302841095
Ni 4.848276245730737 4.305012530065442 11.51731728062087 1.5954620712917038 1.2239163243296536 -0.626750875648127
Ni 5.720145833321655 7.588631442215389 12.359468210392759 -0.052979123300192624 0.6896374878700188 0.1250430311459782
Ni 1.8216955303888294 6.458458572650212 0.30231107674574187 0.40174592469451453 0.75038365671014 -0.22459691688191644
Ni 2.6657332443229085 1.4262118347832524 0.37901861216722477 -0.24498036563427486 -0.0454704736279733 0.6883380523323048
Ni 0.5917815390543516 9.022388606382881 4.6280773289630215 0.4313485780522958 0.9444854903269928 0.7760900603373085
Ni 8.673098591989563 2.5076518164811143 1.3860797187817102 0.6126087798197901 -0.47150560988715573 0.5759656746754598
Ni 6.749527560429566 0.9223464857230921 4.851867280338278 -0.08421108473128078 -0.4405168748151252 0.03714704136394247
Ni 0.678341377023903 7.5688238230414315 2.481117558751914 0.13362305950550535 -0.828826985719708 0.03604789476249276
Ni 7.638466761441838 3.7775533426552803 3.850426766390856 0.06345251202769071 0.3066963545868331 -0.7619312523384233
Ni 7.521789763825898 3.781619687832416 12.734241558195055 1.3520986724355617 0.3552174421156721 -0.6272895217604164
Ni 8.100448755177503 8.620100559847565 7.053686565150252 -0.41100626695051795 0.6859430697375671 -0.10060623825985254
Ni 6.706171284518687 0.6754371029351667 0.24544911305320305 0.5665862903430887 -0.22488873709072235 0.6271671372499391
Ni 2.0154794688858724 6.5309750616424616 9.282962716230506 -0.2490709907638807 -0.11496816340847943 -0.6832652657950878
Ni 9.226627570146471 5.029978620890381 1.273340750561761 -0.4916581735756307 -0.926728680564204 0.2723459021314213
Ni 6.26743974887362 2.1050023170411634 6.964242333001719 0.2170327313814133 0.046930346002951435 0.4382244792365227
Ni 3.535090734226618 4.263337010161112 0.4060580003306523 -1.2757189108232416 0.2183815320998239 0.6907232647350298
Ni 6.025880772706544 5.695115219675732 4.792854671863165 0.21962774580209918 0.7959770290692226 -0.42948941335637
Ni 5.083500759744099 2.7938592626931382 9.487271259678236 0.6634831980721542 -0.8482871513268487 -0.5468232487835485
P 0.3643644077810903 5.354355493831782 12.295060013683717 -1.0778779218789307 0.338889651489926 0.6254876926649873
P 3.951077845847574 6.1368377781066465 12.52609709579689 0.34824358190100024 -1.223111826150487 0.5190532777591319
P 2.3100726224854116 8.46771201525376 1.341152026367933 0.516192154161253 -0.2780023290862503 0.2944944132040025
P 6.4315212949323435 7.934532835627762 5.783515756562133 -1.182702569095505 -0.7031944006188471 0.33474580452488156
P 4.640729987889745 1.0399722972136964 12.737958197686956 1.0358162168221903 0.20523111076079495 -0.1980299650266654
P 4.065739743520178 6.341564703291493 8.243644648774197 -1.5847161456291097 -1.2902163331084682 -0.6079941638659141
P 4.8397640298266005 0.9899291425670831 3.7090453663754257 -0.29694853117144987 0.5140023455987857 0.2939565384226615
P 0.18870823608371673 5.658680766888598 3.642335618296127 -0.10370364623825366 -0.05463259974321559 -0.512163492617834
Ni 1.4259859267178558 1.1595138090988626 2.627484297954511 -0.8016938769483418 1.0774729731310282 -0.8243728066030964
Ni 1.8509551430189726 6.616467709911079 4.90490145777074 0.3297162125207741 0.10343368040631863 -0.6522289653145734
Ni 5.973072503339479 5.583697361822221 9.084697665348259 -0.014179119713859451 -0.5356438351279613 0.8986465776160073
Ni 8.461937805102227 2.3727485561489923 10.127323026881971 0.7107069069458083 0.08207886887962638 0.4150336429423562
Ni 2.3942278950068836 5.011969229916978 7.014314403880703 -0.08064239354341596 0.9796676946550806 0.6087978907141322
Ni 0.6553845994183194 8.880653886153171 9.240944719699034 -0.49173042157446284 0.2909100382868538 0.13033127612811102
Ni 1.206782812702408 0.9050328915911109 11.568340876271304 1.1137409543241272 -0.2096228120705874 -1.365276090357784
Ni 3.982976064681547 6.7841186034030665 1.3814639651895306 0.25836861401572275 0.35962894091980646 1.087731931854875
Ni 5.644358195542466 7.730709542704501 8.09814991470403 0.32862015124311794 1.367568743046703 -0.5366355096172694
Ni 5.31377336896397 3.118028300214376 4.739938870256972 -0.10829537937399414 -0.5289592240189341 0.018333508201865197
Ni 1.0824249408629907 7.349557454767673 7.158723875604706 -0.31292562332599655 -0.08664874763849593 -0.2984942783920149
Ni 5.0004931001948405 4.682179599728678 6.80134273794115 -0.024225962426900213 -0.34526418755770216 0.7336709719411494
Ni 8.080026666065667 7.057241454467329 9.096892182718358 0.30244426417869846 0.22612183816687512 0.6169359464402343
Ni 4.704056536781667 0.4521034858520109 10.634192953211903 -0.47203602846932896 -0.811425502413809 -0.9739873564408517
Ni 8.27428952966135 7.238103451623698 4.958253713759281 -0.14150554757737566 -1.151938548439771 -0.5559717480520361
Ni 7.311514536554917 6.053721682685998 6.9989589808595785 -0.041069516346800235 -0.2079531376776483 -0.5609306347192081
Ni 2.238911581885541 5.314595674322013 2.7036107978317947 0.2734237085766323 0.1418631880271105 -0.9035447862485729
Ni 2.3941736770711883 5.163815595153832 11.32036159288566 -0.44869735374338854 -0.4294804144953055 0.24288465944751075
Ni 1.1056482899857418 3.427477168194383 3.74439726771318 -0.5629682339745272 -0.0358666319896221 0.07398992122390484
Ni 3.9983107041606556 2.577150173719667 2.354905433511722 -0.8349135582334201 -0.1601010511913759 0.09917439090933243
Ni 1.17932142827282 3.182954278209305 8.221174025325347 -1.0457062222423927 0.4297575794160921 -0.8013863730102522
Ni 3.5456541953645546 2.7134992456703264 7.1167591933766685 0.32451435660486044 -0.4248480579296167 -0.10560831946013424
Ni 4.190043397423899 6.930389557585936 5.9936174864388905 0.09719644124735519 0.4149158864175694 0.04081394869256842
Ni 0.664370318627527 7.289809289631629 11.27726014127255 -0.07622909496706871 0.3081827093243725 -0.1361946768874235
P 0.2521983424149863 5.514208040906284 7.9981910175596855 0.5010025909050081 -0.17220014844775505 -0.13294840203598393
P 8.496248722074634 1.492556515428871 8.085069837717576 0.047124721401944646 0.41981512349139954 -0.4951168215481925
P 1.7807158073259197 3.249624266469094 10.262500991421614 0.6073153926313347 0.10921274898194094 1.483690046223019
P 3.920056150307338 6.322082391731706 3.7809663617072893 -0.05501260879045364 -0.2617285316268912 -0.21766445142814128
P 6.823444679427274 3.9490898548720854 10.309901925335353 -0.008806028327404188 -0.00013626846754815242 0.33116374360057804
P 6.398936315579565 7.781999709872103 10.311514908922282 -0.745783181823651 -1.2083171843398157 -0.8679959426096857
P 2.437945623822397 8.549960623703287 5.839381013870143 0.24125432293293936 -0.1699542898363718 0.11189466668947826
P 6.945913959839976 3.8031713172712336 1.669251864227068 -0.5376534093588224 1.6605238367880435 -0.1156623612620266
Ni 5.423573725069243 2.931301729680316 0.3684786454680897 -0.28385493121228533 -0.32020338793433245 -0.06629640923438905
Ni 1.4687819506265525 0.9120360416183998 7.1826095871752 -1.149665179024562 1.5736431756443996 -1.1803844624852897
Ni 6.808435347562336 0.6465787030291672 9.225166396779487 -0.039450235575822376 0.30242086713993077 -0.6605223156716173
Ni 2.7216048270567494 1.6158390648770016 9.316885974962691 0.6480419238164193 -0.831120409739575 0.40400181060822676
Ni 6.398647153255858 1.7410824963327731 2.340966002244502 0.44159750947381365 0.81271516775951 1.231155265280254
Ni 3.9788012836330213 6.973185581494633 10.540767317318824 1.8520723078554233 -0.4693546249824239 -1.5854579088911402
Ni 8.083803848919095 7.233422636508684 -0.05165342733675911 0.746806737992159 -0.29724395092468164 0.6572819543574486
Ni 7.710531434303293 3.779297352920141 8.091828103401976 0.23437405087333826 0.027597450002294403 0.26051214272128687
Ni 3.4311459151764203 8.240213557076956 12.411802072822491 -1.8605212099537247 1.205672290517801 1.6311500116116164
Ni 0.2070456455680744 4.835191650582977 10.122865408935569 -0.7845016814397715 -0.14606668458549682 -0.013798853556305267
Ni 8.621275281787625 2.3724322848574375 5.837938816780652 -0.00019463250930934223 -0.10947217329091469 0.8505713193753351
Ni 3.527229133550823 2.5079771240952855 11.647205381901191 -1.0498264150583534 0.14636004745619954 -0.9654320106716728
Ni 1.2006110043557783 3.124796505853652 12.518915930214071 -0.5231256480562926 1.2345102977954159 0.23510270150924673
Ni 3.0790636770948026 8.61450707614835 8.119046410753198 1.6538837057637064 -1.4018909133673405 0.1123554083759807
Ni 5.507141636620684 7.793755965595333 3.2943974377661402 0.11213480772474237 -0.05670413756026363 0.9799440882449186
Ni 2.8629509854139776 8.821655735794245 3.700131034114883 1.8879042299523683 -2.2533081256827385 -0.36031079747817946
Ni 3.5240935296031206 4.383465883016309 9.159356666432727 -0.5011031210386144 0.4781714519431055 -0.007390636037116305
Ni 7.17572571660644 5.903104257324901 11.443783301702075 0.39456689044757215 -0.9950380064635638 -1.1478970313805457
Ni 0.43510706664384635 9.201687319726707 13.676167044129922 -0.6926976148525812 -0.6832079301945911 0.7867429120654644
Ni 4.536188771546899 0.18496629488849053 1.555921920508042 -0.31230855856728795 -0.20328144323359182 -0.08356239540368834
Ni 5.844639250000309 5.519512362281792 0.39329419463575493 0.5982918489764858 -0.42052551929486287 0.05396462714191351
Ni 7.800551280202456 9.018566241916375 11.31218823907962 1.4113302044033693 -1.0341974502718445 0.2939552528710808
Ni 0.2986694387315517 4.8270589602287055 5.75480284145025 -0.7816901801329053 0.09758467782470936 0.2687381301755049
Ni 7.762119800117218 8.846261642277222 2.937664204434141 0.11827974428021563 -0.5845454459246707 -0.9862132090830821
P 8.539406198887965 1.7269858330520371 3.7210013248284657 0.05461228802824143 -0.5967802974279657 -0.9601810466853786
P 1.9310621430085408 3.1756529295356932 1.6561455819050297 -0.1296080248088413 0.5658059605336385 -0.33974660017358266
P 4.883264886899333 0.9100570869655271 8.231119401996358 -0.8862230071406737 0.9507427840906142 -0.09466287619222406
P 8.459886559868428 1.6758583196915209 12.443027989253846 -0.6959899124506078 1.2071517032768049 0.6140437124941037
P 6.487347696053106 7.80106635059156 1.2521352122791305 -0.4622133859519523 -0.5995390911200255 1.358469608958912
P 1.7004009719161872 3.0729189777160197 5.951732323849872 0.9390231816608409 0.032654295699911504 0.20622972722863836
P 7.011463444095401 4.04213686884756 5.937448608690987 -0.6837851428542998 0.17459076016711866 0.6432329324635503
P 2.4333822809013896 8.515703924666573 10.44493440508088 -0.18116198562673316 0.2521051496045142 -0.8122284579310786
