# total energy = -340871.12571708043 ev
CRYSTAL
PRIMVEC
9.21565994441761 0.00000000000000 0.00000000000000
0.00000000000000 9.21565994441761 0.00000000000000
0.00000000000000 0.00000000000000 13.48804986183872
PRIMCOORD
 96 1
Ni 2.033619628958876 4.40733396398155 5.878537547252335 -0.04285051950662297 0.09042852639590232 2.722124361663189
Ni 8.251038179890752 8.185736015161506 1.7252701059098718 -1.836887886805501 -0.7603860193384904 -0.4105234137768285
Ni 3.006221923793071 5.31825584835387 1.792750852595368 0.6821702329586962 1.3747125531803355 1.2452788491658295
Ni 7.503344060362405 0.6286231882011932 3.146222539895358 0.07339728194522843 0.9543826948360465 -0.9439188191902453
Ni 0.017998183420295848 1.663306774694796 10.033935649120538 1.6103958097834008 1.3073396230523162 1.00674346782595
Ni 2.470174645242969 8.987664292103291 4.570115690895394 -0.9660375054661556 -1.1889184680982299 0.8908396799770787
Ni 7.19061064798773 2.2088185357705727 9.390325955093392 -1.8267284297739956 1.0182514684655497 0.5330143679249143
Ni 6.98386653797702 3.6056176472131747 0.450936974832846 0.43393022273654297 0.040553238832014026 1.9106530936131096
Ni 3.57166715682896 3.5686997144012413 7.563963748391266 1.2982147779329127 0.897168450408584 0.6008022741031653
Ni 8.703665306715038 6.5889386566184145 10.224939412340738 -0.0782929194746329 1.2092492092357818 2.120853632564038
Ni 5.956790478576839 4.662967148771917 3.577030670782167 0.8934524350095774 -1.4419345595527877 -2.0100966790234285
Ni 1.0471201192768538 5.41521380419869 8.96518269023242 0.5137259520089476 -0.9139937494960388 1.2767339823513175
Ni 0.10415354294905253 8.97164747552138 8.80710279290436 0.489963302371711 -0.35351382916100405 -0.03887122314390079
Ni 8.282141031423523 3.037767126992084 6.031882438619644 0.22874050673664476 -1.6517129233646328 0.24308006328776846
Ni 3.557622491425719 0.8599694233828311 2.9570932418608655 0.644301997158013 0.926444573664882 -0.5994442174133741
Ni 2.3739447265155094 0.6708318312545968 10.232978232308751 -0.8293877433191846 -0.47745102883731316 -0.33407757481326333
Ni 3.4395238121983294 8.435342158499301 8.63171772976645 -0.7683368987544509 -0.7672256679681433 -1.1292961284499068
Ni 0.9879832308958816 6.427249906946581 2.5019788084799295 0.007445400534451694 -0.6899480771319021 -1.4538606215664123
Ni 2.5954707547065343 6.297585574778857 7.400650277911956 -0.3610751864480297 -1.1170594771743987 0.6130070436994733
Ni 3.676393913812187 4.140291792465978 4.108661805197601 1.2387227932148668 0.4443858708522283 -0.019683851582172552
Ni 1.0342274113377887 5.470775016610858 12.016476562551851 -1.6303136317532505 -0.7277810888192756 0.8181054855371459
Ni 8.900060230867586 7.268860814614321 12.683487581289267 -0.575676425569815 0.615363716857108 0.6257188348391869
Ni 6.99698963740892 5.216376730222089 9.609102030425936 -1.130498376288124 -0.3389636992609711 -0.0823190099148905
Ni 7.640998369501657 5.043325072123617 12.034698686503184 -0.35057017315164785 -0.35838529832069244 0.1909398909491034
P 6.4093991740817 7.765216246778753 9.62326465627351 -0.40493254995261224 -2.03546883923963 -2.486271412251479
P 2.105391186806937 1.261780480981386 0.00762135058299266 0.26935339516200063 0.306682213519446 -0.45168471850648656
P 2.736516426620322 2.6349506409187957 9.267234231433276 -0.8405437599360039 0.001355228476313795 1.599924992159064
P 2.027850625978279 6.699600298457078 0.3022487563187245 -0.7351964074467402 -0.3481960164925164 0.4560406814823372
P 1.5494657302550034 8.177174667287746 7.326330590153137 -0.2468287316969233 1.3601935336285542 -1.004066178104103
P 6.5542969917556935 2.150262233951546 4.437945620851594 0.6074354631489668 1.2115318346223716 0.9188989001071399
P 7.278187062244295 7.186841443164944 6.112204285549811 0.7391669620587141 0.5697055526983608 -0.2825477823650876
P 5.869564259389385 3.895625242734572 8.210715060814714 -1.0177606448720602 -1.024069360698907 0.17494711506527288
Ni 6.219012860062297 7.038091479730743 11.621627014300808 0.546906295415658 0.3676024460435863 0.3429422242927449
Ni 8.48369672501558 6.989322208527361 8.051663832952858 -0.01687183605467417 -0.6851290584767039 -2.375107967301071
Ni 2.447964905333644 1.3484353292666096 7.497750154916363 1.7126737793187212 -2.6890412059559754 0.9003707593959654
Ni 3.429810506860392 2.065091106880182 11.788771434522983 0.4358906888970235 0.36022517974290863 0.6225936589466439
Ni 5.618806158587413 0.2430574955454433 5.0332136502860605 -0.02723209624307568 -0.017727756297066244 0.8316685689335612
Ni 9.235657694991238 0.4924986785743679 12.444951288399224 -0.554818094063567 -0.2864957112692421 0.32174759249300067
Ni 5.673906588013911 2.0290947400395902 2.3981081862840785 -1.1810470357699532 2.3976328878764646 -0.21846920671762377
Ni 3.457328466764644 7.8264819525535225 1.5874895422325461 0.08779880208253912 0.17370758623121696 0.46087358409460627
Ni 5.6845875376217565 3.8088690221925012 5.775070570951931 1.0467056100411845 -0.14953458852943924 0.04711495120993176
Ni 2.5495952006531635 3.073367220464999 2.1160325090780154 0.0039684977294447785 -1.313053642717958 -0.773255676212307
Ni 8.108029572458006 8.933890917675525 4.9954073278777535 1.7493407957224518 0.6418530213968882 2.573143331644375
Ni 1.325276376406802 4.33810592821439 3.926209252625476 -1.481876647163364 -0.03707247937226518 -3.6400305588397566
Ni 1.9165807505985288 8.494515909519128 12.408924509881578 2.156914639952653 -0.955262783448155 0.7716862748426581
Ni 4.923742671682368 6.221786773636034 0.06518696898282779 1.159938793036428 -1.0502182511801332 0.99321123766747
Ni 7.8547740278737015 2.181143909651193 12.135683885642765 -1.5466820736745235 1.0875416702209397 -0.41348403906704917
Ni 5.763132605359177 6.802520786136476 2.4782263671345786 -0.84745359968196 -0.5307988483308342 -1.2814069623469544
Ni 7.335877092050262 5.030045306476589 7.1493410806591235 -0.32318792448395306 0.2994234750745037 -0.948367084769586
Ni 6.006693275924972 0.7809764745833392 12.77124093621233 -0.35296566996701795 -1.5856180886180886 0.8476348624548304
Ni 7.207300207728721 0.0990379302421369 10.620800840028314 1.8662025766092183 0.7401149277942802 0.9424926282666801
Ni 5.714271177558659 9.063785641336082 1.733835140047518 0.577619922449431 -1.556500859537158 -0.7536736403153215
Ni 1.0404203346652023 3.000913703798145 7.815299671057267 -0.6065656589495038 2.2792145611358556 0.09638834352376302
Ni 4.5559917708186175 8.635073151468104 10.59568540261135 0.404629931110529 -0.08594915046831005 0.2806413093709941
Ni 6.387834530352313 1.9240177879872533 7.1977896469044795 -0.26168816530725897 0.5959359471497995 -1.704784863488948
Ni 5.590652318162936 6.477548977662389 4.89562200763286 -1.4726204186724188 0.12179264252948058 1.4324908976413846
P 2.4791230508246933 2.349965579941208 4.221638420756276 -0.9123798680416997 -0.8249623605579792 0.36236845133815654
P 7.337323950625267 1.2903490260929664 0.8756074763505219 0.7215497631975831 0.9918089580033048 0.7651181347068372
P 0.6037888284054875 8.26847420806853 3.3852039491495582 -0.5708262965663653 2.3828721846275216 1.7731219573024495
P 0.5450979779546447 8.338448712272475 10.890966198620763 -0.7392397242781784 0.5924405324020313 -1.520262446030414
P 8.459809735038414 5.076234192960214 2.6653595532751453 -0.15540210305380978 0.1237058003917934 1.2823207324104755
P 4.127196340013217 5.213215758940389 6.174437635594489 -0.7026657818088866 1.328019777109487 -0.8670109529885971
P 4.890004141471562 4.205280624764967 1.3982247740002665 0.3216074673707106 -0.2504005082085817 0.32763361896013254
P 0.18079373382371017 5.06604167331718 7.043000661660079 1.7086569448498445 -0.7486504760691172 -1.0643181809166251
Ni 4.134172594416271 8.350300050663925 12.850104865775833 1.0273431463541725 0.38185252820469723 0.49035822381728456
Ni 3.059064516589782 6.575465362117403 3.946252390936179 0.649990562902358 -0.04841412963732953 0.4103341805841579
Ni 0.5493814165894391 1.7923167950228662 3.3965604066143973 0.3497463916987719 -0.4688555738588183 0.7512519182477062
Ni 7.753088438595901 3.083181898059784 2.6471918017161227 1.2332854242493794 -0.36240804632684037 0.8812165550650177
Ni 5.774569239063522 3.210874079048836 12.209341889034162 -2.5752788899301384 -0.007900742904315425 -1.7122096951981094
Ni 1.0214452913152847 1.0744906286256908 5.7629713313141915 -1.1413103793019634 0.45269233383539453 0.2346195912252411
Ni 0.7779343853119415 2.7121870849769114 12.2599358608608 2.2695567263311176 1.6533789982131462 -0.2047639413163893
Ni 7.825440583005907 5.819652246381539 0.8217502394193642 -0.6426132966016804 0.3410612052199481 0.04600449175457238
Ni 3.0491945450367166 4.186333228394189 13.381021786563478 0.17679882356203097 -1.4369116524168997 -1.3468394809191515
Ni 5.849262161040735 6.814243105291937 7.666162649915103 -1.348016274836072 0.17913364234279472 0.8401737781910951
Ni 7.081773706772321 9.019965179398804 7.639064924093783 0.3452880988171021 -0.9848880625137556 0.2998075978867998
Ni 3.9605679967349947 2.1135286143338807 5.802868686911471 0.03734167387325182 -1.074895442211839 -0.931385462609925
Ni 2.542489927014122 4.243193848825948 10.790897957622665 0.018168957599542904 -1.6866629570772564 -0.7151384603546006
Ni 0.3332834119696146 1.7478420212459345 1.075473939517112 -1.146664701635341 1.4847007468757205 0.030968166246740217
Ni 3.1598101085768144 6.138578582083627 11.985602259379974 1.96761511282045 1.1781108359597647 -0.8364186820240369
Ni 4.135075729068186 1.1821663967172098 0.7360667216679343 -1.4112528141982148 0.9690444106132796 -1.2224937329505141
Ni 4.1704454310482655 5.234374913642385 9.32017451022295 1.2687121404881052 -0.439452695216669 -0.2765537695651818
Ni 3.972852471132974 7.644269928699918 6.254489463695052 0.32004423664864884 1.1010445898033812 -1.0286443816640995
Ni 8.459026403962772 4.9284795207750625 4.816285314726057 -1.3948476333673139 0.3905749956793596 -0.04002821956647945
Ni 0.5505370603175012 4.358288222986765 1.091347913373466 0.6361374590693496 -0.6496933433769133 -0.598040395087312
Ni 1.0668416310635578 8.719009380137871 1.3135577435152261 2.641301476677851 -0.06424389758073451 -0.9651036807979766
Ni 7.536538866650119 7.076271957923414 3.9049791373436866 1.8726907554367231 -1.1347226987821168 -0.9410697797772245
Ni 0.8074060650754368 6.698503634951182 4.886517857401978 0.34279130053717743 0.7677442594757746 1.3910375155926045
Ni 4.717966205941567 1.5217818884759104 8.855835201468887 -1.0309141515348825 0.810285989492727 0.7658781528013132
P 8.987360175332748 4.207805715526442 10.589979987682776 0.5302815423747835 -0.928488343567788 -0.37769531150321406
P 5.439662949418375 1.361834898489912 10.856180769466514 0.14628985633989644 1.9623425515676012 -0.10439373032674279
P 8.69829257710212 1.598419314652654 7.782483628383774 -1.3295243866794715 -0.6788499103362114 -0.548117799225256
P 4.696392346552466 0.28405888717638966 7.1527259924718605 0.8073096804732225 0.03130549498150092 -1.3443943618127687
P 2.8184436414725647 6.749890153513174 9.893295466234141 -0.8038178652698802 0.2174777893386319 -0.2621689615984194
P 5.383991149089646 5.08402142541805 11.217619864992548 -0.6420214286539524 -0.2633979489095141 0.557902903636478
P 4.528298713379811 8.269156166887322 3.6320758062503837 -0.4334838792277438 -1.6289242076048913 -0.3307906765318755
P 6.8528843664702785 7.6509052036935765 13.654221861899552 -1.5763284357860468 0.08774326625425534 -0.02973969315627781
