# total energy = -340869.087876407 ev
CRYSTAL
PRIMVEC
9.30164439533787 0.00000000000000 0.00000000000000
0.00000000000000 9.30164439533787 0.00000000000000
0.00000000000000 0.00000000000000 13.61389679719791
PRIMCOORD
 96 1
Ni 6.563109875439599 3.562101826338811 13.234681572262506 -0.3545363568882475 -0.7435342378884743 -0.985279384414903
Ni 2.28062361612852 6.632351314346795 7.795916302572809 -0.09401572952652841 -0.6352897663570736 -0.9453501523201332
Ni 4.750600801820955 2.6595167881389576 6.164372575841224 -0.29364157828540394 0.13926868782705693 -1.9328486558735425
Ni 9.727380382318342 1.4538097710154503 5.732539096262234 -0.8692573258206128 -0.37555692500397253 0.1400616160419975
Ni 2.144428942770224 1.5247813157309125 9.450330911892385 0.5379308313899251 0.12836001133435315 0.45021481882917946
Ni 4.217225924091723 4.419815733253292 12.197724052789516 0.8746669268719581 1.6507904115503633 2.3715863273010576
Ni 9.259275141452596 4.379688440474458 0.0839947766625289 0.7895621266818144 -0.21071167425939197 -1.686509462218528
Ni 2.3367404351676266 6.454522481860528 12.740782872222978 0.2385171265074344 0.4409593616691825 1.3147675400852712
Ni 4.022151843387571 2.6663441949307205 2.7722387625340206 0.03538686413972616 -0.07588919512914671 -2.5928930034674766
Ni 5.7554388139470305 8.893060110391984 0.6873673169667627 0.7934043832460401 0.2506036253583232 0.12646845073859508
Ni 2.3097935721216643 1.1640542547072767 11.83613938017705 1.3938351329423995 0.07486949561538073 0.8667080770361977
Ni 5.397176688617967 9.305550821001669 11.78640813983351 0.553798137439485 1.2826868575006427 -0.6415252057438241
Ni 8.892632234761983 3.91175062920306 7.493157087770242 -1.5199212606409114 0.9186577306306114 -0.31516042619378626
Ni 3.7052541295066956 8.418164669310999 13.12459940447167 -1.73197402230923 1.4870211674787808 -0.7282634277723328
Ni 1.7626615627234723 6.715675442467516 5.163084071115334 -0.22422899201953644 -0.13485076126501935 0.5219642807583398
Ni 3.0742026867634316 3.272364913318898 10.72566724648333 -0.5226402237794419 -0.3674270968079865 -0.46368637095305304
Ni 6.122574707776557 7.985461486005811 6.172390593081685 1.1743259149960357 0.9538597324530411 -0.7896695987939562
Ni 2.475548870526584 5.996900193929819 10.622202268326905 0.4983744092535417 -1.4078921252560979 -2.61708219911917
Ni 6.093469863292326 2.0416364734844348 4.172073883153611 0.6495994981115265 -0.9800117082580605 -0.32044995672749976
Ni 1.2541499797549789 2.2842977655600545 3.372216202730634 0.16893561876387034 -0.27556415195840284 0.5623894786529217
Ni 2.665990732453763 4.734081081845246 3.933626235869092 0.9831317419442811 -0.5606493560333634 -2.327653116253217
Ni 4.647259535531467 6.988241520422587 10.727628033066031 0.36355630099867065 -0.27788354412019883 0.8714489341552928
Ni 1.3885029275754424 8.99121105925667 8.352016957241597 0.3675165711979993 -0.6111998152874054 1.0913242771918237
Ni 6.69740701339528 9.050490437300136 3.8730995073477312 0.022261125391045532 -0.48577574665292467 0.798155267667464
P 3.1405327110577907 2.469074926211779 4.557347052873135 -1.032734492573073 0.7962181985457513 2.4238074893893033
P 8.748242812924746 3.2766529712630437 4.320928094173472 0.83136646431211 0.22300566113539658 -0.9242231405335309
P 7.046804671868006 1.2654049691528437 12.592677443555617 0.09056222376028919 0.36242347294580807 1.0106464024247819
P 5.017055699582309 3.8685537938611723 0.9839502400666988 -0.6351732953838675 0.4572005061183932 1.1050097450987162
P 3.031443028695676 0.911191849513774 1.4458233793650315 0.5475004773562313 -0.4011437723341414 0.18772369800465089
P 4.299536173002224 1.3644953840747074 10.541906755535065 -0.9953269984588923 1.0825735275823873 0.06232585462241524
P 6.340335498514917 6.242305471023927 9.228383451130902 -0.2829473317963514 -0.8409978167542872 1.1201936519280062
P 7.746855710771074 5.080418499399049 12.382410987493175 0.412634032361928 1.0504565924431843 -0.7949807265942244
Ni 7.413494086779271 1.017962631994164 10.526359987535402 -0.5598790535262421 -0.7957962805169844 -0.6595586662067673
Ni 4.24446113810573 6.403995950943832 1.0362980329041405 2.0192351509895867 -0.38472110800174386 -2.0256099441676794
Ni 9.571670859574324 4.239289423969191 2.2595116744455996 -0.24160116474939683 0.31668020527242235 2.336707256035685
Ni 1.5519607198801366 4.531314541445197 8.734920998201092 0.7765330614119982 -1.0369315613735561 0.05246490266793545
Ni 3.5087103890299307 5.175127839935462 6.045155263349855 0.13155666389477988 0.00019900338468352826 -1.5090539789091042
Ni 6.311239955674817 6.627384236381125 3.4210358819493893 0.031789119486138794 -0.11456604287405432 -0.005160461155016919
Ni 6.938394009527415 6.490166382168478 0.36572111375728344 0.26666736368940525 -1.9991859456481957 0.3740453734554526
Ni 5.528236854416246 4.194529912413383 4.097946290584681 -1.8022132182414508 1.486831420065478 -0.8886992365953083
Ni 7.00942136410766 2.0220472109456713 7.158323013512587 1.3050567405554105 -1.7434252015689653 -1.9128004789734154
Ni 2.305412497736214 5.055006407634613 1.1743046665390513 0.21200828158362842 -0.505968933771348 0.11641518026765113
Ni 4.084537970570613 7.235776874022571 4.948433750174202 0.8944096567165242 -0.13457591033707791 -1.528869728083451
Ni 7.646956052809859 6.283093180536024 7.478794419068388 -1.8132810460198383 -0.027770485245048947 -1.3191672118148636
Ni 5.862789088856747 4.03188136314804 7.579223340580626 0.7856741044813179 2.2652370159098405 0.8676557856614477
Ni 8.03046284030901 4.633902374560117 10.325895604057646 -1.4667577892440546 0.4946583938545352 -1.3736784554888664
Ni 5.979338689811498 1.6290620480775766 1.7133907537643893 -0.1591903664516484 1.58096644877869 0.7303768745709098
Ni 7.170888604568435 4.039518012979153 2.1855208160453876 -0.8503921134849934 0.44980292810274153 -0.154690678809082
Ni 7.147848432057268 3.8561360989469993 5.571500661595873 1.300231294142309 0.15312590542512336 0.6475793823577041
Ni 9.357826061014892 1.2684931150041587 12.171708284321014 -0.743110005866862 -0.6412524116984119 0.27055590011053404
Ni 2.399182372215451 7.9644862784916075 1.283357142324645 -0.34813379579601333 0.2015086676038852 0.2566434037944999
Ni 4.58436181792125 1.7559736805936668 13.41428980927093 -0.8021175947493218 0.4213361881216162 -0.19384472330072422
Ni 1.3463571780202972 3.851848041002854 5.491437689907293 -1.0863329946248195 -0.5929465255041724 1.2184159633367146
Ni 8.196859952158931 2.2549324750401705 0.6191425477630274 0.9101882597070196 -1.0769883201851258 0.8080874391795115
Ni 2.350906839178328 8.70552036143351 3.4550705978227674 -0.3177227876043238 0.3796262099773397 -0.03665107556413043
Ni 0.7351796281261884 0.5367792794809823 1.512694759347784 0.5242582189988391 0.2376838319728616 -0.9525808657406175
P 2.1285138296629955 4.23668496361266 12.730844995633985 0.007253339128303638 -0.6904018768398691 0.6591285206478842
P 3.451337848033211 6.495533430831757 2.879597408923456 0.06584492351926724 0.936656224090561 2.0523586730164327
P 0.3237986036612692 5.988370586262181 6.695872242113753 0.7848168986873452 -1.5936736119327133 0.37190158763957243
P 5.937611514242223 5.746927809567652 5.5880008481189085 0.24561979899048667 0.3041417064857794 -0.9233883033370615
P 3.5370618003395937 7.742800193930191 9.079270654404214 -1.0733090715613256 0.36756593637869595 -0.03802044510783129
P 1.3354556510993898 8.640250724570025 13.062465351844564 -0.8532133849838726 0.34650988703934515 -0.5425657590587752
P 0.9656780903368097 2.4259711073111956 7.915963321720614 1.2838497674604923 -0.958700091264478 -1.3023856214811504
P 7.074997955227452 2.8644878181979254 8.984912916015931 0.04932352882547634 0.7635255934087367 2.7001056913002532
Ni 8.669904366057954 6.318820795641147 4.690872154365987 -0.5648939902423304 0.041029150027168046 -0.33241638506075655
Ni 3.6608852870043687 8.610959847203185 6.945523719753418 -0.7035273584782336 -1.7378914162349295 3.0321515803954684
Ni 1.3048904484866757 6.455927030124228 2.8691832881549852 -1.9593747271885287 0.16998180064019758 -0.051283994985956836
Ni -0.12581496867310796 9.047197655277952 3.541287537268065 0.4091954389940243 -0.5929899771475982 2.098135107920599
Ni 4.649938409041042 8.819000419825207 2.780951612591029 -0.6730281614481118 -0.1340514052921756 -0.4746122738369375
Ni -0.2500123814319277 2.3716402039451383 9.662843715012336 0.8883277121885025 0.46890391059825054 0.37595981686934604
Ni 8.08725867936964 8.480922862259257 1.3733700827395858 0.1852934912966035 -2.952632244712902 0.4050107114887154
Ni 2.6800083101583763 1.5768333162850052 6.701876453399969 -1.091208577549566 0.16343962864630562 0.5135346619337479
Ni 0.8887097756504355 4.225402069282404 11.032742424162432 -0.3656538069576477 -1.1076857492689827 0.4259081237630149
Ni 8.065102163050867 8.151151672901817 12.841171796665453 0.9426214405350606 1.6050273463826359 -2.029837094875149
Ni 0.27059971038589004 8.200599213099379 6.559270156742541 1.0079416018991092 -1.319550306185895 -0.33626121272814347
Ni 7.980187453783834 8.786667904827706 8.419051115996632 0.6098096198080981 0.06444727184079223 -0.12147331151684886
Ni 0.21630694376076798 6.4428954266974445 11.410623577291474 -1.138856261334516 0.9474893101503229 0.9063902261171681
Ni 5.636824247995316 3.3907376365232196 10.666759934205082 1.1381497221857946 -1.611719670801147 -0.2259593444470818
Ni 1.7018195084660885 2.68686362188253 1.0396252310096084 0.453952945715373 0.06370833679223867 -1.0712799569464388
Ni 0.41365155579716617 6.749645046831981 0.5237337235880025 -0.4782228740063313 0.19630449769512642 0.06363326057992912
Ni 6.914665515350594 7.783662316595332 10.886216414668425 1.2491514447473582 -1.1264717716272343 -1.474976577609421
Ni 5.677221288453934 8.270621990113533 8.665231220046808 -0.5015754326893427 1.4727206916957087 0.22673324649862886
Ni 4.132329818112952 0.4348500027705002 5.123766951540263 1.4830968927237103 1.401251737121445 -2.84115024008081
Ni 4.953125499473609 6.424515377895642 7.365975707574368 -0.5866565787304026 -0.8018895378989157 1.4529129129411624
Ni 4.388924973096011 2.1749197322298945 8.461431266983865 0.44453370928400215 -0.47376972333098405 1.3188918466662898
Ni 0.06579424959244437 6.416515963943441 9.005565356478806 0.39609849660075014 0.5951023955049106 0.30267926300764
Ni 4.3153117614474965 4.739615560102873 9.32527402721591 0.4757980666149226 2.2821427905262435 1.669972640905769
Ni 2.208973051391534 8.289541534274901 10.87582833850352 -0.5976292756918223 0.47716229395230086 -0.06854406761798518
P 8.216821280462913 6.3732540170926395 2.1210994891266 0.4244891319283012 -1.1814170175148622 2.4074275053693825
P 7.9959165340084555 9.138428180909571 5.791542215475023 -1.9473831020442909 1.6374551278940384 -1.272518144497757
P 9.246317951178856 8.404909826425083 10.219475493560974 -0.35071286937709917 0.14053161369988054 -0.2938264406027004
P 3.5191468337443146 4.013492012702107 7.649376340612607 -1.0502642739267203 -1.6033995809712256 0.0021031623859318616
P 5.373569115814843 0.6677259652208688 6.992859786733364 -0.3509612379424794 -0.3768252501934349 0.4031307208571831
P 5.461255715032753 7.413940565697534 12.863539460305986 0.5740664007702179 -1.9321210336788983 -2.1970343907916745
P 2.0846658792319746 -0.38573267093956987 5.489708514263438 -0.74065820189226 0.6918517219125181 0.9364600489193549
P 7.785717979948164 0.8235387362147325 2.3641895869966345 0.17055104288010628 3.210137739397381 1.1952017300037803
