# total energy = -340863.0818155432 ev
CRYSTAL
PRIMVEC
9.29871142068420 0.00000000000000 0.00000000000000

0.00000000000000 9.29871142068420 0.00000000000000

0.00000000000000 0.00000000000000 13.60960409232460

PRIMCOORD
 96 1
Ni 1.5608631032804203 7.980219240530566 4.335257331395774 -0.1440213720206939 -0.23459567996584113 -1.366265450854247
Ni 1.9354523945417748 7.111459229013192 9.08024657416173 0.81630211377982 -0.05699004423179862 0.24467723257155927
Ni 8.985437842288738 3.510058993316294 12.916793554381176 -0.9060233296960525 0.92362150239379 -0.7032177976576147
Ni 3.962506395384205 4.997741237639638 8.806978832259206 0.27976841984773754 0.25451581592853584 1.2543666703997107
Ni 0.3709767418706526 5.018170506652179 6.205680117420341 0.29300985823867604 -1.1794069290633686 0.4891811727900479
Ni 4.124926987938621 0.888934495836721 4.608021083138772 -1.4886738725908555 2.1516719034964753 -0.0014079360911201557
Ni 1.051488989835734 0.9245346125479238 4.780890637727504 0.9998868499154328 0.12435191861622455 -0.9951979290801957
Ni 9.23112839570219 5.422394791242149 11.108893444272185 0.4903949905924909 3.0161297510459155 -2.6055587718606033
Ni 0.5205446554859995 8.584031067262172 1.784286962302689 0.31210081343185603 -0.19114609342263852 1.0499459713553532
Ni 2.091856720800736 2.919990662078786 7.0008482669354155 -0.5396331587930125 -0.23753110844508127 1.5225355583353068
Ni 8.773910754670494 3.357932074315307 3.0950965567665234 -0.16796811264427847 0.6606033054211977 1.3900607535016318
Ni 4.247260835516676 8.501653782700451 0.849497730789344 -1.8331181353504236 1.2466510469230077 0.2620208660563294
Ni 7.954220043371229 7.273768237030444 12.450786771305486 0.12045901131972157 -1.6510624342648277 -1.2935556818943463
Ni 7.8401806463890695 7.184984140293193 7.390926421826351 1.8597807322432747 -0.08222002244318097 0.8926497366026239
Ni 5.467726009465243 0.82193542023856 12.823118335431547 -0.15593252163598306 1.173622461171108 -0.7002283760119875
Ni 9.020614867629858 6.235669391654455 0.7006848725421438 0.5063620554447086 1.20374704847063 -0.23464710202906686
Ni 6.01230504438534 4.329145288372586 1.7922764151636696 0.7083162952264447 -0.7057464776167394 0.5249071654367475
Ni 0.21533305020669657 2.248958450416975 8.624501849020607 0.020577052820403268 0.6802758441494606 0.526091672663152
Ni 1.651460448746595 7.393498445407993 6.693992649475222 -0.7170117661179135 0.48719113894321253 -0.05768861296072001
Ni 2.2294683512589026 5.452634200813738 10.784141526793086 1.4287684544844748 0.7158560552469156 -2.522430635780856
Ni 1.1185512966716213 3.448064484209963 11.03438100983828 -0.4570755505047548 -2.1164722156668905 -3.391429822844075
Ni 6.383788566028949 6.527211891131102 5.826244337761474 -1.003074246504479 1.3773350784048475 0.028464168877963887
Ni 2.0301411730373156 0.8888033840055526 11.13498376880354 -1.4591221270756678 1.3358122765707123 -0.10465546862856169
Ni 6.069120171224951 4.139758432670074 6.280015876337071 0.3100894394287821 -0.8197358220517172 0.32955577568350986
P 4.213301941372935 6.0101012497763415 0.444457019335787 -0.4044370983734325 0.49859552412541236 0.9582478342184079
P 1.9770641281927173 3.1427412943934954 12.809087509754248 1.7630746003687765 0.08023924456772633 2.4299490835106665
P 5.392787694047824 0.17325545111309232 9.051938506954231 1.5566738947799126 0.2650455118152661 -2.007124740879298
P 5.336669970565492 3.6986368611243634 9.814920096724194 0.6176450566921169 0.0006432900109537308 -1.174670699929964
P 1.724464632186494 4.225092707466654 8.871679266391777 0.9434364802371881 -0.7265824405254842 0.11944188290911686
P 0.6326406217792085 8.51659681196907 13.321625044827549 0.43437116692870353 -1.609620622180273 0.42401656316725683
P 2.03516247720972 4.051969298055873 3.037186971591557 0.35116178398905973 0.6261402386473217 -0.3031634017329101
P 8.025206406430735 3.6366237545951714 7.566205272546694 0.4573372888065736 0.9379949975066426 -0.6128072689838414
Ni 4.637034922543838 8.173427866630963 5.324689510758593 -0.21410193088786353 -1.5116392231377773 0.5150490416957453
Ni 3.9898353082780864 0.12032067655337844 10.564074502597183 0.9019725566654465 -0.26174498668712337 0.3601634732670378
Ni 6.017633206034947 7.268402880535116 8.903402750307656 -0.07893955191969632 1.8235767715188917 -0.28165329557527624
Ni 1.2327022781909438 5.286168668787108 12.763780468180872 1.765604565879482 0.24236323972640192 3.27515373925745
Ni 6.783558767843767 5.130833694342641 8.706322140767648 -0.5080726103779121 -0.8183409985867196 -0.6750984137135793
Ni 1.1329921955229987 9.288120198058978 9.169769918457696 0.09234939756769901 0.04716328794936393 -0.8384454826460787
Ni 0.8318636544327749 5.9147894576149636 2.9875532395896274 0.12328439658365865 1.2521552645706888 1.4348388290482708
Ni 5.2690311436209205 0.4922709935107916 2.6457753814815055 0.644242090454355 1.216805424316485 -0.02178212887209797
Ni 0.059805592435620294 2.708500769306265 5.879335330673219 -1.9201281229830802 0.15159712748542278 -0.061115893474714106
Ni 6.419272448847272 9.006731891464304 6.846556607913436 -1.2366486842946571 -0.19322045945316402 1.2978944184790162
Ni 8.024546197919179 1.2958033339574904 3.826163109165142 -0.24288491655782685 -0.13319239972598998 0.5142370873174112
Ni 0.9048994534915372 7.852929179760118 11.325680812946592 0.44832017290962783 -0.7336102939065431 -0.5609609737365113
Ni 2.887975198623994 2.0197452136581533 2.2924968770762915 -2.3066132648637825 -2.275515000797081 -0.15948758597709306
Ni 3.831134200295822 8.006832152644307 7.944103045334977 0.5712021918485453 0.03424555144643134 0.5606542411293699
Ni 0.2191083270474301 5.709408818252202 8.46351325802647 -1.302800340421066 -0.11419657534977752 0.8875129295966909
Ni 2.6467480266971233 5.195655011723807 6.938530162671307 -1.085344662569621 1.4231878750729037 1.0963415279007571
Ni 5.5718529800626175 3.6047105769661134 11.921972771744452 1.9809663373163755 2.0027080998688414 3.16437158890586
Ni 3.8174929906274575 2.62232961048095 10.953580786735149 -1.3763516314456554 -0.17735675294803002 0.5721275318762921
Ni 8.115208634365366 0.2468333650482457 8.578433242981085 -0.49971935331721035 -0.5554924944227724 0.36895381786515813
Ni 3.611042999450201 6.294390754337293 2.9168514170998905 -0.43252074398352613 -0.19872647687305775 0.45645874285636223
Ni 5.593723549346866 6.2030960055138396 10.907661889949658 -0.223180496150364 -1.382972736306599 0.0788991856000641
Ni 2.747462370199549 8.602758672082954 12.679959093734016 -0.46630478241250656 -0.5696626152755673 0.16292180846962265
Ni 4.991250737061234 7.90214725936111 12.392728406747635 0.17971753987072275 -1.8299582495652031 -0.45133787669002917
Ni 8.306650505293991 2.3066755522653324 1.0406271650139092 -0.9862021533394886 -0.9985354780938609 0.8327353196351788
P 3.976668332892671 2.2809088228917545 6.3586932036206445 1.8007170933118986 0.46501177463269594 -0.4746279575662213
P 7.395795227131297 5.107019694369442 11.675774508686901 -3.1807029790760315 -0.13551693409410853 1.5803506695715621
P 6.531675272617684 9.078852697318316 4.645107133936549 0.6133001494598599 -1.0952166702676944 -1.3205013572452549
P 6.4515482762221135 3.2213061072687603 3.904500103610363 0.7330333383571506 0.9339979605321077 0.1690420624347476
P 6.714990069756158 8.58374280720783 0.014348841608216567 -0.3910095121136169 -0.2217890151194761 1.1332736250404158
P 9.048101858618056 6.795358832648917 5.43522701301607 -0.30352824127149663 1.0497364264477083 -0.7631748949375373
P 4.93066033338089 6.247804210071099 7.304628800525584 0.06426678039886996 -1.0248856859526156 -0.3065474877137947
P 5.964760732841817 2.486335955811669 0.4479830907101865 0.6386553403951968 0.690309831346695 0.46408900570811046
Ni 8.236714896626117 7.665457858612264 3.4718645361160156 -0.531504101927975 -0.4072758533738082 1.0302163541369096
Ni 8.055148257236553 3.755907624824063 10.12569512105229 -0.3993002913674994 -1.9075461725530118 -0.48474036340987475
Ni 8.239867159801015 0.16579137544792774 12.230039081432881 -0.9073502760375921 1.2198596377617765 -0.35324206355685617
Ni 3.606607514097911 4.796266057077634 12.407399913642486 0.20839125365633143 -0.29980348412174174 0.5778865458472564
Ni 2.3243059091373293 2.9122820303030026 4.767199215017415 0.20927108515812345 -0.18872308580344271 -0.43536489830054054
Ni 6.33440310962221 1.6491450696004308 5.532617067182136 -0.6120336240426105 2.242475296733293 0.5502114485294911
Ni 2.885297169732045 0.4259144588724699 6.826794986381597 -1.1304017028092597 0.5838877577360138 -0.5876567378601427
Ni 6.3488254110507265 5.802767881013199 13.53707897828284 -0.12936994065610624 0.04106745946427121 -0.3982245418048174
Ni 5.939086990582543 5.921140477521912 3.51443496691543 -0.5248359458791799 -1.5510555201518705 1.4883429716139982
Ni 4.001616775660375 3.469023779774035 0.8624117812238533 0.13667727295079687 0.8261967471857126 -0.7041403094718841
Ni 7.699016908164499 5.154498914932954 4.726261637945175 1.8234942391074143 -1.7629748415661186 -1.029717303013304
Ni 5.71009692289805 7.5156649161803015 2.0928302958874965 0.3301463580796572 1.2271983375150348 -0.5019582699500581
Ni 6.487980627606336 2.20974578431507 8.076619911800439 -0.7525097019142072 -0.4656380953627851 0.4097510543871782
Ni 0.6757392193878683 4.378456355087882 1.452716299731693 0.6511822692176139 -2.366450548736389 -2.330416537930967
Ni 3.235542434468669 1.4843905004769902 13.469860453094922 -0.2745292829359852 -0.038929844295978115 -0.16795937089353008
Ni 8.630719897354101 8.932472381981302 5.671380807986527 -0.6153264358612693 -0.4677787958548718 0.41935026803983905
Ni 3.9824335339795054 4.689461057588311 5.2787706139731 1.1620306425684503 0.11650825420208967 -1.103189661170842
Ni 4.205165568871354 3.3867952745952006 3.313299189320635 2.366360560125744 1.3619881636351319 0.3275744835874229
Ni 2.7793848465400375 1.867915853422938 9.052414600979466 -0.15058668394303742 -0.1493679810445879 -0.5504495326822262
Ni 0.6825802813871975 1.2813066428375308 12.973722125500238 1.2870271367472093 2.0156237794892453 1.3310660201349784
Ni 6.599211813736519 8.732819748859653 10.772096905877316 -0.02645870841216088 -0.4700094849576034 -0.6727499680860608
Ni 7.510764495256493 0.022296450267760795 1.9453843482205617 -0.33750202711378 0.05926392786763987 -1.3465620588880487
Ni 2.2517759599803795 6.990799149492606 1.0920304418010398 -0.3416196488265794 -0.29726220575712675 -0.9942245094233328
Ni 6.252202500577667 1.8942405054823388 10.695896755318797 0.5733840299912125 -1.7473852146579776 -1.319565989915179
P 8.521841285215803 1.6539153085642146 10.700986869955784 0.49509342450942473 0.36001743460747676 -0.9136600203057039
P 8.65846725226235 7.5801979735071265 9.888316685786455 -0.7089696125397273 0.015096489321806258 -1.290251814332094
P 0.5470543519028647 1.3694491284860852 2.4994173830519255 -0.0951992083116683 0.3073365592739933 0.033323810963110344
P 0.6631692212762831 0.7786508484012927 6.997554663346775 0.31796498552211694 -0.1963726319289005 0.9572792996575512
P 3.3123032973264412 7.350259437256735 10.861389642129808 -0.3763310841658357 -0.3393761042080413 0.08037191349084868
P 3.4644860085960105 8.680421509949472 3.0645698170117353 -0.6471188977815178 -0.5513203653229537 -0.3738923928173561
P 7.399616997529183 6.3793623793880885 1.9122586186209825 0.14292685340493447 -1.7206321149338497 0.6520389607909545
P 3.0596666064744964 6.665716197886584 5.1024856426759895 0.060995308736449795 -0.698837666312048 0.31815499004573594
