# total energy = -381180.0017304906 ev
CRYSTAL
PRIMVEC
9.15242682838707 0.00000000000000 0.00000000000000
0.00000000000000 9.15242682838707 0.00000000000000
0.00000000000000 0.00000000000000 13.39550180483555
PRIMCOORD
 96 1
Ni 8.647450748233322 4.54776762831585 11.417173687797472 0.5879465011864197 -2.0259282467390465 0.29038141947689344
Ni 1.8588029565885127 1.4985634400527024 1.33972398920089 -1.4345277255657551 1.6936167626872702 -0.023279796463547005
Ni 7.348950204317719 0.8364302122139105 11.118668204874103 1.4989629132216895 1.216605649600853 0.25740753565403407
Ni 2.41521558789639 5.777130740628009 6.141877827333888 1.224619006823633 0.7397896832443775 1.2190122021598166
Ni 7.42047641930063 2.5423794050393917 12.88497216060212 -1.9628421169118389 1.5003415387367711 0.16771614453447245
Ni 4.119296770423981 1.125739336747666 0.834495389200809 1.032492808875912 -0.38194663058040024 -0.8062642699278437
Ni 0.9613892097549438 8.000703664989253 1.6577067514723245 -0.8903887084825891 -0.22521063920651535 -0.5869782237358794
Ni 3.809423058245299 7.216313235983447 3.5966657462180773 1.2441336798177929 -0.5996766451391543 0.7484512155741174
Ni 8.155754926412861 6.860192311481201 4.5118324552016595 -1.1532513537139235 -0.15462691545068208 -0.48877442426993245
Ni 6.554098551546658 6.250521708965959 6.397999337261177 0.34666672433218365 0.021937937723671894 1.2793382527433836
Ni 2.417851486797872 3.8491537427290887 5.165854802462351 0.16493909600996756 -4.0344041023296 0.3369870351505745
Ni 9.066558673568887 2.657205750935181 4.4869973452392635 -0.37416647241434914 0.35468548087160207 0.4521642292460665
Ni 1.900364126420553 4.311653323244945 11.628956266376752 -1.9407653396174573 -0.06937273416686762 1.2676194216445589
Ni 5.955044764051272 7.912767148859273 4.860732115005055 -0.6165605653786865 0.6252737768819683 -0.20998662316790934
Ni 7.336164264160185 8.80602569395231 7.200819092753176 -1.2175587575427418 -2.5120801457844673 0.9189863176146237
Ni 5.058033723994318 8.23836473017943 1.4507465865430138 0.8289722530483208 -0.43673915294024784 0.1506090525405406
Ni 5.0080614739870635 3.07189305415472 4.3513675333606 -1.6628889945861105 -0.6842795659922152 -0.2701190696834316
Ni 8.403977892062446 1.466859433820994 6.6097160183679184 -0.46860232019743164 2.2978260055894557 0.5132333286432451
Ni 2.9012277527105312 9.043018631990376 2.551092515297067 0.4314658203564505 0.7401858902415316 0.9355655621295436
Ni 3.977379241374076 4.1017790256412185 10.905572253057457 1.6863022313037281 -1.003586153143891 -0.23420975738133212
Ni 3.237872313107385 4.78814696424818 3.2441362339691007 0.7720824818398123 2.068617815187773 0.9956987799760143
Ni 0.1719997252630634 5.411692645703165 2.166052668020477 0.5030972686505077 0.8884143583650377 -1.0401549534068601
Ni 1.1030047087223878 2.4489788901448812 7.4068548625816195 1.6609400983898557 1.1953104876675027 1.7229551066400715
Ni 7.920647388283493 8.11418460415408 9.981390403733739 0.49798514423492307 -0.4847658173311715 -0.9341817944081395
P 3.5576031888863997 0.6664092416123064 10.534088980270015 -0.2718676769434221 0.4344948369907614 0.5330213099034498
Ni 0.21256785679367773 1.8137547121680537 12.40341722761097 2.428113572963825 -0.07587119740701773 -0.9004463498289073
P 0.32955051442970706 8.493012699401378 6.698876213953205 0.33338054874623874 0.4854859833266478 0.5259623461741394
Ni 2.1489165794328247 2.360438313849977 10.22313894270656 -0.13784686777886582 1.1063354058886754 -0.3840683049090934
P 2.995204870489741 1.7627482379390378 4.100082165723389 0.20063937762505446 0.1962970414959587 -0.4618452039792562
P 4.380635163593786 6.688282280000203 5.780520799492971 -0.2942283040268094 0.6152089364467985 -0.38050372748628664
P 0.540735439542781 3.617835309270601 0.1733259118978713 0.511659556398222 1.1541365845323541 -0.14564399522578142
Ni 8.069008225759243 5.896405165920048 9.014355061922114 -2.0584395891031906 0.1459980361310905 0.21416620846689569
Ni 5.584829102367493 5.32255716167008 4.251825740122707 0.1405231290594483 1.735642472299753 -1.2123101075492928
Ni 7.345920751066364 8.431966013037206 2.9057124418137463 -0.404002324828859 0.20279241941231524 -1.5983280799855892
Ni 6.927508410163135 4.726569437133015 0.4998195157959991 1.889468489115694 0.9018530003684467 -0.7488497365641168
Ni 0.7806983400583843 7.088883998464949 8.60841839390989 1.0417395242851608 1.5722272691334795 0.1372591135961959
Ni 0.16161995809580573 6.345285935444917 6.514848369466784 -0.9976412484143657 -0.7762353276659212 0.6104495673849423
Ni 6.695704898087361 8.619316188430702 12.806193562669439 -0.16993114990792027 0.7993289762605911 -0.047869312877453045
Ni 7.770227254790961 4.567692461331563 3.514537360098097 0.44766505582413224 -0.21283437702934957 1.5757687066278345
Ni 5.490961813709178 8.558452550601354 10.039500076356642 0.23623604378274154 1.2184982386378758 -0.30074245099624336
Ni 5.937078550358187 1.2306261472024522 5.732323205030845 0.003831200820632112 0.4563528134061173 0.8933094816738099
Ni 6.188349274112612 3.4637359002280848 2.2786824314983654 -2.1039936235839054 -1.107402670810925 -0.25670536738068694
Ni 0.3090719595961482 0.5345035521746603 3.2763921315333064 1.2724677508757956 0.6308121902016943 -0.47457987793710527
Ni 7.9323167323785935 0.19360768955649316 4.890698075398598 0.06872301639801068 -0.4623131447546102 -0.4450577001082723
Ni 0.9761154643816236 6.642282183198653 10.920990431145775 -0.9579516431342276 0.783622878379244 0.02762676057833307
Ni 0.8304674061919826 5.3104576535181405 4.5485895162372145 -1.0135674327263189 -0.2702201140376701 -1.6028974445238267
Ni 3.0825556313082823 3.9482653719101424 8.421631092760979 0.2961818282087544 -0.17968231575741314 -0.3139656345547367
Ni 2.0088936027183593 9.12010952243197 13.078376666284958 0.07036286599427882 -0.846525945661368 -0.5222293614942685
Ni 3.0252522874812824 6.310991792445433 11.969952805689072 0.7829245667606387 0.17235647151996122 -0.41418672156102865
Ni 6.635820569919327 1.3483812696554436 1.2538513453010618 -1.6496272444801976 -1.1032590809561968 0.4391583039047018
Ni 2.6326223327081695 7.835877611805986 7.181596250868517 -0.6717469807428431 1.370690576505136 -0.7166782940378947
Ni 1.1779356264530454 0.28791612518373644 10.805749480318607 -0.19505391311747697 -1.3445460568992844 0.0628480456744724
Ni 5.221367931618762 6.577052837813726 12.945774477172302 0.9027441447241485 -0.7272686679592313 -0.007651345897670693
Ni 6.005978018866358 4.6170789560273775 8.171149308191652 -0.8776751175706626 -0.2843578389906328 0.8070080900724036
Ni 1.3997172312471446 1.0163769896164059 5.593814039699383 0.5287249965209411 -0.6310009091737326 -0.7875816059166759
Ni 7.971745386779922 3.6148790754331754 8.25970635885469 2.1173116808490504 -1.2694181654161945 -0.5485350892683327
P 6.078053379453744 4.756397195882766 11.875058614750388 -0.2010911204504924 0.5595630649477202 0.239785965917529
Ni 1.1958926877193883 7.772094349846178 4.774786251691296 0.8755105058191761 0.3092846841392996 -0.6114576969344825
P 2.8887255377819767 5.752931724324131 9.803900137668595 -1.099870624099938 -1.5402196058786315 -0.1817224861158935
Ni 7.658531038840681 7.1842797423890525 0.8704085964908209 0.8980711647285113 -0.5701480395524181 -0.29167776969081377
P 0.30985632256787377 4.0912720397422575 6.474461455985647 -0.9600792310001918 0.9211735550739296 -0.9676069068358045
P 9.09990096418728 8.221743923217312 12.4789009519168 -0.09338169548695531 -0.12445604829425663 -0.11943596937184592
P 5.485836454734075 2.513924510300829 7.524775643958628 0.3591216622660847 0.4783691697762084 -1.4682117480817616
Ni 6.915079414648511 1.3140047548152884 8.904029879497672 0.8727332001843551 0.11899759628284667 -1.1269006316345367
Ni 2.4613712759525406 4.773045460125109 0.8904633939662597 0.3335947216395738 -0.8987694763471166 -0.37601792380079113
Ni 0.7258954392170955 5.990199235164433 13.311498127811472 -0.6048065101665518 0.523588189515008 -1.0758578061251085
Ni 7.001469170659219 3.8156375560026117 5.738793970736912 0.724408829912933 -0.8248294345245407 0.8547689023964504
Ni 4.7365272774275 9.092432583966415 7.502753074733819 0.7644110813374836 -0.44525310394852996 0.4650233445969217
Ni 5.361958358791185 0.7958108270935451 3.377903527005918 -0.4542064564870758 -0.3141435548934977 -0.6401054425781622
Ni 5.033075056270914 6.18185105112632 10.372632850612876 0.889472881536539 0.2098989485501095 0.17690475301227598
Ni 3.7861392846155453 0.015534413907932693 5.21252485690136 -0.3855130077754199 -0.8192586253049826 -0.47114514122394346
Ni 3.4779587713839955 1.973693369471491 6.51819724241141 1.1704412352296487 1.2587635139158257 -0.21493008321611368
Ni 4.860194867555342 2.1460884795697766 9.473513091434736 -1.835259092952826 0.04055760970738822 0.7261219559492978
Ni 4.190484345617465 6.156782554282022 7.992626648390096 -0.07905422312068966 0.6905147482686494 -0.19303636846681593
Ni 7.685091381243804 6.475524967972981 11.723515478496706 -1.0530582917320896 1.2668894854570696 0.7456142603459546
Ni 3.0643514545199255 7.103994655014761 0.6454684892283142 0.21379211295692857 0.7023500503406807 1.4947894985702903
Ni 2.687738246544009 0.9058678434144665 8.379583013826304 -0.12958179955659616 -0.8840776786628969 0.7168158480570236
Ni 4.3785850200037455 8.600050330140359 12.157194982447022 -1.0432292214568097 0.17454936540622196 0.6745502545195932
Ni 0.18713783909309978 0.6137095684361582 8.67274347953278 -0.2635360171492751 -0.5073532157133843 -0.011147017755754995
Ni 4.69525898525118 4.463373101334735 6.141904369371438 -1.6381830071989978 -0.22289484658914516 1.7610634834760188
Ni 1.4389902943938715 3.47419712399334 2.8096128762732393 -0.654029508858422 -1.1748897579193056 -0.1172890982321722
Ni 0.8213341995468839 4.731502595146551 9.345866941402472 1.2232509228315125 -1.342408184620675 -0.02932008912035595
Ni 3.07685366944848 7.847693394728947 9.601252596219766 -0.09254840095238255 0.7905386316624708 0.06532993155606168
Ni 4.726404693451673 3.822575095472483 0.0013234409067855225 -0.09805596103417306 -0.8683466410808851 -0.6499234571098483
Ni 3.703291517753702 2.952298293926736 2.1296168571635397 0.6092594037315829 -1.0188603056941419 0.11200676678731034
Ni 5.044964058607806 5.398330102660934 1.7001840792211644 -1.013781605619654 1.7083576684418706 1.0136646204258157
Ni 8.731662226679612 0.5657883772616193 1.0306996222237965 -0.28436246697632317 -0.28353971396471167 -1.2612484851212087
Ni 8.37928464471454 2.9862995592704995 1.77664528270296 1.3211415619324152 -0.5674532663290743 -0.11332214316462419
P 6.870049475081534 6.276770868859879 2.604098794769047 -0.2950001491958274 0.40936975978835954 0.4475598977048356
Ni 6.759680361008735 3.4001448392298426 10.45462669605976 0.13780495879733684 -0.8352894535156001 -0.692451046059414
P 9.066284100766648 2.443826073889554 9.965570434111479 -0.5835198328736337 0.1156333077963041 0.10994911292733323
Ni 3.0066087942093453 2.33829859356288 12.513863222068395 -0.46801199491160045 -0.5327297468049599 0.10598730006610779
P 2.042830801074934 6.578865018308495 2.6630925918151567 -0.1295406619060156 -1.3272864984878883 0.30975571023844717
P 6.141690202585692 7.059431489211589 8.625215842708116 1.1970243850348161 0.17857365607426665 -0.6592457629520387
P 6.977261001928599 2.243772330179195 3.8981311239495686 0.8705305361060813 -0.4212341153261132 0.39171450860044155
Ni 5.383155379123932 1.8098740832297617 11.829514308800553 -1.2290467035776833 -0.3547186481023826 0.6425683022963579
