# total energy = -340890.9262389204 ev
CRYSTAL
PRIMVEC
9.06107429746412 0.00000000000000 0.00000000000000

0.00000000000000 9.06107429746412 0.00000000000000

0.00000000000000 0.00000000000000 13.26179814176529

PRIMCOORD
 96 1
Ni 6.45204672423698 2.089211913017856 11.373490426418554 1.312705772460236 0.5601798725961127 0.9025376851402973
Ni 4.882007188285455 0.5121799459899736 6.1587787101277645 -0.42597985754121476 -0.49002475173726573 -0.3375274810350768
Ni 3.174184955758707 1.5630625087015622 4.906627033403471 -0.3217149394828524 -0.10446057900893621 -1.2835111531741508
Ni 3.5406419857200255 4.475473026471434 4.731159328604101 0.4212559697029842 -0.370419089556775 -0.29104553542345357
Ni 3.813661216977956 2.8317035285290766 2.6937894463757686 -0.922699761910469 -1.277107306530336 0.09886045921333941
Ni 4.998079550716643 4.700178609291965 2.2840929696133867 -0.19128544721398025 0.7943688040418384 0.2818399576647856
Ni 5.391275811086582 4.573939721439404 11.564367394258554 -1.3253280892099368 -0.30982718690633093 0.14305232323920525
Ni 5.989850382687222 8.358252118595766 12.213161158232523 -1.2489179885803137 -0.7621179144279325 0.08298929650903772
Ni 1.8836161360027406 6.7158870871777525 0.22557000931357815 0.9129177428230406 -0.24294636592338162 -0.9077544534545464
Ni 2.5353248475952994 1.5387788294419542 0.10223972632756073 2.0569012980817933 0.8997894329711987 1.1110063290017835
Ni 8.31463210667198 0.10765643657434944 6.431853213939233 0.22777402905831742 -0.5351941491850525 -0.27672911880078144
Ni 8.755471495977373 2.657377519097882 1.4634658977620716 -0.3391537037845901 -0.7098353029741323 0.10625829433930732
Ni 6.824783078723264 0.7812249900377308 4.590902958731163 1.2696189685730908 0.4247403287071588 0.0067275485318206716
Ni 1.1061759567212552 7.7265230759462815 2.213142039125883 -0.27816867946078544 -0.6384355110749068 0.820205048378652
Ni 7.768294628702548 3.8666866240776674 3.6292638234060695 0.27970877025439567 -0.17730635932606884 -0.19395939450171756
Ni 7.694238468035094 4.074284898524265 12.764666166904103 0.19006134499889202 -0.8984316333917236 -1.2362373077888518
Ni 8.070363664328502 7.548038033388162 8.7080811710163 0.5376883763618159 -0.8873761469085104 0.18125865910559752
Ni 7.049968898484377 1.0011943492952031 0.29964247991486354 1.047098731714545 0.26561141162106516 -0.14308086248429552
Ni 1.65000351709557 6.5558775752205065 8.953265687976621 1.4822813388009504 0.3028204165711946 0.05854633297532497
Ni 0.14823464583864168 5.081966977054499 1.236500482998501 0.044008030149833885 -0.7777890453062862 0.875278335203712
Ni 6.635161975788257 2.091323143341546 6.814270420261698 0.29360044063482343 0.10689901324709977 0.3711953056011672
Ni 3.3655729681920814 4.396179564829333 0.22795307186778596 -0.6754339426761271 0.9044097053520296 -0.26740861273080396
Ni 5.94166358929073 5.614051385070435 4.517803647515132 0.8273169768330848 -0.22445344932551667 0.13860611454239352
Ni 5.476613009320533 2.9514909314440096 9.41863521776396 0.2733226642223938 -0.14751113034150723 -1.0828738324316254
P 0.31964933208098845 5.546256426779245 12.43385087290087 0.03259207500340839 1.2845943589360005 -1.724441718487927
P 4.123486532248024 6.129363744463411 12.303951311010666 -0.9573523189873319 0.5609879703197047 0.8251791045544757
P 2.758852490750252 8.714452012392206 1.1732849916841046 -1.0246383458285 -0.2771597785802969 0.005254306420403854
P 6.428560419520226 7.919977013331593 5.795551953172435 0.3269975280380304 0.12072769160007595 -0.6468563881487505
P 4.677951793909942 1.2271050550043636 12.39483479285462 -0.2141584951574118 0.7276368499319276 -0.6662533046181235
P 4.048370225881549 6.138089559063039 8.120013821232615 -0.5932167484464235 -0.12389374803288342 -0.7747944814543365
P 4.940405812475073 0.7996488725148059 3.6126068504273614 -0.6951121378313447 1.5552039951026055 -0.18545238547197093
P 0.24575174021466964 5.858827247577545 3.245122294634685 1.0271251168060955 0.22692659345635757 1.7794998358043352
Ni 0.9378936838819111 8.935841242000418 4.289886819944749 0.0019422113280353648 -0.5169254327828516 2.179236443378305
Ni 2.0533572418125314 6.408472017684945 4.604204615877844 -0.0855215760125882 0.8477726735842754 -1.1587704837599397
Ni 6.3372610343635785 5.770762665964064 9.021165754730278 -1.0872074268099727 -0.0011407984726625514 0.8308715269535626
Ni 8.759866117037413 2.561393558501976 10.205762591633672 -0.5541082124807359 -0.16401992662980783 -0.6373867580954184
Ni 2.3763482981140216 5.248518584692878 6.846734437445028 0.728497655270326 0.22062019162235552 0.3782833227962001
Ni 0.6935382552246688 0.07878966590820777 9.120324715778635 0.22793960810190422 0.2511931793132061 -0.3923187178433437
Ni 1.5264376461764368 1.1068464762231998 11.333347148723089 -0.6848639777407753 -0.26713221914096574 -0.6820694457147738
Ni 4.194733759866792 6.969696840812411 1.176749946515774 0.07347415792975089 0.5865694183332351 0.35888100701018844
Ni 5.588653193665703 7.919931707959839 7.810682334514655 -0.5625149484871925 -0.24311657295265876 0.5582345759442837
Ni 5.352684695427376 2.869288864935366 4.902170797037846 -0.4354456309398049 -0.15739470800380634 -0.7397333760851453
Ni 0.9495099811993803 7.297408716850564 6.654067907420784 -0.6859559252533735 0.8534378422898528 -0.05200004721637496
Ni 5.141217342233072 4.643746238236427 7.004284773823522 -0.07554261042300539 -0.7868920360488191 -0.03539766277300355
Ni 0.8534417526120133 7.555912106998833 11.231018623866893 0.6593743181101032 -0.3956722076966089 0.040392030663801405
Ni 5.01735245586037 0.6304441823065706 10.196983316695375 -0.6901869326155855 -1.62667757766256 1.6378598195316245
Ni 8.200371959110912 7.389750125557528 4.615769265071515 0.18203178982619617 -0.6584248097126402 -0.03712107322201349
Ni 7.137335777372862 6.109429380892091 6.8237655200736915 0.5724746308030657 -0.16690161905297707 -0.899843940358218
Ni 2.502768407453593 5.398162227593038 2.2489758698602014 -0.622821972907366 -0.14036500621502923 1.0907496356352764
Ni 2.124187660011172 5.368414720500018 11.106517650074778 0.4154565894123877 -0.23597893346661294 0.7980567944163869
Ni 1.5466257198295739 3.2790125249207995 3.7053732235213697 -0.9602432673818817 1.2512911167981806 -0.2637321923204813
Ni 1.5528416168340853 1.2587825709340614 2.575162767085148 1.5375582569963844 -0.6286311233899754 -2.1148570486609706
Ni 1.0245447378966994 3.5785263375798846 7.9158342901384975 -0.3886960334890919 -0.5348244245504596 0.550988950125464
Ni 3.527847748736978 2.9937155379178058 7.533696164906032 0.054727730560183166 -0.6344420736447977 -0.7363505756558415
Ni 4.2115873581589085 6.696994747156752 5.8055508487183225 0.6123951211470872 0.8569705380334596 0.7701101886047897
Ni 0.610776214321158 0.19388705673926998 0.3616437872662795 -0.07409070846782724 1.1486537070409122 -0.47244534809260574
P -0.0537403258659739 5.720392153649077 7.933565906535187 0.31100269527167085 -0.3621866743446537 -2.4266619281189623
P 8.69110162379071 1.609129010700013 7.851063918465539 1.1004866604173822 1.7945724138667416 -0.014529046854110461
P 1.7232713642945219 3.2995086751018565 10.067415390126405 0.8952990013000129 0.28924859142403087 -0.03769957143330282
P 4.220041340528018 6.386535156682142 3.4879454956192406 -1.318460415555826 -0.5313871167341365 -0.34740591649105335
P 7.032055154493241 4.228730910830244 10.434090791979573 1.4571436631930583 -1.1840508555932836 -1.0076361548435484
P 6.2095180081688195 7.811887457403285 9.979383428380585 2.4384764042553875 0.09213162512993811 0.8421064764374335
P 2.733526787940325 8.302780221421393 5.707506399815089 -1.2476445211845286 1.5222067142409785 -0.2481194254838888
P 6.851205171529614 4.080373940487869 1.4935568195729794 1.2534287319664736 -0.47673420527594673 0.44029293172977724
Ni 5.156023137721953 3.070761853120958 0.28562590400192034 1.1737993530686042 -1.1907215827452398 0.023479056958546664
Ni 1.8093968759969756 1.311563329026307 6.8451034440619205 -1.3283627622712024 -0.7136150817315388 0.40820247895313566
Ni 7.134825859777746 0.590376111528217 8.869981729190515 -1.0153924017501996 1.344001497249724 0.490143279593001
Ni 2.895810629559572 1.4102927951504454 9.304079679179063 -0.22066158638325226 0.5850483537030181 -0.12177464480735156
Ni 6.139276559802968 2.1325419705624253 2.384431682542192 1.1933109407389708 0.2784954666725849 0.5082289334501182
Ni 4.29632652548572 6.867841304037316 10.161932362784947 -0.7629213841658344 0.09641713987916943 0.6750135673092568
Ni 8.554333767542753 7.355399592694404 0.14929207321535673 -1.6490891125885407 -0.7252272120491703 0.08078328999665442
Ni 7.634752514923404 3.8384251331781463 8.168896505139232 -0.06766140790271573 -0.0344682089801987 -0.2735867165170579
Ni 3.3737098129589205 8.352933267951965 12.218731000635838 0.1171515442130434 -0.21819229890715328 -0.3451562012249281
Ni 8.98209802656023 5.182590207717912 9.916960781071866 0.6709008306924639 -1.5403340199693085 0.9287079157777618
Ni 9.038158893567394 2.857210452826016 5.55410784770404 -2.913698286651866 -2.624206211758461 0.6483483993132447
Ni 3.344650947516546 3.002187642435617 11.445316656688325 0.9862147517449791 -0.736393770188951 0.06896752830864897
Ni 1.1610951283602424 3.5396271453927586 12.645429677309686 -0.348822851443238 -0.9191590957470621 -0.3053709509071902
Ni 3.041331483630209 8.47700655903473 7.8839800832589635 0.6316128317261187 -0.5421371561617889 -0.2131825043973877
Ni 6.017803797058823 7.786625182113812 3.483914223640659 -1.36607133256557 1.1857524116654226 -0.5787072419763388
Ni 3.2666169752091787 8.465535238906872 3.455202397345912 0.6012275345660419 -0.520225443690362 -0.5038734846948999
Ni 3.746346495627348 4.424395750357101 9.517966339224978 -0.780807777527952 1.0178028109639052 -0.639275490477699
Ni 7.5216250016561625 6.310259032798791 11.286545793594804 -0.8662892443312242 0.2121149823648218 0.8893422694959459
Ni 8.102149913150408 8.981545301024843 2.3872696110287994 -0.26990618234167707 0.1048416164974388 0.33297122912296206
Ni 4.90773157836681 0.39768874103296653 1.1089658615138052 -0.8609812018547494 -0.561272334329343 1.0947376737487469
Ni 6.105215981319062 5.809154437987555 0.31087096325012714 0.1971244224932605 0.7663324667299125 -0.8071919239484356
Ni 7.996778679527279 8.784186040594424 11.091783437073268 0.17205359556756178 1.491506456943644 -0.14157445314209813
Ni 0.27394708527143186 5.121282978661752 5.565843751202938 -0.8773185055621923 0.8559097008691131 -0.02934322904880753
Ni 7.307955807394662 6.124597619354995 2.473219337888852 0.08344129644479178 -0.10544968239508291 -0.5613785208899041
P 8.845955384442464 1.6379794714323235 3.621611746116988 -1.6659884594470404 0.7434902720244162 0.5737537546258055
P 1.9100744731064927 3.244924763213842 1.5420290368115142 0.3382882704605013 0.5002700836143578 -0.9333204748491087
P 4.922473946335236 1.181654706061754 8.214490019056582 -0.2489347222963326 0.8227452983020024 -1.8327401831857146
P 8.654775776719154 1.7682686595196018 12.228081123258223 -0.23876935172755656 -0.32376693691587466 1.197878248394679
P 6.601645061765387 7.893681775566152 1.100173901071418 -0.1562557093033567 -0.13416787626538185 0.29741492928490715
P 1.9423953253150832 3.291263097442811 5.788363802890104 2.632479764621163 0.6648949908180162 1.6081136986174434
P 6.8791223416038125 4.156160766356288 5.751920161851991 1.6426294730061262 -1.1647359573147553 0.47870392740780776
P 2.610640497597487 8.279502321414702 10.039008922037274 -1.2005221137754292 1.60207237751937 1.0393324575055647
