# total energy = -340864.7482624602 ev
CRYSTAL
PRIMVEC
9.31757860971161 0.00000000000000 0.00000000000000

0.00000000000000 9.31757860971161 0.00000000000000

0.00000000000000 0.00000000000000 13.63721813059256

PRIMCOORD
 96 1
Ni 0.669145642417958 2.9899457864528474 2.286525430733363 -0.3696719269781053 -0.15714633943842612 0.09528302627472622
Ni 2.1044124229993217 3.893247772515048 10.059602730656612 -1.5088632030545368 -1.2270011339025644 1.1537699452215548
Ni 3.249719881014914 4.077456303701995 4.183653407101247 -0.8189125548194736 1.561037571065247 1.1460908314097422
Ni 2.0252130039255207 0.9201258061892188 9.603711307552516 5.423173647823635 0.9196589182016162 -0.5735912609060122
Ni 7.295692086240394 4.933583388732353 4.207559518809205 0.6739347324227813 0.17304141340212778 -0.47430528411947986
Ni 7.9199419073800925 7.189918932672654 8.603325741831778 -0.4301843825408656 0.08115147196935056 1.9044605916491524
Ni -0.013012930432761222 3.3973662333259087 8.215946475015874 0.2683732906369185 -0.6765593145298219 0.8343407164490856
Ni 6.879708784528647 9.274391737222809 8.663779124289745 0.11421045930684848 0.4281292997840498 1.2528504908655005
Ni 0.06788694675644778 0.25488981979989217 9.53129694929866 -4.447541813800824 -1.4195723898075034 0.07698654195838353
Ni 4.080903807826384 1.9080164988537247 3.9156817067861054 -0.6348948449115002 -0.7857586937753241 0.7128365516943013
Ni 5.806649831865791 0.8447624342722042 10.934008109851334 3.542900966274595 -0.3340780890338956 -0.2915864955285882
Ni 7.926026286280704 2.613319937231423 3.7004316621115865 -0.5634850257099456 0.3863740702241346 -0.8292159936280107
Ni 8.652573804127611 0.9920519233184304 6.702229408689361 0.37461358725409677 0.8049882314288975 -0.8957908533347669
Ni 1.9736402057404048 2.205964713409364 5.334129326029808 -0.5899437341221065 0.7555816559713115 0.8384557670587237
Ni 4.298469270811472 2.2948450967675975 6.914110216900693 0.24035777926059892 -0.9486704749426177 0.48678181931993586
Ni 3.866096348140806 2.2472229519574567 10.473765377487535 -0.05309508005276662 1.261648034552472 0.1386534228405612
Ni 6.605613571482295 7.8327945936627685 10.843484105607851 0.5380951248819313 -0.018890409146599726 -1.0658428450912676
Ni 2.953979932614627 8.720526905692932 1.4085066945131337 0.644829844637025 0.12228243768170552 1.980031484206932
Ni 1.2321938795289094 0.8177852486199247 11.57603493942055 -1.1786201714960152 0.3968749697554584 2.5110383347835143
Ni 6.011888138211511 4.960175758383721 2.058974318639875 1.1686016109177486 -1.374519206222607 0.10170024265497968
Ni 4.398512113469754 8.363123221359654 12.660261941930687 0.3743310230166714 0.5464391259712524 0.4371523292182665
Ni 7.4711048231207915 4.381470262000815 0.10170230342734642 0.18262288644297578 0.5454975879935895 0.6438839357839878
Ni 3.878404869622746 5.649555454738229 10.510913632064632 0.8915786150256323 -0.7754575689596322 -0.7640120461268519
Ni 6.570439711834812 7.128534724101102 3.0725060561689914 1.6571328088286232 0.15361827168050962 0.4218162130818284
P 4.798096476643867 3.97883905058704 12.080052588343248 0.5650590550652849 -0.5283596427617223 -0.6857273541823351
P 7.674498248881027 4.848122556762365 8.01856195576866 -0.7601461354135425 -1.6930768310234003 0.9741729900890964
P 1.3995562283999228 7.0611406772586545 9.733550835182104 -0.07400997582856285 -1.3428632698802228 -0.8877307020344518
P 3.787372125581448 7.827446303480608 5.226572787896101 0.28232332505910734 0.3119380626017466 -1.2751746082839972
P 4.927517644989171 0.21510655396231476 0.9093994095730118 -0.1487815124134986 0.8147000594000228 0.44987260499841236
P 8.013760607457046 5.8222008707404 11.976791453996954 0.06336535163052312 -0.8430475001944642 -0.1397973066370173
P 3.9255797706545876 0.13298607396149778 10.75609639835969 -1.5059126050666451 -1.179073199873034 -0.3295678598683679
P 0.07404586628677513 1.2335915163360942 4.334630793802698 0.4404777940470736 -0.5261322960931003 0.46282453717339
Ni 3.0277565208765513 3.7259506466950367 13.371578945610764 -0.8316726826986193 -0.3759842423493783 -1.3958771030730928
Ni 0.06831741889306069 5.253875157045519 9.779139884316725 -0.6032646196007289 0.6481069727263999 -1.9026173677928266
Ni 2.064440010313839 1.246803842953347 0.2955992529616973 -0.136507580142152 1.691623129296009 0.11499438866072455
Ni 6.769146395501622 2.4601109904278338 12.70804621261046 -1.4966214095727064 -0.38566110331751 -1.4976930453703303
Ni 8.520832558682379 5.796670705062492 1.7196672356860256 -0.8201916786422132 0.21153082772657766 1.7386041260312382
Ni 5.194708532208033 8.93841848393303 6.185978710672311 2.483077845014846 1.415256536040969 -0.5693232296582775
Ni 0.6427871439923257 5.684496374917846 4.667351280363221 0.0670847094636393 -0.9664110867554904 -0.82338036078284
Ni 7.221729146404178 0.2144878667356677 0.5479267386150842 -2.696711835127356 1.6333156518043677 -2.19502173123702
Ni 6.12737952637854 1.6588364912901177 5.141081207916354 -0.32664991489062456 1.3336288957661482 -1.4823803262726598
Ni 4.381134829167091 1.5437830293226715 12.517889339172136 -0.8163944163833101 -0.13315614717141583 2.477981404328545
Ni 7.428803015756667 8.347553547327617 6.533345499214259 -0.5036582833603003 -0.8470607351189154 0.1843686654894889
Ni 5.171302774477045 6.280122594246403 4.631499100985319 0.24274170611174326 -0.7306596959186513 1.282053851902334
Ni 4.195910681900257 4.514199170789791 6.230667681703107 -1.7423060003628577 1.1604347588362403 0.7074711736173299
Ni 4.966446488858623 8.826747303038971 3.4671809871184 -1.1035979523528543 -0.6178504878347036 0.2519922781757337
Ni 0.24888184504474078 7.843817289282098 5.660455158318526 1.6008665301367269 2.721620682553893 -2.220083302191338
Ni 2.967322705333884 3.569238290294771 2.0639517691891958 0.3950253181412294 -0.017293754083441183 -1.091004946179192
Ni 2.4790256752184003 7.96335250661125 11.355288455062311 -0.4133092040520817 -0.5534551522777693 -0.15714633943842612
Ni 9.281379921258731 7.380137302130495 11.162636334044224 -1.024198944298236 1.2823816675553978 0.9601100842381273
Ni 5.8641579276920845 6.424992308100455 12.506406355164305 -0.6048458480449196 -2.401710400379948 -0.32893896803511735
Ni 4.087649734815728 6.005179481537024 2.70150522921755 -0.8686893691322846 0.35903630164113004 -1.1091350801209996
Ni 0.9205879580934613 5.976956535610607 0.3216148644906337 0.650852396682021 -1.036475447672744 0.45627876563507225
Ni 2.437217699526148 7.121341553333458 3.7726950755902653 -0.668031736674785 0.05468530735802195 0.1299309553658988
Ni 5.811569513427081 7.497911497082595 0.9191148488986886 -1.1999173903118947 -0.01909481184792195 0.9855665766380188
Ni 0.3523302627231967 8.83648417279569 0.008795794306549186 0.23121982151507275 -0.03959241758064149 -0.42586210101642785
P 1.1768847322792528 2.928393861464432 12.45601688947594 0.5936250396284357 0.2739713535499862 -0.8507124729388897
P 5.481214760102185 3.599511103538392 4.110611975799902 0.24293171063536229 0.7277324949695273 0.06544665963958407
P 5.624295498843043 6.72486926145001 9.024729079081787 -0.3874958425334036 0.43512784258906995 1.2262110339011012
P 7.870484199563183 6.783747041347345 5.122848569887695 -2.0039630553218646 0.13946512010857914 -2.5411654931861976
P 7.390955011018105 2.4490603420723596 1.3322199505455057 0.5530414617791185 0.9077171724587078 0.11950076117151033
P 6.41806002953682 1.2283643546772234 7.053196509646616 0.20909779280505278 0.6839558641042092 2.358410194930416
P 7.818305758761619 2.1742010875714124 10.192961507766693 0.04473693789605843 -0.4021025367029849 -0.02373025373740429
P 2.064700902517847 7.628255105720641 13.546571459691133 1.181722464570423 0.1874056525435998 -1.2329182707179476
Ni 8.73928319164535 6.117773102723825 6.842855897196801 1.9950919780844802 -1.7151988597334202 -0.02760799152525568
Ni 3.544900774692328 6.1286746698198655 12.756935548125782 -1.1968557206674355 -0.12599151110217657 0.2074638567460556
Ni 8.904213652471862 1.9182751530184605 13.433219387596967 0.5205018372802004 -0.09385015048294161 0.026868799366385983
Ni 1.3183255771663467 5.374994362756147 11.680455180558937 0.682511932568831 -0.25630736061131987 1.0785466658111813
Ni 0.6115005781845599 7.901856487095123 2.4617909498700694 2.1969695989920095 -0.9977752028890686 0.7410610937576334
Ni 1.1167677144128805 7.692257553910987 7.734593836316355 -0.9782700429766056 1.6399802083087367 1.7890915932578284
Ni 5.912292539331527 1.468105655002976 2.622301151354392 1.1032156293127708 -0.33552870543749314 -0.8503584320335806
Ni 7.409441087187801 0.05374938457283859 4.239906425074689 1.1531973605475365 -1.4176211796184037 -0.5747364302540489
Ni 4.454762336169582 9.219296894283586 8.572764083648005 1.3124288646497655 1.6693229231369122 0.7868436993093868
Ni 8.478074189961239 3.838003848316393 11.517571791776014 1.0691382280130879 -1.9305238643951075 0.3677055472803539
Ni 7.779153293003019 7.390088476197651 13.35278725285923 0.8601108834346542 -1.2714195121169392 -1.184386127445515
Ni 5.913848574976859 2.2703678174844355 9.077491732068752 0.10233607646676571 0.3677891081330956 -1.1638031610878408
Ni 3.095141250140284 9.297117311707632 6.683654815521876 -3.0975427042067687 0.7441363902488475 1.7457520499299288
Ni 2.399267201421725 5.18403058700114 8.091548413355591 -0.3238859789922422 -0.22471981561302587 0.1779689326107322
Ni 5.062743664873651 6.778491926952331 6.976173676960538 -0.46678969246872515 -0.45475487279137805 0.4942670719533875
Ni 3.2912296941883006 7.416764704057449 8.89607567922256 0.2833242555197959 -1.0923812577014285 -0.516848299688013
Ni 6.858986489467456 5.205572828989215 10.257015202639971 -0.6812477211444268 0.2962679601646575 -0.759697220801582
Ni 6.3422801618512645 3.972055853282837 6.1866607574342165 1.6818534515037549 -0.8012585891831362 -0.11023887625361013
Ni 2.422207080216984 6.686247897678139 6.2882027985076725 0.23882360200425964 -1.2778629537494381 -0.9746566145937343
Ni 8.822088513681688 0.5994007704658261 2.0406596859185266 1.150513128847154 2.8484429170874814 2.4402437805684554
Ni 8.879494116142121 3.503828887718526 5.89873825757545 0.622564091260289 0.0960381592731959 -0.7306093022966901
Ni 2.0629678328769376 9.30142203307376 4.622144251955896 -0.6761661928564614 0.3048140499624557 -1.9525960137037983
Ni 5.038536595373212 2.6933206680746764 0.7814942112845663 0.20362417128499125 1.1915859876280641 0.6050201688392548
Ni 5.457753096898912 4.56730936946281 8.27015428446147 -0.3060510076933503 0.652999782042327 0.8453275544778925
P 1.862360363152357 4.35835334920998 6.0767170556338375 -0.4055802108389402 0.0805187234813581 -0.21004704409219954
P 2.349427472877518 1.5561847265917572 2.7412987443917136 -0.71682073315303 -0.5310096787900597 -0.7973877933738203
P 4.311485928275719 5.127463566625018 0.7970396596119462 0.8640109898200087 -0.1941951646616075 0.49863409067283154
P 1.168098255551418 0.9903281712562361 7.788801645761951 -0.014443429118839642 -0.1856673296962544 -2.300268810702993
P 1.8093806105813415 5.459653882956683 2.5213172332459384 -1.4481072640224029 -0.5098595270750058 -0.3319985807970475
P 8.05957514199656 7.99014986299434 1.6802827622174314 -1.339680758387183 -1.479707150315871 1.964019939270024
P 8.062323827717357 9.08197441918833 12.015316846708068 0.12706083290695538 1.797608629589904 -0.44747710818304226
P 3.6524442682158345 3.415703228236172 8.791301370093022 0.874248865497933 0.4328842979705319 -2.4586875890959394
