# total energy = -340894.7151793573 ev
CRYSTAL
PRIMVEC
9.07362413883148 0.00000000000000 0.00000000000000

0.00000000000000 9.07362413883148 0.00000000000000

0.00000000000000 0.00000000000000 13.28016610316639

PRIMCOORD
 96 1
Ni 6.674975434504889 1.8215482289412646 11.58857891654067 -1.2695588047591169 0.5254674088155917 -0.96011188401034
Ni 4.552300835346273 0.3366967922659266 6.0013205295926975 0.2744189826103661 -0.197895239221014 0.1922681228422237
Ni 2.62419196242295 1.6291692461664342 4.8116304625085355 0.33876932386197783 -0.1925144345250749 -0.2489689179683777
Ni 3.3679569477098483 4.283739702803616 4.715773973133565 -0.19718870007229264 -0.10524039459775424 0.35363518523021675
Ni 4.90385840951903 4.640160739610431 2.5604824166416464 0.5023994712525347 0.15958528789722193 0.11698030874250176
Ni 7.099748083293725 6.267560629034998 2.6188085811155113 0.7088819379219277 -0.7021245645934359 0.3886332985719565
Ni 5.191220091647078 4.612086945972787 11.515949090693056 -0.07692817791662236 0.12803013879876016 0.22604521929266874
Ni 5.717644553662327 7.916936836555999 12.282732953510445 -0.015238157105993112 -0.2578384525438656 0.7492451722303225
Ni 1.7732039585788317 6.373776475293 0.4460421315509563 0.003933016505819033 0.501956213067529 -0.4449525419889756
Ni 2.7420764895529657 1.478338389140399 0.21089189846936296 0.705381638078153 0.769858734715616 0.7847860454494098
Ni 0.6174211182058889 0.0473969839837092 4.5711658076643165 0.45608516156702744 0.11948559166285873 0.4917044534325339
Ni 8.531956166405106 2.3605668815088894 1.332571521845834 0.21044479375125047 0.11873508665007938 0.4347930849574706
Ni 6.807504791282984 0.6408274394947273 4.824963246080338 -0.23131340967014358 0.13573444942155335 -0.03182614337166132
Ni 0.9388479081082761 7.515855420859564 2.545741406575804 -0.05509565542256317 0.024385627933216067 -1.121608787107978
Ni 7.74535460071636 3.8318096964331807 3.7963481578764124 -1.114003206846578 0.8635741593929064 -0.4771121574406557
Ni 7.856343173365247 3.9727865974506567 12.860672917587014 -0.49043844223591665 -0.5146137539305397 -0.9920020478507173
Ni 7.797845517391786 8.86432302514683 6.980135030731268 -0.09228640554024752 -0.7407687593281952 -0.02908611873267894
Ni 6.881790553568501 0.7693562353113363 0.38303942110396855 0.46704603145390533 -0.5744538660166235 0.6371864691591542
Ni 1.9133914542807056 6.417547638999526 9.329595796075814 -0.4292220186275963 -0.16618788081540414 -0.8592341372566558
Ni 0.15175182989423855 4.754579142251249 1.590911216595083 -0.5836291047579885 0.5057033388147871 -0.012435397549875358
Ni 6.387495795260716 1.956718010395686 7.007757865240343 -0.44039551874591254 0.07240997833129464 -0.015120143470890088
Ni 3.480932644084219 4.379058126256572 0.3771823966071686 -0.07662067397853256 0.23210016723749707 0.40675520498364787
Ni 5.9649371108052955 5.557413421843597 4.709438768635245 -0.39131341650728085 0.8827944410750991 0.5821170389888362
Ni 5.355343808297919 2.6538173458188474 9.65011250145918 -0.246036317702615 -0.029384109589071977 -0.22950798103028863
P 0.1495433097354142 5.6418072016185565 12.536330772191487 1.2939410902582231 -0.48594312546872437 0.5771805209191673
P 4.01221149510921 6.28625229512858 12.663076600829752 0.529888420701423 -0.1804446478447344 0.10002851137951159
P 2.5268138262499718 8.69986358439625 1.305486753258773 -0.368451681417759 -0.7492816818952128 0.17698985652691454
P 6.100723898713292 7.634901371902191 5.842343372654614 0.5384378529333307 0.5346022812373245 -0.398521761330262
P 4.945279504527383 0.9431578796589809 12.576849041580271 -1.4051919527161154 0.29464173741514416 -0.5032204244919334
P 4.121975128475266 5.822835080372477 8.142760291201867 0.4122694499336577 1.1679809466146143 0.5155270097734282
P 4.641104396539427 1.067194324076108 3.8900532909257586 0.4787041845181239 0.7028437021476476 -0.1794043795056781
P 0.0028164529880816557 5.935729114127993 3.6189651540107404 0.1308418972159424 -1.1575954896152323 -0.4020631988246172
Ni 1.3751531334043663 1.1748438029762394 2.4120769393956185 -0.3109900968661805 0.29834386885707975 0.6871476315686295
Ni 1.860501298135319 6.712349693067738 4.659027526653338 0.016937399185286958 -0.5034322833924233 1.006425679475215
Ni 6.237472490798918 5.687447531934441 9.347204978788346 -0.9625621453230454 -0.21908755702791302 -0.08072415462394485
Ni 8.613183251293338 2.122484053047953 10.191730747393704 0.2811858690205545 0.6335367882217089 -0.7507500389106232
Ni 2.362898802958428 5.318495819945471 6.980042479763232 -0.9519887406825733 -0.7176260026631447 -0.21756186441200598
Ni 0.649397477662392 9.249834101514823 9.14765783280287 -0.24553469547584814 -1.047598554169099 -0.21276007214798845
Ni 1.4370171039995363 0.9276782765737125 11.305631552642975 0.2639833890993389 0.9632617424932313 -0.008998346843868375
Ni 3.852261645644315 6.906044351368573 1.516382281177863 0.961675628953034 0.9263818387477465 0.6222383324897541
Ni 5.606510803024363 7.8770310368086305 8.068802994116636 -0.71039066125697 -0.4357649619524367 -0.2645875983422411
Ni 5.541697904526078 3.0292748464433026 4.904856508193929 -0.6616296898031832 -0.25269033268402286 -0.026852601416469883
Ni 0.6738109712504478 7.478118217324024 7.030095313584607 0.9312008574029446 0.799574516612494 -0.6910657356761131
Ni 5.331852194940497 4.071217274044439 7.57312087865074 -0.19623842034388136 0.6489914322138822 -0.5047049794572598
Ni 8.348523777207108 7.028084598435899 9.127564291752268 0.39258842656496257 1.508671398758705 0.9887128355764843
Ni 4.662599812547048 0.07014093069738664 10.40425317615288 0.12943241846292547 1.0056767171243324 -0.5771211284361416
Ni 8.141019062695381 7.464843504947853 4.959079579751524 -0.739618704884152 -0.8765644010049871 -0.5191985450877445
Ni 7.280984655406943 6.1239795978384635 6.977187010190586 -0.3785594592757222 -0.2908609302164733 0.39618231456380804
Ni 2.3545419949622195 5.272256630424646 2.5704289236182416 -0.10877154767946427 -0.5800660699970785 0.294175596412003
Ni 2.536967211861001 5.296083967881805 11.443838276156388 -0.8738932819307271 -0.830110480417822 0.2536794360701696
Ni 0.9357628758404031 3.497319609601215 3.7866402872193623 1.3220699872839554 -0.4090547996511019 -0.2431597674857683
Ni 3.6677676424011953 2.6055547380752704 2.5974674167212846 -0.4277294932424698 -0.013759258567621464 0.45778286098442444
Ni 1.1022729556866868 3.3812407337103365 8.20120622751672 -0.31009458163510467 0.46719541254757607 -0.03822407647820514
Ni 3.4628852053171624 2.557083436972396 7.018368561516963 0.6155740330957012 0.3793202487011467 0.36599062147177613
Ni 3.9393139973442355 6.910862445881044 6.029102152527326 0.9575978593392346 -0.3383926572488495 -0.44815227987319595
Ni 0.9066592258427487 7.480450138773563 11.601606826335411 0.4711639102770208 -0.7013370356951341 -0.6479205677472067
P 0.20013148739150846 5.651107666543761 7.9335579015803805 1.213695932153226 -2.5620371944288842 0.18343535504194214
P 8.344504161634555 1.660818047785084 7.793465678933838 1.3629140178835109 0.42002184018556693 1.9526991149405657
P 1.650074876593432 3.1029073077779756 10.49791838525523 1.0398677611837446 -0.0434542145288929 -0.5182778330456881
P 3.953967900616632 6.258142206993667 3.827901686439731 -0.0705299876997624 0.03212464844868661 -0.5185071754476747
P 7.045496883500747 3.8015854538323426 10.695925737194065 0.0356354898154225 1.1087455579920649 -1.1959915728949275
P 6.588712488120571 7.724494338410948 10.171942987482593 -1.8872331720272726 -0.2833319688292798 0.020644158612912834
P 2.4303793470059905 8.635350115500437 5.8283600102192645 -1.0812393821519957 -0.11703764434299845 -0.33274445782413664
P 6.794447845890427 4.061390538908832 1.4997158480318953 0.24216115101792487 -0.13225703239591416 1.026392352405129
Ni 5.098796154351331 2.6701589432142567 0.602595723433896 0.6355443055700409 0.621420207463833 -0.6818305902310903
Ni 1.3621687770063482 1.1155476680628578 7.071821282370021 -0.19257742655252638 -0.0150653789735547 -0.7087955488557083
Ni 6.830216072949119 0.5858857368912052 9.156887523458403 0.36852495785785566 0.569927953121812 0.21776241045858627
Ni 2.7519304455615243 1.6607363851662285 9.412238366357542 0.9937779088042175 -1.2285512519985036 -1.320491844163558
Ni 6.270790839291946 2.2034842973282527 2.7044790198319113 0.6254905208784647 -0.4143157909397252 -0.09900161277689401
Ni 4.052534681575173 6.780238550209577 10.462765349925249 1.4780655009473898 -0.3115932776678182 -0.8359479130352054
Ni 8.202946548660774 7.164025637957289 0.49027605009766395 0.45768695883650856 0.5643391461801249 -0.1890645283032615
Ni 7.686466778897255 3.9262026102057757 8.439678314460867 0.3291868223798653 -0.4326264163234549 -0.31739677172347275
Ni 3.129139155679213 8.42897960402837 12.394313126464818 0.9281957520280336 -0.6823597232616829 0.32094566541699565
Ni 0.26761838297609264 4.7108170521690385 10.488848390387684 -1.0699473541779443 0.2720728509756927 -0.4512833693030099
Ni 8.595163033399233 2.3818173096599433 5.692171260754013 0.29854184380049875 0.36472461027515896 0.26416182365873214
Ni 3.648204908373154 2.7679000243599257 11.665722870486128 0.13939518610259222 -0.3909804586478944 -0.6356880302367568
Ni 1.4144056322008909 3.427861015452487 12.63085888296641 -1.4593501839260739 0.1974689503168728 0.6752501088000952
Ni 3.0850322678729474 8.226165953288676 7.850026116115562 -0.105241937259651 0.4975922796718785 1.6328525961250202
Ni 5.546779134143752 8.116910442884388 3.4550074846849057 -0.4975570555585689 -1.0278411690365135 1.2042959789955647
Ni 2.8835342926592573 8.58228756049302 3.482643929630457 1.629161520426678 -0.13554675889077947 0.250415163496601
Ni 3.3789814012553356 4.103573818359836 9.279781598573983 0.06859574679152702 0.2820561874406497 0.3564340881315926
Ni 7.444445997482623 6.147534726566105 11.49209816181267 -0.6608781563491393 -0.43162548586276633 0.02505925696147297
Ni 0.7301418457369443 9.201653156390103 0.04638618223476494 -0.8006677496766726 -1.3678345951135797 1.9961548721313558
Ni 4.734925671980034 0.47282202636095694 1.662411376215197 -0.7979655202541612 -0.6104120292787875 -0.5084744738020212
Ni 5.952070711523402 5.837724897877123 0.5072283024096258 -0.1832003562130006 0.2423190167520278 -0.9001349892360756
Ni 8.063593826396088 8.706514551020812 11.311474966703301 0.21466705936271416 1.0506933910443388 0.3338983689229217
Ni 9.139135884844087 5.117133949096541 5.655040175322868 0.330737711806753 -0.7760221832138506 0.3823847465590834
Ni 8.079726730432201 -0.2020587251964973 2.495436325998409 -0.2393655905506587 -0.061476876358558634 -0.07649751813710697
P 8.42252825713879 1.5551647662347527 3.607516962209637 -0.032593617665305157 1.5740087865139345 -0.38203584786009687
P 1.826774636548014 3.1706056188091525 1.5829826836666494 -0.2606095875310996 0.5626861839577342 -0.10941098103567609
P 4.711089260898556 0.9992328779397304 8.187621197188898 0.059920073394400024 0.2659561965549936 0.593807587952887
P 8.60625100231494 1.6300130932279409 12.427061651350723 0.36097414209379125 0.22482754483548376 0.513873019109773
P 6.394527854106603 8.02358821678123 1.4462232032318416 -0.6900954013430437 -1.3617055993977065 -0.6682669926140427
P 1.6711710531310928 3.2357542414071756 5.927031137857454 0.060624555660592355 0.8673271986774354 0.14126103566673737
P 7.081237889686487 4.118826580837172 6.079288368626165 -0.754198916691172 -0.4918584625118949 -0.33784141273106977
P 2.5313506384086084 8.319288559656853 10.26147788279572 -1.1240536491040447 1.0594096878714143 -0.9732972723523624
