# total energy = -340860.62030858925 ev
CRYSTAL
PRIMVEC
9.29008656934066 0.00000000000000 0.00000000000000

0.00000000000000 9.29008656934066 0.00000000000000

0.00000000000000 0.00000000000000 13.59698075057189

PRIMCOORD
 96 1
Ni 0.852419307045636 2.711813372057672 13.733222535434786 -1.234870252237996 -1.1814175317354945 -0.22735828167713745
Ni 3.773633083924257 0.5474192684233019 5.810914651777972 -1.1370989123237771 0.21345761243564526 2.0787204508394135
Ni 7.6906493608994415 1.4992155583887956 5.197323027142253 0.3284535437582666 1.9097794327589046 1.4435137311144495
Ni 1.0732743883621012 -0.10281988892897218 0.4454707895959351 -0.2180262056429342 0.4959128350869266 0.17413824601073236
Ni 3.178928204880901 0.27221160778431763 10.384557949494171 1.8019080282962063 1.8223585828410744 0.7960366786625646
Ni 3.5905347716370506 3.1764756220789407 6.61294545935562 1.0269065730373863 -1.3071938415030713 3.0946646113280254
Ni 5.807725365126787 4.9545888634133055 0.4317920664231875 0.5600590307475322 -1.2079870546939067 -0.2575990828395499
Ni 6.001117093113128 4.316731533176379 11.654312090552352 0.48383507798678604 -0.3215943547445881 -0.22855384464713543
Ni 8.57945050419142 7.897307332223655 12.539624806411998 -0.4955618795054111 -1.1547027414484694 1.5734344020677031
Ni 9.323159078540195 8.761229624213938 8.353495165457243 -0.4912743078736507 0.0647275220853724 0.547287847124793
Ni 7.63318088660807 1.2192030650786994 7.696937820364012 0.6950974825433255 -0.3957490836811314 -0.24486440888170088
Ni 6.338040655532332 1.5803087223217716 1.9943232794653 0.6872731014029002 -1.0628500810115307 0.5356422924660647
Ni 3.648532780851574 1.0494453168203342 0.9439285158178436 -0.6030039097401745 0.0002969624151285208 -0.3723219630064427
Ni 7.092953074044605 3.5387425401183954 9.040020471166237 2.0079773186875807 -0.8130242143594967 -0.5462110691208464
Ni 1.2100058795713509 3.578141796418058 4.516712719425712 -3.146548701791826 -0.918457184584031 -0.17024533871422937
Ni 6.000819810349253 8.579664176177955 6.552357374060846 -0.9267533631545524 0.7986455770403214 -0.44085060400546006
Ni 6.101338544884114 7.214281602050639 8.954576759785695 0.5301519587754546 1.12627148269097 -1.850755903036845
Ni 7.768983369180213 5.948795326671322 6.246929062456806 1.051945518283885 0.7531920726932125 0.033587091926826025
Ni 1.8443515571600169 7.004492871619378 12.387189353201109 -0.09651869845404022 -0.259036843727341 0.5791026776425446
Ni 0.5903134552157565 4.531954964134709 2.3008673304425042 -0.1129048531215475 -1.2767427241020657 1.7145517130677244
Ni 1.13097511481275 8.871084895551713 11.321145439061604 -0.027244951758882113 -0.12064593051954708 -0.7666327715791507
Ni 9.116250274883965 8.720251053231195 6.031131504160745 -2.533164734368908 1.569788834895316 -0.2512813681516382
Ni 4.6800853913212475 1.398594632903853 12.242735013191599 0.23079738926567347 -1.47616211327709 0.9319788732195499
Ni 3.1398448115178548 6.120085939180912 8.773656043743864 2.327990444987978 0.3495389036736561 -0.4015466641995149
P 5.828135684884004 4.128923147099046 7.334292795809256 0.4011226892882188 0.13762652423794364 0.5588184734722118
P 8.732179524131634 0.8462655538334465 2.003242691390154 1.3837003585012428 2.0750769405495553 0.4472593357452814
P 6.175269052225003 2.9796558522216805 13.699365744664098 -0.1521242036334864 -2.1072285855814354 -0.7945181851355091
P 2.856097703486593 2.2591632037141824 4.9318290808128475 -0.4687493872982572 -1.3564957730619929 -2.6860427854492834
P 7.737452816036838 6.210292677843897 0.619409076721277 -0.3231832964982628 -0.19495518275608362 0.28203587572567557
P 2.2443919663841982 2.864913995452728 1.6294625693110458 -0.22231943370164936 -0.9718456275075004 2.9449276769797925
P 5.605155031805841 8.37929559332695 2.892716436935397 0.11498898934408583 0.06153009819399727 -0.26127833146335
P 4.6140514573957585 5.300235816934935 3.669811723684485 2.2733658156645626 -1.203472454653005 0.3742271504489555
Ni 6.603560614103576 1.956965984149997 11.20849385172614 2.4817208167663196 -0.5027321720016052 0.2818109041990631
Ni 7.592332376834522 1.2888229723434173 13.516037967243523 1.1096809253221405 0.5874644193436787 0.2748313875574363
Ni 0.9887438924718333 1.2001769681907701 4.0707588453384815 -0.1593250922572998 0.31852805711443855 1.1387325912724582
Ni 8.944699539955984 1.3952687819830139 9.669750833845761 -0.1480531188879063 -0.41919085964383934 1.5551697994305604
Ni 9.274906369928914 3.6657473108971463 10.039616113528105 -0.30137391393265517 1.1191387283009306 3.5689668101237118
Ni 0.771228597205764 2.875263151670088 8.157236516816795 1.1674353585237893 -0.3663210082280014 -1.6940214543248568
Ni 1.6971594286969542 8.232326426936792 5.329716977024854 3.716382038317303 -0.044391381631181615 -1.8016758576807423
Ni 8.107829979478227 3.656141361589471 1.13532473325168 -0.9571785124136291 -0.2656337802185683 -0.12916450951351946
Ni 3.3327441649265284 3.7283067525198588 0.22314137157238284 1.8394525622088833 -3.3771123777801386 -1.3911969239886042
Ni 3.543972858745302 5.70810776896992 13.262589546902834 1.0627793756745954 2.603357907554542 -2.4273144741012973
Ni 0.6369877781525952 8.444419098788075 3.109724493485606 1.5612314322436078 0.23314352090034687 -0.3064256174239497
Ni 3.8054702099178774 7.1880835584842515 3.9682919796916094 -0.23480985285917627 0.7791283329430001 -0.1411337660602537
Ni 2.9881377010784576 4.581814857688183 5.066670039445587 2.562702595927025 2.5983090322767253 -1.7796253056386062
Ni 5.445504897519188 5.05013740173965 9.3451914473778 -0.5639221132473643 0.8271128312420788 -0.6564957110107275
Ni 5.460238974503688 0.7482820838692477 4.4234374652343655 1.914561170418264 0.630182012816863 -1.1733126432401726
Ni 5.963529403655822 0.2704046859851466 9.290939200988088 0.5944066549894665 2.080786846450139 -0.8617926420124512
Ni 1.0575927225677533 6.39020449050583 9.52195206274267 -2.4437150269465073 -1.00076899541007 2.5077601782528745
Ni 0.5838819284210723 6.919321359769508 1.063597834398006 -0.7668163483448664 0.03327418867209753 -0.5782477858414171
Ni 5.909033757003188 8.858589729382636 13.361644163825618 -0.6976225629580243 -0.30837271384799153 -0.21159664796750657
Ni 7.730336609876607 6.001544437086197 9.85851795683659 1.6985622796180038 -1.8218366488993332 1.0682979914999795
Ni 6.226169435452037 4.31559814263911 5.2065425088568915 -0.6339779895241856 3.0991079918113593 0.2689767285488722
Ni 3.531654204217278 0.35043041899408794 3.250480450110799 -1.0820521078612784 0.05028589273874566 -0.04031386912769831
Ni 4.388023655987888 7.332813814058984 10.46115006658037 -0.29736479277326205 0.13120108032757405 1.5213029714797865
Ni 5.1998750138683825 6.071257245214625 6.565356062911232 -0.4955310262674756 0.6116885819983658 0.3385037289054171
P 1.9457900102456125 8.293427324999248 9.392304262391352 0.4081243174170326 -0.701108978844728 -1.6598563784073737
P 9.386981971909371 5.821855586497168 11.587673372004108 -0.9425836453185895 -0.47308092479407554 0.003633740097845355
P 4.444107907409973 1.5840897874747926 8.016304048550552 -1.6768135750870026 -1.4620596124374368 1.3108998295997487
P 5.971240175343802 2.879871034510133 3.9569255590166184 -0.14355600234850116 -4.597956233832055 -2.88100773839738
P 0.34766847631597203 1.941460829996699 6.30082735655578 -0.5885478822158444 -1.3936307302410773 -1.1659919412090436
P 8.424807726458768 4.341313101714202 4.277460480068638 -0.1344787226375813 1.1632866264627384 -0.3839670034445387
P 1.779924808176721 2.083143937241723 10.294926267177555 0.19634717800760376 1.1732866750982438 -0.5110869717242037
P 8.81125673932209 0.7413414603414293 11.84411227114764 -1.270408811464238 0.8848433531843278 0.004507143841734173
Ni 7.793416296336099 8.44175284399958 1.435841376191341 -2.007055063983627 -0.8391782470470451 -1.7587122096350225
Ni 6.697018882996432 6.801578805102704 4.324328965810632 -2.0612384920045663 0.9512678033561487 0.18605248094981508
Ni 1.405478586904808 4.962411116137738 0.3372199161744417 -0.42985116757116293 0.26226357819475477 -2.324289856207939
Ni 5.041525491673678 6.85986480699473 0.9380190918772128 -0.41481484206333075 3.3427938070039267 1.970580366096361
Ni 5.765446182052097 2.053815134568289 6.536965558961275 0.7816223030094475 0.6045460574163136 -1.390372628315096
Ni 8.414523600846007 6.847035197716296 2.8824100151153442 0.06220912653889286 -2.403586277246422 0.8393872777340575
Ni 1.08142179410952 5.964774275229544 5.431558619858954 -1.2199604250056988 -0.37553584195805 -0.34444811941431003
Ni 8.417384947448292 3.7792350060060063 12.45167927477173 -0.12687982724440083 0.905086676814396 -1.1978880185866918
Ni 3.338912782276912 5.198016996594171 1.9792306051468773 -1.103155979719429 1.0176266903973572 1.1362162526085076
Ni 2.668549439827649 7.703943474496429 1.828576061493321 0.6474050615633689 0.2660744673004127 -0.45742496342437355
Ni 2.170052695242982 1.4446363009588226 12.367568690785433 0.9403634977388191 0.36504111307431325 -0.18174639737529344
Ni 6.135173039447512 6.589987797915459 12.32122973996659 0.5861292454720228 1.119832926154478 -0.5774024071219862
Ni 4.126126831101358 8.56471642720692 8.393062572320222 -1.5661972608893155 -0.3152892384621667 -1.9550241635293166
Ni 8.105637519094657 8.30071075271416 10.313595624748837 -0.9420198023953197 0.4300781959803045 -0.49247758415313253
Ni 1.9113237898089828 4.582706705979805 11.395140047998455 -0.7291412023915959 0.3402567070407817 0.059456503494420186
Ni 2.0168313007251024 0.6308182317935748 7.848639356751587 0.603161261253645 0.9242336820564921 -0.6337941556481536
Ni 1.6159733639002678 7.224259154813156 7.446386048953819 0.46776156946369113 0.33704359942012274 -1.503894546195352
Ni 7.728552913293364 9.272751069890829 3.7831424163336735 -0.07371687006817626 -2.4730418009350825 -1.6706529548022455
Ni 6.803371791772318 5.078184172493877 2.612714162720309 -0.3676243004204572 -0.4877066451270503 1.2573339805581507
Ni 3.8270696607305896 3.345787446191496 11.669077753830516 -0.7548959427581967 -1.4734246597412688 -0.5391821872985231
Ni 3.0817631915259924 3.821031104589401 8.974401804101536 -0.8275900279888135 -1.3572408787581336 0.9936177290772693
Ni 4.695999309274872 3.179838633345265 2.192335896412605 -0.46685422715807334 0.5880501166438195 -0.0069736031043557325
Ni 5.078592936294204 2.7719666813102806 9.736294793513022 -0.7709913056581625 -1.6353133989606867 -0.19962636297950778
Ni 8.04705423443876 3.682283664637632 6.368594820598109 1.6283894181473437 -1.677328567050208 1.7363636667364937
P 3.9727475051151693 5.200330228100565 10.843687024072839 -0.5389577299925428 1.7389576527159147 0.060913290545604765
P 2.212248267540333 4.809533454815587 7.108365327334192 -0.2356529175857619 1.0405689010158272 0.9511695872153876
P 3.4321387990104912 8.514364159075779 13.042957969961439 0.05554328448294305 0.7919403971060038 0.7370637996727822
P 1.4268736558173574 6.182803312271933 3.234477347328012 0.6695278616043373 2.17898704637166 0.2801551137631949
P 7.701648823162777 7.772346380446537 7.365729519080284 0.0007031967146116922 -0.5721115910366922 1.2373930186598496
P 6.077760305674366 8.724496622702768 11.144520458957752 -0.1605653924223041 -0.8990885502494321 1.8724940660448848
P 9.245846979760241 4.874006654230738 8.348505460067347 -1.6783292404005803 1.0218569264286208 -1.846719271073626
P 3.8047177129218213 7.713800256136122 6.081127032975238 -0.45880487449103563 0.043767374893937526 1.1033986918578547
