# total energy = -340862.8451111981 ev
CRYSTAL
PRIMVEC
9.33573358305316 0.00000000000000 0.00000000000000
0.00000000000000 9.33573358305316 0.00000000000000
0.00000000000000 0.00000000000000 13.66378976921307
PRIMCOORD
 96 1
Ni 9.29552472107014 1.358517300373393 10.129978741574924 -1.4103552420846097 1.0615786704982748 0.15948038688824145
Ni 4.890682819958412 7.207363815589593 1.2168167331565711 -0.9465259177957892 -0.747282649187313 0.3004542303318632
Ni 5.24141700031911 0.3706220939176833 12.813888291914303 0.282758612824313 -0.10196660894248889 1.1087059630033809
Ni 2.1583282801668844 2.078040970121315 11.020079336528266 -0.18709274928887132 -0.4829225934748457 -0.6702842801543877
Ni 4.802488143446727 8.149152633891575 3.559621912473859 1.105684659678554 0.35669891175720503 0.45058660034630144
Ni 4.9155812218062644 1.0696510274164148 7.696457304066495 -0.08611910038727104 0.1037517258673697 1.1010332769494715
Ni 2.3323930354924243 4.777347012521992 8.992713662646294 -0.423948943154115 1.2670748619949985 0.7118435916534127
Ni 7.249458638961159 9.287962776751895 11.49596182820918 -0.3959961666949309 -0.2504339325496784 -0.2997849721789805
Ni 2.9620322609242136 7.327206629433195 8.218509666890476 0.24206139221526699 0.026503959827799517 -0.43827461574816773
Ni 5.1614471052202315 3.037987790520813 4.62019207169477 0.3382291350877917 -0.004704861674837058 0.4895498689833762
Ni 8.687497719214571 5.834049377260127 4.367671677280748 2.2127484590928215 -0.5840731342739425 0.7273496577088119
Ni 7.652211527644405 2.539926396226495 11.492846493864738 -1.1652342371074125 -1.24059275654407 -0.29533850637185266
Ni 1.926634040549333 2.3420461841653455 2.1881326100878704 -0.2135288319932129 -0.5905047488318992 -0.8373699901937127
Ni 5.383021409478552 3.0819217534364465 2.3701075325996444 -0.5481249983141077 -0.24454790608254656 -1.1371019976475705
Ni 2.5160922680234323 9.02600208839391 2.0300562323418707 0.9220544150169862 -0.2958964357578517 -1.1379108667021114
Ni 7.185350155463145 1.8065765048300277 1.3597505507986278 -0.4598564556840016 0.5681688043388602 -0.34199425855717874
Ni 2.2997553103855277 6.801483456108061 5.353199341663485 0.0009921887099402268 -0.06351293295198093 -0.08172122842989152
Ni 6.809764251923226 5.58825817971597 3.047598928391966 -0.45889152066757094 -0.06652626585700801 -0.2955758191936394
Ni 0.718014081604391 6.208057541800313 7.8229574296302715 -0.32995172557034785 -2.1164537037241296 -0.5278533925492651
Ni 8.167161264249472 2.814583682452153 5.515471198146052 -0.3358107554542862 0.4789636088270977 0.4267555593649747
Ni 3.0008782489590526 0.6326023873164943 6.7428074360653385 -1.2608137115766351 -0.7566309231714324 -0.2792313163973449
Ni 6.452747122764777 5.274456161976234 11.804189479340984 -0.5494465453390086 -0.755244584346867 0.08051126728219037
Ni 8.200405812048572 0.32851046622540947 5.372110737472707 1.2058057307718717 0.4081469431248519 0.4301668990393688
Ni 3.457871750591689 1.459417910486476 0.7035922401441124 1.169182166011567 0.809492032836522 -0.9420619684871646
P 0.5083279006730517 3.589272202788362 9.417329906142996 0.4794724301427162 -0.8123058481362332 -0.1485573122178345
P 1.2794156285110545 5.29657251517367 2.8279403166942685 -0.7337864144730911 0.3623008313250147 1.7132355653594622
P 0.8333393338978705 7.919876349309117 9.017131274207246 -0.3527442979848312 0.9893774657436768 0.7838298521837275
P 4.224736926065318 5.979136015099453 9.422262907843935 -1.2774538912364775 -0.20887590660223382 -0.6911459540947452
P 0.5087713480250475 7.9155352331264215 4.569622269246533 -1.0639713391001675 0.7285804447921195 -0.032799305918208024
P 1.0767461850483488 9.118481866685933 13.889242519064071 2.018351719943369 -0.3488817297056314 0.37011467094247874
P 7.113857106587683 8.132310970249458 8.353645346151014 -0.2680459892044868 0.10548104985365059 0.6105105025298647
P 3.143528260295832 6.6289030824449915 13.790999792342845 -1.0643343788665411 0.9571525442716999 -0.6341695367097013
Ni 5.064290124331367 8.666893754880784 9.41772667482636 -0.4102732454392353 -1.3272939546870561 0.8396292185415346
Ni 6.308864794576135 6.007899410709964 9.504682499472576 -0.8716065427790796 0.5877814363634651 0.7842301729459397
Ni 6.398291787939683 0.8639203968648789 3.57810946597191 1.2911504148869635 1.2507892374610974 0.9115373175357462
Ni 7.990874604297089 3.6029397169635615 13.50974400951949 0.019382775401985974 -0.8356517219510252 -0.09968089823210574
Ni 1.5793820888685188 0.7317422780488106 8.750469110344731 0.24522770575839056 0.29486182384575027 -1.8776840948862563
Ni 1.2972375441944257 3.814926222685043 4.660514039231726 -1.341528353118883 2.5600538454502684 1.290227903072694
Ni 7.656767365702805 5.561529974057776 7.827685045189233 0.3189638591002765 0.9091677888623051 -0.3422660241613267
Ni 1.6593426482336704 4.40808140071473 1.0254005831274622 -4.2542701893947505 -1.2069102766899602 -0.6014501920998093
Ni 4.142993241558457 4.016550063970412 11.68948131904681 0.29557221964921354 -0.6888934106151425 0.1530156050995042
Ni 3.082024446507435 6.681855364140162 3.132683871999444 -1.3704787176046462 -0.2685650949327504 -1.49994378907772
Ni 5.105404695661679 6.08755189086215 7.399105782725748 -0.5021544451212643 0.8081653436052986 -0.8502622727753486
Ni 9.258704587253893 0.8966972244042962 12.359308077449898 1.533000976643005 1.8806786587382063 -1.7304215902204456
Ni 7.5782165021303145 7.983471367452189 3.8388144981437184 -0.27335763122538725 -0.6764801245524543 -0.7583929001678615
Ni 8.088423686002455 7.219201525954451 6.493716056648959 0.9127133401217185 2.092695424962267 -1.0439370461571116
Ni 0.23128720162708793 9.21219396182982 2.5681371164004143 -0.6253128576500199 -1.2020786596292716 0.7911096736745924
Ni 8.443881747628625 0.8628635918070698 7.933606412900283 0.9251870471086968 -0.5310366753732532 -1.628763770767627
Ni 4.333236823431552 5.632014763690806 4.905000101200957 2.055921450667027 0.08158058908696918 -0.037272511198213225
Ni 5.413343872621343 1.883988408887919 11.025011404655833 -1.9617244583676277 -0.6096067597686726 1.2577188747013952
Ni 0.36638087008585746 7.784806953758036 12.188606053412546 0.5677378874490286 0.03360097588389697 0.0867222811889087
Ni 6.106932874077801 4.7433742774922445 0.8204364163148493 0.3452081375087861 -0.02095834741922197 -1.2049271848216605
Ni 2.3793611118690823 8.695330399810878 10.392405283045848 0.03064035059367626 -0.6423849826409582 -0.5490958468678091
Ni 2.6551947005442447 8.881624966317778 4.323468845233799 -1.21145290175532 -0.4296066556605247 0.7204776131793269
Ni 3.6572176728478567 4.632633804031716 0.7851501435498216 3.8028101853045597 -0.41670383155592755 -1.3821633530314261
Ni 8.560802476815917 5.650732909811895 0.6988375509573439 -1.0825228768501098 -1.1401850074482685 -0.4512190917239778
P 3.348456951320285 3.0501149086311843 5.784893004898041 1.1849759385107141 0.8789326441268476 1.397975123252702
P 6.001691147782021 3.559472540734239 9.97531830879935 0.9399690905138779 1.5370646051894172 -0.06253154287531812
P 3.5868729192207214 1.1539527029642629 9.769172238096997 1.4604069073253623 -0.41246022578822517 -1.5015872382184139
P 1.0245500977850026 1.3102422212750626 6.403262132575527 -1.9616149293729574 -0.7845009101088232 -0.3612425652638295
P 7.430497187380192 2.922514100061086 3.3237984778291962 -2.0244802014386103 -0.7854619884705119 1.9651633088458478
P 6.64484851564939 1.7566583365958814 6.810210499995339 1.3683783834321916 0.5997535211236767 -0.5909153540067564
P 7.727196140933477 7.393200931143908 1.6226840226108867 -0.6515095706500458 0.774873414321388 1.1610765061852972
P 9.22348086390483 4.697022359541517 6.3044592618307265 0.16878366656703836 0.02269538471498672 0.07204976677839849
Ni 5.9395525041002415 9.198227704175382 1.6543162891954684 0.004635441889482339 -0.7581355327414169 -1.5963208197475736
Ni 3.2014564880670826 8.53925560337578 12.380732652778219 0.33996000173596935 -0.730424954200026 2.460840630883201
Ni 6.084741835010555 4.147502400948226 6.34980945555263 0.744775309384427 0.15052369191558593 0.7054050351169207
Ni 2.720386129154502 4.938920556121838 6.486720791367897 -0.43520934655928273 -0.8822151715328614 1.786886872297026
Ni 8.955918735311107 3.4906775189056574 2.2177969040029635 1.80435906093986 2.149397762750318 -1.453056380497562
Ni 6.110247059550613 8.698597906615058 6.186526539107511 1.826062514055223 -0.09427952471087633 0.6511061645640399
Ni 6.666376717622074 1.0224682291640534 9.374316446572768 1.2007964504827384 0.35272295782859253 -0.47674474679890794
Ni 0.3674302065566856 3.6348305833723598 11.710974978804707 0.8863639035939123 -0.2718656200608931 0.37559883398550153
Ni 3.2575829192291716 6.232041041742996 11.327555461095107 1.2749506651986493 1.1158536297917558 -0.4535261425905996
Ni 8.126410786534482 7.298620612763481 10.357562457632817 0.24750261783549637 0.4261459508054338 -0.8368251734338361
Ni 2.4271413970799225 1.8471962822728505 4.391583292073737 1.7941103866286583 -1.5141067108416633 0.6047167786662231
Ni 1.1312575342758002 8.200153747237964 6.750308698114363 -0.7661275498079579 2.841545932857332 -0.11987408535052903
Ni 0.34325812479273343 1.9531848672667285 3.834674100236136 -3.029001464802261 -1.535842302746542 -0.17027207818710674
Ni 6.605619762531776 6.911934521823076 13.348716606342629 1.099974239557338 1.466876574210106 0.3303682442824762
Ni 8.061322050995214 4.466392393568756 10.247568842870384 -0.1935559884157118 0.9597167054544503 -1.0068450264008209
Ni 0.9662484406647024 6.141353724326407 10.40529046273479 -0.014091445096059602 0.03969011950077036 -0.5638010142884677
Ni 0.034694387246784864 1.5327314274385524 0.8976942807662576 1.2490352308844683 1.8404581206552626 0.46961250662950094
Ni 7.947230049126968 3.492049871763413 8.088649610758631 0.20590551112000025 -3.324124255618882 -0.37538491820248254
Ni 0.8595662106549656 7.029275359028049 1.1173687632112892 2.2268902978108422 0.9852163923874517 0.3592173073036846
Ni 3.208234230752325 3.9175632792712047 3.3904509487676084 0.6784691299580251 1.5419191050682413 -0.9992494734417501
Ni 8.2801796567392 8.96110940326289 0.12445933417122203 -3.0954485406819012 -2.039017218712521 1.663498088925019
Ni 4.602330012356377 0.8044629759092716 5.10283830246034 0.18881127464187483 0.4507622066922172 -0.12070069501688245
Ni 1.5669842344800866 5.565871090240472 12.65607144756589 -0.6949804973494869 -0.3615832364326999 0.9317682998706404
Ni 3.579273631967571 3.187014107992607 8.2871702541534 1.193191384441971 -2.1705155185655394 -0.847279793108257
P 6.662987846279454 6.156935063915484 5.331241695939395 -1.3265791880082185 -0.5714284489267384 -0.6295922017516641
P 8.720107437120289 5.707158084453222 11.905751992975258 -0.5832992322223954 0.2709855314487849 1.638573557769197
P 5.4243787098857466 2.6156858754148433 13.50695729300221 0.30350715822557406 -0.06041063987757337 0.10950636896295979
P 4.729062597689936 5.405893957107812 2.492206793284876 0.1936673171825955 -0.6149770229416506 1.2481672264572181
P 4.186983218876448 8.069537496674295 5.92491967505775 -2.382484976491432 -1.1813900209316686 0.013708093614711874
P 5.3834321817625055 7.615820837579565 11.703336481469906 -0.18006489590781247 0.6928673076612261 -0.3896326863707483
P 4.221693476870567 1.1797099923149288 2.902161266964534 -0.51806186038014 -0.9741627056764515 -0.28573106518907565
P 2.3174838687316366 3.227559199565619 12.743055279413285 0.386886748194495 0.9139672671334776 1.4457349071354844
