# total energy = -340857.47921024874 ev
CRYSTAL
PRIMVEC
9.42535711846313 0.00000000000000 0.00000000000000

0.00000000000000 9.42535711846313 0.00000000000000

0.00000000000000 0.00000000000000 13.79496287256820

PRIMCOORD
 96 1
Ni 9.289773530256818 2.2463925308906205 8.304195021603535 -1.198140243806814 -0.8186222772725643 2.1182853576162293
Ni 3.8919845117295875 7.024926149782697 11.587837754909785 -0.27230913535621487 1.3425609081484557 0.16113489177252893
Ni 3.1708409997360816 7.160085773392201 0.015010824027928764 -0.7012084805370697 -0.2823017277925525 -0.2819669701609531
Ni 9.134387089892362 8.594860787615143 4.345896523553906 0.03461630452228877 -0.7715865160400002 -0.44544053736898775
Ni 3.4340535275547044 7.307432383984071 4.5949917512161615 -1.01202991303587 1.5567633691699254 0.6574341636645967
Ni 0.7708896052604941 7.616386170755059 0.9325033791897206 -0.11010286489637812 0.010960869886877897 1.9474676913382976
Ni 6.323594738823164 5.210346938002668 13.456131135377973 -1.9182818138029607 -2.05436850435761 0.9799330325013254
Ni 9.174378880894812 2.585629990650266 1.3945739802885435 -2.757760365699244 0.30251856906005964 -1.4839417572225089
Ni 6.956997599758031 0.6260020703868763 3.429689587127145 0.15637449426940808 -2.010826358100602 0.41947470943284537
Ni 0.8556367628422589 3.2716923227919885 3.706500077915184 0.06059215976076017 0.8682805637296401 0.07153091816045101
Ni 4.60015873208525 4.22837551358616 8.786260575667853 -0.6970795459703607 0.8918838049708768 -0.5227060440203707
Ni 6.396386773212021 6.190254209171583 9.295405181240548 -1.9930078418619417 -0.8131800232110704 2.7043819500781034
Ni 8.984222297469305 0.6003377650084716 6.286805684229536 -0.6077972173637597 0.1639880449506079 0.13773271079850471
Ni 3.166552462166882 7.702119220709876 2.2685543734982234 -2.413756275800888 2.3526779204323285 1.2491339612458616
Ni 1.7502699989566217 4.925361834832723 8.527659875173647 0.7781199462831438 0.7886660972301063 0.6841450972968798
Ni 9.016230810842936 6.759065096564194 9.233658723065636 0.627476440960242 -2.5072760395276044 0.639161590607654
Ni 7.6470751341074 1.084717244288699 10.825679800647325 0.053890322260552355 -0.6915647867997186 0.23689064664760495
Ni 0.01309087874694855 6.627826421589386 11.692624164636332 -0.035311787927416606 1.0872205394360954 -0.9415243508161398
Ni 0.8614277023642729 5.101078770882376 13.262753907364784 -0.12356541815918719 1.0791696441071608 1.018817882491981
Ni 1.3481748313969903 7.989536066061916 9.84288554253897 1.5349992380199564 0.16789072243912376 1.0892835926127111
Ni 3.551747964096678 1.8482937148240455 2.67343661920997 0.46071957501524524 -1.609122342387616 0.11442283242797067
Ni 4.945041980864568 2.202724850543142 6.624175980709055 -0.3183866464405678 0.8936655794616479 1.3349774393742428
Ni 8.37281822046084 6.222394677547344 4.356145657076429 0.824957989682605 -0.7716757333196969 1.480641232094366
Ni 3.9058020855239763 0.1951284593985905 8.612071490035712 -2.11471229555299 0.8229674416151376 -1.1519130945184743
P 8.326473738641596 4.828186401121845 0.3602371558127825 0.6947640104633067 -0.3129533912401385 1.8627665543444756
P 3.4290580881883836 0.47931429226992406 4.640211787910117 -2.738650641452987 1.7193830730180972 -2.2997566469532655
P 8.880156927575822 3.1302554112240504 5.335684396775111 -0.7832438977732704 -0.31019973975440124 0.7735199856172872
P 2.3682058485704847 9.423161186694875 0.22490787577196797 -0.7925381785910028 0.06026717232117363 0.6691499094396282
P 5.9304159592645505 5.034997590887519 3.38463543672158 -0.029794971874245457 -0.8869881674414724 -0.9196499193405516
P 5.304506257379165 7.235752541756018 0.23472721300184124 -1.1262923086265764 -0.9033707225645539 -0.9701111613148968
P 7.819314113315217 8.575312596585428 12.24693413983067 1.0440702293008663 0.41142432832454306 -0.8557019557336811
P 5.043386158880019 8.934503537738472 10.139077395532604 1.2493332217408615 -1.483022073621717 2.0766411997128817
Ni 6.412711492046865 2.445211017670182 12.533234080343261 -1.2137332131490646 0.7450547882980588 -0.19771988998541432
Ni 9.185321720714242 9.159100376719707 8.452490765675005 -1.0841100188315718 0.2133308570497939 1.0875468124272625
Ni 6.83459990992588 4.056014004733508 9.039011899424818 2.440918438037977 -1.8735808713511604 -0.031705558633397
Ni 4.728287039152726 3.444741882727172 1.4303724298304725 0.17037620786513885 1.5238499062713564 -0.8946569968406399
Ni 7.499294957079964 7.438162089664953 7.85296169632244 0.13071925559514908 0.39423804635324367 -3.128580804459496
Ni 6.990947736734421 1.5772487150933236 5.856293064425648 0.5697605743060123 0.4370114327650281 -0.29392928472915186
Ni 6.937779296233638 8.638632146892865 5.958389477180216 0.358094506553151 -0.06323319692803304 -1.274026353612167
Ni 3.4295105053385413 5.8933366036662385 6.722271329291919 0.15844526075550777 0.09442864869423093 1.1760470114522004
Ni 4.228875057522792 5.267181842491183 4.727216318564022 -2.4146908718000155 -3.7116098137396403 -1.8627552414905664
Ni 4.585954718641768 0.011549832829225108 6.162706717405649 1.995209220388635 -1.4678952452826073 1.2305631402222097
Ni 3.1062207501219414 0.20230304137150232 11.020796007081433 1.2400484540048258 -0.68162207376471 0.13294068872650008
Ni 7.650317457016861 6.938391944457811 13.658793282862412 2.572353745863544 1.2839022179649822 -0.01701967448644811
Ni 1.4059334209004106 5.205935870788633 5.249411273847295 -0.12756116958214161 0.6420597380910555 -0.25541004560803104
Ni 6.43664247421873 3.8583454115439304 5.334719240188109 -0.054806406316918514 -0.07863770440856134 -0.5958415876637803
Ni 7.184073307707836 0.8506243578328074 0.9556643096705879 -0.7502396749331078 1.4892397723966546 -3.3056627064795845
Ni 1.1224658002549521 8.413026794681073 12.681971873671863 1.3028491913811304 -0.7226026299421298 -2.7961158255489913
Ni 0.8728248444053199 3.7687479650981865 11.42816089190467 -1.3652920311973842 0.012717961787300678 -2.799773991126868
Ni 1.3460824020775126 1.4400437889508153 11.629319694900564 -1.3196984017279851 0.6878819386314927 1.090894902963889
Ni 1.6327075174167778 0.6772854394286698 2.9455278336004307 -0.15359076087668388 -1.673901286536214 -2.4475035474546623
Ni 1.6199550089967176 0.3444525099509388 7.258136822795782 1.691415127050261 0.7191828056273033 0.48048338790573375
Ni 6.545957768125498 8.161878724199978 1.5277231751870373 0.34093393561346447 0.4376714349465301 1.4031924057875835
Ni 7.886205874037439 5.109118600654964 6.647213439009358 3.7714751226367045 -0.8082036530424017 -0.6463910184765578
Ni 2.9108519441123297 3.983910021427182 2.937320232467993 0.3782172454449551 2.626641303562515 -0.3676510398933346
Ni 5.090626049642282 0.011579051436839438 12.528074639760007 0.7723668458494505 0.13835671753574882 -1.4727839408334766
P 4.067267881343672 2.130262703659608 11.96306122882153 0.4916556024724695 -0.1939910190706014 -0.44969674154218037
P 2.6145092854019767 4.810476154764644 0.6875317453440041 1.1556283385865322 0.21721116594080656 0.8932086944298875
P 9.148327193331586 6.939890576267707 6.281273942033134 -0.6120387662489329 0.5706154661071398 -0.43549396767923715
P 5.722813039486101 1.7245670496133079 2.047476020395192 -1.5014013474598529 0.24457130312131428 0.6517790222613485
P 6.1440888091409445 5.624761047546792 7.361172001136928 -3.5072307665664955 0.014154951344143362 -0.5431203460106647
P 3.390263317562392 8.058652211105745 7.284154579072747 0.1129436767792829 -0.4996638174889266 -1.0408519794738849
P 6.871085468014611 7.682052635028939 3.580730937778632 0.40644487283208064 0.5776343206271343 1.2860215783008302
P 1.1734475578633072 6.866938310804835 3.1862505163775863 -0.016863351414241924 0.26887439864305307 0.5390302351016911
Ni 5.993876889931412 6.356140497562608 5.113102699183536 1.910844640798625 1.9591255872922002 1.5339697683141775
Ni 4.2204299373865215 5.9092560321373995 1.969410498599813 1.7747571789130272 -2.1400682578192756 -0.6332565379771288
Ni 3.0211569005350665 3.055502902517844 4.980202333717628 0.03948083170344169 -0.7056415766077588 1.1185363188302413
Ni 1.4226822808135273 7.393966589308957 7.429028918446152 -0.6031862009543095 -1.188740804869785 0.444627297439073
Ni 3.924077853318874 6.883621193216888 9.1050619757406 0.10118267958861282 0.3111317646503674 -0.2609376602944796
Ni 6.186955334118353 9.421464622381786 8.247428922223273 1.2017104776565755 0.8211072484779471 -0.6019883239914664
Ni 9.31524084566776 0.6523977834913686 13.417105443498256 -0.9683522696422613 0.7416758445234969 1.0777665931120473
Ni 8.162972065646192 4.696335077922864 11.821952319687453 -0.41096024420393096 -0.9760522093896804 0.15783976596102495
Ni 6.082267890643403 7.024040166196972 11.861640614185006 0.5684598532167178 0.27678131219495555 0.4634230899893373
Ni 0.7467842539786732 5.026806955398212 2.044703080279019 0.20024831283422287 -0.4667200155730542 -0.27007587515032194
Ni 8.863153583015741 1.520526914892347 3.426654622078173 1.3747277226889874 1.6318933175355443 2.4613918754009805
Ni 1.2686342411849527 1.2523377984219934 4.981126961268263 1.0383564667455407 0.3493550697976241 1.7419992677557161
Ni 1.8054366152039325 2.7758902530060183 1.3158769595544035 2.3791222306667863 -0.6639184858373598 -0.7279968043745075
Ni 2.4161809172017525 3.3569446795247626 12.808747641967514 2.273033629136124 -0.7595812640490079 1.607817250422947
Ni 5.225540613962119 1.8863061807945571 9.84527204300605 0.8739794138866303 0.0671189051356844 0.8915829859010065
Ni 5.33082185494665 1.9813514837567785 4.250807863948128 -1.0923750870538411 0.5655069412359809 0.4046003634241741
Ni 3.001382500930273 2.4182262197347555 9.309227467713583 -1.2926326558594448 0.5165292257856975 -0.37453362594578077
Ni 8.347473434694733 6.458311370639807 2.1543181005477656 -0.8712018511414932 0.24899540033093892 -1.3456531739205342
Ni 4.348577095168588 9.345675324373136 0.8971111625472037 0.909475292800395 0.25602248238104935 1.3882586672958865
Ni 4.96841686695603 8.973816703015686 3.4657500616018733 -0.9726737798357508 -0.971850769713823 -0.3108479148613614
Ni 7.587063884210488 3.6628446505321897 2.872980858501242 -0.32816275199072514 0.6155169546055206 0.37329358289109255
Ni 7.104202829990475 8.036427218604267 10.093140089148504 1.3621853672476023 3.072992782781546 1.056715943089335
Ni 1.1335688711483967 3.2315968528592944 6.980982306466477 1.7489127070460977 0.5452031966816223 -2.6065311630762014
Ni 4.010800565789659 4.3729039423468405 11.184073356573219 -0.2837199482963178 -0.19125793641015448 -0.1884063258939723
P 1.4769911895469983 0.8183905784198264 9.62488362605701 -0.4923354021483134 -0.4746930064762018 -1.70204123930554
P 6.089318057900021 4.901628785164053 11.385673266290517 -0.8694131346721865 -0.660355708186766 -2.0901919418141226
P 7.2244044115729045 1.8622338182632685 8.779625124132213 -0.5135560020899865 -0.3778719462903944 -0.10514834910458021
P 2.4553715528341318 6.063445452125398 10.542193329287278 -2.2481471503070893 -1.1868009075345947 -0.7771758372023195
P 8.792953521882994 0.1859594718220684 1.9262734658680403 2.6475160901289954 -2.0572160011087344 -0.5790625684332286
P 9.332451548088327 4.280912455148181 9.46008879404074 -0.5294639315694947 0.31221111375747523 0.14795104609240325
P 8.548252395791643 2.406227739898291 12.436669409785093 0.9256475316848832 0.06830444080335334 -0.47943489203656137
P 3.4319799489498166 3.6397996519460496 7.05620608303743 -1.5680029466394867 0.6043799641520946 0.5142764251957788
