# total energy = -381171.97425510525 ev
CRYSTAL
PRIMVEC
9.20967007796792 0.00000000000000 0.00000000000000
0.00000000000000 9.20967007796792 0.00000000000000
0.00000000000000 0.00000000000000 13.47928308681891
PRIMCOORD
 96 1
Ni 7.2583803442088515 4.057651647494945 7.802833007867666 1.8357979961754318 0.6794651753227072 -1.3968057855349492
Ni 5.727060891516467 8.702557899771966 11.82196428980217 -0.46254942913513236 -0.06008025312134813 2.5346148365518735
Ni 6.776410686370535 0.3845562158064593 4.634891657166222 1.1396152509877275 -0.05537050635050464 1.9987082346808285
Ni 7.30653770841187 3.393321314846154 9.895694587790317 -0.6967776984592258 1.4227345895855692 1.2564873162871395
Ni 9.0875221039575 5.239104948206364 9.419673455776962 -0.4217683905630285 -0.5940940088450543 0.5879878959473165
Ni 0.802194487063992 0.5435160402242291 12.859127849369676 -0.09118314517373974 -0.6077044005396374 -1.3982633439170824
Ni 2.296348316646551 8.105485786816164 9.233443798617724 2.472882392539083 -0.2739713535499862 -1.3917121730621258
Ni 5.829454002093854 8.144341384363024 0.8064033062341543 1.0264815696848257 0.1293244321301515 0.2609230050064603
Ni 1.659472010138359 2.1445361170820916 3.306710815673378 -0.9899184258488113 0.07571821676892121 -0.30956647704577656
Ni 7.196666345829731 7.046815805966025 4.146416288470569 -0.30772479585134743 0.12476972287993351 -0.06315786360540736
Ni 2.132885884587003 7.172638316912982 3.374619238065303 0.39503405989197776 0.12640597293177586 -0.5424824553163496
Ni 8.074117650944013 8.464764221492764 11.447213609598494 0.5659661402605866 -0.057824624317952024 0.13297437017791294
Ni 3.0935005094093087 0.3431661170875446 4.026504543701751 0.46103093560807695 -0.5323101427690381 -0.20679408437254063
Ni 8.117753067198345 9.023791187857887 2.83329141542276 0.3102779012905043 -0.6725003139690999 0.4943786578305872
Ni 3.5843482890857805 7.573562879133292 0.0773575437673883 1.3565027150405282 -1.0665123603544664 0.14026653296395197
Ni 3.900995161533319 0.775210154091178 13.27929049116231 -0.4249015368753714 -0.724122666131082 -0.45883161396391303
Ni 0.05404879007425017 6.234983399292461 2.903275697422901 0.14546658910765267 0.9244951632479949 -1.1656121892721216
Ni 7.8194886959841625 1.3922442266778923 10.660279545652575 0.3820211925720775 -0.1689117075044704 1.4256929008829446
Ni -0.0526829960196876 0.972108292928132 6.699985161202753 -0.7790748539972453 1.2638488988585332 -1.206041758042078
Ni 7.126893886238591 6.754132494745538 12.717932557331174 -0.15675527464759453 -0.10566488372968254 2.1164159085076584
Ni 8.322244578914507 2.3390627659052234 3.624458243680729 1.1910496555086196 -0.7830127555990709 -0.260134447666894
Ni 1.9276207605944855 6.120516411401981 10.676346735858845 -0.1930533377476804 -1.5967154840828306 -0.059415880064471856
Ni 1.9143127875072103 1.0915024542453877 7.869528516726308 -1.4988873227887476 -0.7248808844533451 1.1811593929781015
Ni 7.540527792998997 3.1803108584201425 1.2078196648301465 1.0333998940712137 0.513215330921116 0.7780127312813181
P 6.2665449382337 9.178412336759106 7.59778615305312 0.14561648442195566 -0.493114446406183 -0.703268191279576
Ni 7.833155846199745 8.195777391070589 6.2417571115455335 -1.5922967861898447 -0.15234968938073115 0.27970774181313124
P 5.616010691179883 3.532175508781688 2.183347508213161 -0.7746929228794658 -0.774989371073962 0.8515079722569915
Ni 2.5448344217453536 4.396484614867913 6.32567930805798 -0.16497791966770298 -0.37298376496015767 -0.31288422856509984
P 3.2090542383546654 2.6694873046078227 7.407229792948274 1.043621828909538 0.5668143471934948 -0.18731952058769674
P 1.919378105983336 6.42692213085779 7.388291948616535 0.11687823594699871 0.26675246720404383 -0.1719458663451039
P 3.199752471698508 5.362800025393349 3.7189338009964343 -0.14429956538274505 -1.4750886777072532 -1.7647915830598833
Ni 0.7440225277501756 3.225889515035315 11.03854831977967 1.0810141535150672 -0.3774027199634597 -2.380423465976713
Ni 4.141588579479323 0.692441929224292 8.128951104898563 0.5446951466969522 -0.6863153654753212 0.29341352143499794
Ni 3.6155230218888437 1.797322350048625 2.037568563437265 0.7869288028240254 0.42596211692940184 0.4525288116743368
Ni 4.845879670069766 5.824425522297555 2.079071941096646 0.22287813441859683 -0.9470044000941045 -0.8051003315267297
Ni 7.714719490557974 0.43906180551055646 13.22379670387187 -0.9869570292276422 0.731200913134102 0.5100927261317345
Ni 1.7778715271003032 2.2014887160936554 0.5783902974488552 -0.10032547379464012 0.5090827968099813 -0.15950095571353176
Ni 3.1592667625693305 2.0524762561960004 9.727338137115837 -2.178473082849719 2.1297208531466802 -1.4764868436063603
Ni 5.655695159022837 4.672553681486709 11.170133321218465 -0.3570483246768238 0.5737596681630763 -0.3354641707481449
Ni 6.019366606268733 1.505799457242669 0.7684042079932567 -1.2503094696112016 0.33845256395250745 -1.3188075144825997
Ni 2.4572872991379917 4.110146766247518 1.7486805572058899 -0.18336516392563906 1.552965849800706 1.1596536576958416
Ni 5.7948532720669395 1.119288028504425 2.9285092721369668 -1.1573448070570067 0.8370737991095326 0.0433354295628415
Ni 2.026486567578498 1.691061178089469 5.60172004630824 0.15042753265735384 0.6690884600740734 0.2443584157795598
Ni 8.753772874400571 2.695016509727495 12.802191827764034 1.4413876859103822 -1.0098974400738994 1.0270225297899602
Ni 1.5821936695325978 6.570169337362618 0.8197536438032298 0.7011940823593665 -0.6346662738404618 -0.07873052123268377
Ni 3.35198831608097 4.043855561899971 10.816436867502555 -0.022268067369581004 0.6914169483679448 1.9611621581062546
Ni 5.283108751258961 8.1445163680922 5.7930721218973344 1.0328478782224857 -1.1158351178489945 0.23443652868015755
Ni 9.064387413026543 1.3744879830015833 1.4851200643221378 0.2377357682567196 -0.21717337072433562 -0.045041613620670815
Ni 3.7709454120762866 0.2880554520672993 10.782725791593446 -0.22432206595397494 -1.5294387132130434 0.6845163645933694
Ni 5.906861278079008 0.1457135561192038 9.767101808120419 0.9773123070490266 0.6368167445245613 -0.9602106143717334
Ni 5.314790015909637 2.915947282316176 8.365081516783603 -1.2688743770975826 -0.2928697331163859 1.7188842790048076
Ni 4.124053367881972 6.979133941455032 10.89081600400598 0.6338872295825922 -0.5416851562260349 0.16585132341159178
Ni 5.4165660785999314 5.245072814338236 4.471860237660643 0.9262419707357725 -0.4488706460964592 -1.6709648296157094
Ni 0.28576961198407325 7.72086234041902 10.00250373511189 -0.08950961412605875 -1.2427758802383175 -0.9346913870547063
Ni 0.3153372573797112 3.3706194784031553 6.578968256039145 -0.8777741050423722 0.26071937363608644 0.5085042985986921
Ni 4.475881179563691 7.6207071796410855 3.4789224341916873 1.1338626647746666 -0.7783929974388724 1.8234957817693112
P 6.790169933285682 2.321647280017308 12.307420728686054 -2.0399032208618997 1.0092315243551264 0.012407886746049599
Ni 6.440966877541593 3.031445753241793 4.605708975974769 -0.2558381342843852 -0.42813135666657876 -0.8291262621276818
P 0.3860343678344923 3.6445242725821516 2.206680207048186 -0.8621353700638508 0.19833489786159392 -0.13183845680125683
Ni 8.202629385518293 0.12261938773605426 8.851966375477753 -0.27900145977472596 0.5482723225252493 -1.1291495755697134
P 3.697212794403813 5.457926706374986 12.820091742291664 0.15307525469284605 -0.3091748980343127 -0.5106090036465206
P 7.089355271495523 6.629120434754761 1.8056174997785273 0.5232228357557893 0.7337864144730911 -0.11277269841905739
P 0.31452035965456143 0.388404936881319 4.579020273407562 -0.08559151001857518 1.601268650671152 -0.7674534677082332
Ni 8.743476463389102 5.485712280634023 0.5122980219723698 -0.34635716351156476 -1.1188296817009442 1.0994520485052808
Ni 3.044293242831239 8.250381524243222 6.353917998078882 -1.5390343273212785 0.9426170696596864 0.7833655109527993
Ni 9.091611197418228 2.390977675450531 8.948073886309766 0.7930241170884857 0.2412368394314426 -1.5085767821623697
Ni 3.742082306432328 6.271085305522299 5.44904029583387 -0.7301128222762459 0.9182424974700638 2.1242379756552383
Ni 5.796243932230384 4.446198413293596 13.62795938604892 0.20308706783459865 0.7752081719529874 -0.5466545844161682
Ni 4.758498321521622 1.1350734028100233 5.9202088527470975 -0.4420448814238774 1.571218882473623 -1.0041134864022707
Ni 8.777589080908319 7.900699565661389 0.7811485492791884 0.38630722154194114 -0.18119463863688148 0.36353213262895456
Ni 6.611585223157411 6.906110468369216 10.644589951914526 -1.071648138919135 -1.1062104502750367 -2.8112945901719586
Ni 7.4241544034275035 4.848311022938306 2.950871271758567 -0.645517871842985 -1.1868129917194528 0.9066625059419482
Ni 1.1162948857685329 0.7231534156285386 10.320399438805541 -0.13243135319024935 0.5405482144081142 0.562178133973064
Ni 3.8534732645573055 3.1492926900063414 0.08668601846642011 0.37708390317146023 0.9579539571270727 -1.4048032019181291
Ni 0.6700366441538956 5.0610083505857935 4.827484275298469 -0.16482313925739356 -0.31881576355818636 -0.1307768483059619
Ni 3.757324310210487 3.2205110677806656 4.2139609288992075 0.10530081552204446 -0.0543880878325773 -0.43845099342503197
Ni 6.0722024828097005 5.822703314015672 6.639490523125883 0.9934272103330182 1.2871934871217445 0.10501490885050947
Ni 8.95284910018226 6.106591390427614 6.925331970535619 0.1961278629079461 -2.090012478813465 -0.6921386570253176
Ni 3.97624737474863 5.7065601661930945 7.906556915753781 0.14950887749782638 -0.5583232790033481 -0.5896861095853457
Ni 1.9164770599470096 8.834808760348622 1.2052814797901095 0.18004304153094153 1.0096539566045257 1.112039141141672
Ni 7.724444902032135 7.094586364030867 8.5739153878843 -1.5792975457166993 -0.541991117502228 -0.39541715426300933
Ni 4.902159963174498 7.6853866917462295 8.446927853687834 0.44375646479834546 -0.608983267252061 0.3710662362224706
Ni 2.2216302642887213 4.721097851827904 8.914510165119964 -1.273662285404529 -1.2039532509441653 -1.103083474610281
Ni 2.2098050480644575 8.012578636294066 11.803727301354128 -1.4810299828923525 1.272846731481769 0.678360886514935
Ni 0.5186563781104009 8.201376870404196 7.485544221424153 2.3001875638430964 -0.724974472608416 1.2250519805959934
Ni 5.156365273316344 2.3477935330240722 10.68800617802389 1.5394567595706778 -0.5047345471436147 1.6153626668703729
Ni 5.166569587628248 3.645362352548201 6.27191049195041 -1.7710745878551175 0.5281547258397679 0.40255505085937127
Ni 6.91539381568546 1.8443285055070695 6.827889978526895 0.5603217974906157 0.13316334626026743 -0.1633972054441444
P 7.770401155115528 4.549116475058509 5.626090674947373 0.1515207657215326 0.03129161102442998 -0.44303732724413375
Ni 1.551479420227364 4.544999752587913 12.687267119276711 0.5861811817558807 0.8780479275290491 1.1281249909599411
P 4.235895599834823 8.923525511040472 1.969714478098084 -1.50419485104459 1.4571488053993809 -1.0674585263178198
Ni 7.908352801395317 4.615389260066143 11.98383713282721 0.307583899398109 0.672568448202874 -1.2520130825658695
P 2.457232041118252 1.9078291798577698 11.908232189252562 0.0061320810396668585 0.2944501902296284 -0.3846951398598149
P 5.832216903080832 5.288128021385303 8.899817978638213 0.569886044140283 0.657596400274074 1.087903681546049
P 9.350670003627197 6.538294669642854 11.840903055100906 -0.5377153729450094 -0.8418038575953501 1.1425249684353551
Ni 0.6570998207658711 7.621701823996397 5.138342870178289 0.11955578277916183 -0.8169759999183931 -0.4049376921589349
