# total energy = -340866.20584663167 ev
CRYSTAL
PRIMVEC
9.30216567744813 0.00000000000000 0.00000000000000
0.00000000000000 9.30216567744813 0.00000000000000
0.00000000000000 0.00000000000000 13.61465974626368
PRIMCOORD
 96 1
Ni 6.661345736626838 1.2596620257462359 0.9939345093532533 0.49437582961710996 -0.16902663581577987 0.5505238375635872
Ni 0.7498866195716326 0.7801567959022053 3.340261540376832 0.7096265293974359 2.196985796941926 0.07591619171234022
Ni 7.27217242564901 6.446475018744811 1.0457103618027686 -0.7072518585176722 1.4253244617999323 -0.013972145909375937
Ni 5.049857212255814 1.3721438094004828 6.12715493700555 -0.09853624310470127 -2.1822343496643644 1.7165651439533276
Ni 2.0137141549705624 9.088494631467809 10.726799438167516 -0.47346479049605555 -0.8338372944501059 0.008561002196133642
Ni 7.750154891021968 9.07755528499267 3.811246916958464 -0.07384979610161475 -0.30224217547022136 -1.0436164295928996
Ni 6.350802247914186 5.744310367954441 7.884399090559371 -0.8066154826196753 -1.0186718438324198 -0.1947852328371226
Ni 4.580749012645851 2.531398262142754 4.400080496396305 -1.9863697677201337 1.3751067032949609 -2.5797451532316087
Ni 6.683205825246377 7.118305308263557 12.345704578988055 -0.058281509349712525 0.2912090575845114 -0.3280002582709319
Ni 4.696672597487005 5.811527814918184 1.0099026064274246 0.2775315600974188 -1.787826867612792 0.5409045693062684
Ni 8.69219448020897 3.3857742448827146 11.235620442175158 0.627484411380042 -0.6091557882741832 1.4113014080479631
Ni 2.8412719949487637 7.318292561553555 12.438380192136462 -2.1840361787597935 -1.6691817695733575 1.1987056293919807
Ni 3.295245571501708 3.434396663271794 10.297406833604844 -1.0167833685604553 0.2922418697243999 1.132969463536436
Ni 7.27790255951694 1.645878629743976 12.056216541590436 -1.0852937547270278 -0.012409429407946369 0.5121385529171696
Ni 5.18914783650645 0.5178654993969071 12.889692419177043 0.45359864769974784 -0.6074462617822441 0.10054530311493007
Ni 1.0098709790651668 9.041723343987364 8.306998323752321 1.3835376076711334 -0.7822589081521818 2.0703461107327894
Ni 3.894956172906711 1.589833083389623 1.5684362426055096 3.620395301107333 -1.5198955496092985 -2.323487672021618
Ni 4.893841294669888 1.2418576812280233 10.548978314737733 -0.4052315692502699 -1.2923961143686062 0.1277033515869607
Ni 7.797977323189226 8.264732074960575 7.7872444847853 1.061432631838714 1.4768773941765598 0.6391883300805313
Ni 8.581517316636507 1.213532587676321 8.18064050001562 -0.7835210626940571 1.9014878821740737 0.11490671404292468
Ni 8.095255924084233 4.5678655136083774 2.1395436157142464 0.9991273460415889 -2.1788487210215832 0.3227531509393796
Ni 8.515806820462705 6.037356483606089 8.709188606123455 1.0032323693488978 -0.06641879374486626 -0.958192298390124
Ni 6.266245564700731 7.730015702995882 5.112930544547215 1.3083996888857143 -0.19806878868440084 1.1325861120550882
Ni 6.504539134984459 7.338961973005732 9.620771975672483 -0.35630501875289605 0.20859025704101494 2.058432647124655
P 2.519407770980802 5.86337808469066 0.31669222002223224 0.14017757279457146 0.1265188443605563 0.25963436810202384
P 0.41426170237180465 8.152575867094278 3.978244040763696 1.1385891237160586 -0.9959533191889816 0.599425962580929
P 5.284308988241726 2.586411268141035 13.584925096333677 -0.4658106163849074 1.09707917739773 -1.7102214611234872
P 8.420952640184641 3.4363315136687578 9.071760966183685 2.4870846521813945 1.9188358865342179 -0.47650769108743735
P 4.632059756826866 7.812981715931064 0.8043173100177508 0.49739096229434987 2.7082679153960716 -1.4310096851101677
P 2.8913362489701955 1.4961788824442908 11.486129616022792 0.986980940487042 2.0123556502609343 0.04680719016152584
P 6.174256451356631 1.1303340206068881 7.874787163082532 1.5388965161918335 -0.4715758010034588 1.5100587660245348
P 4.0267027410422624 8.611619123773881 9.319914831759633 -0.5095417387242708 -0.43971906150417817 -1.406191083404591
Ni 0.3000152979468656 8.598335631625497 1.5869791790541017 -0.4222142198511954 -0.35027783872220963 -0.5372240351308877
Ni 1.249327320020147 1.9164786203577735 9.93220754204412 -0.33365051457817374 0.8864605770727765 -1.1319327947418054
Ni 8.70293848121134 -0.010250986237758846 10.407807722865817 -0.07333480413840919 0.3289412820279625 0.20034344365119044
Ni 0.975294830384813 1.9718637129708552 12.325351441158457 -0.16846407844409053 -0.4551279398600807 1.1950896299059484
Ni 3.354918962350368 7.609292200823799 7.1533056356847835 -0.46831409953305153 0.5197983834552725 -0.5046365881131696
Ni 3.860259096076547 5.523821142188926 8.336582930495124 1.0175192182852153 -0.26870881959946624 0.6577380680582608
Ni 6.365006654434202 4.773899174388887 13.102898049457835 -0.386520880214644 1.3936173605046387 0.4001107030839367
Ni 1.2629549922872219 4.1125059144153004 0.9567937536803861 -0.12035462453137337 -1.6272550474325846 0.008069407271695781
Ni 1.6671154732837248 6.120620165833112 8.101158148011509 -1.3095795681264286 -0.31923202515999866 -0.5627728301342694
Ni 0.9016867958118678 4.684961171286154 9.998455703376306 0.1749221753646084 -0.028579354299589486 -1.5816691312726696
Ni 2.5754626195005246 5.860457204764474 2.4576227885931483 -0.7299130475606139 0.12934525806575786 1.0194411178982767
Ni 5.822057866117044 3.428815364049784 1.8187826285591686 0.04137522051267713 1.6038909187853474 0.5447226575007781
Ni 4.997634855868538 -0.10681118364468438 3.074353561975671 2.2147600902062115 4.074528738264628 -0.6049440641856808
Ni 4.300465467881867 5.540034816428865 11.962969775488311 0.9544752545498529 0.04433636002353009 -1.0271603409194052
Ni 6.577663456958163 1.8479774745729676 3.269941821262188 1.1821505532467769 -0.709818590803584 0.6186734979566312
Ni 3.0582822108658925 0.8692994466430792 7.913357661572771 0.5557033248819978 0.39616945904800155 0.31939606154168865
Ni 4.6977423465045565 7.195950482607089 3.50878328908621 -0.17830677556612518 -4.31682152976441 -0.20418518599478383
Ni 0.8551480624656722 2.773124331448018 6.325330128481468 -0.6770689071763888 -0.9524165722486113 -0.08440031792395142
Ni 8.880870300409027 3.0686262187573514 4.070661053714816 -0.5483491985097718 -0.43344222735653093 0.18028883899316048
Ni 2.7529851434219315 0.8135599415293997 5.082692925795437 -1.4438523454007908 -1.1291593457617264 -0.1264699934004919
Ni 7.1955318851654395 2.0599552190249173 9.921697025392538 -1.5183253769087013 -1.3350188341351394 -1.2655627962258462
Ni 5.0135601629820075 4.06856248520734 6.431646436928467 -0.818809453582706 -0.3449548838473995 0.3234069824732946
Ni 7.198369045603294 3.2831713608514264 7.302699341743795 -0.059210963142517385 -0.2567418770455772 -0.11236337879578069
Ni 0.40775018661279266 7.025599928185966 11.841812792409986 -0.8896340897047518 -0.02173302080171741 0.5840116849083877
P 0.9378350104397543 8.999389189388415 12.937139043863352 0.7104621379248538 -0.18728429647438713 0.4797711923300576
P 7.869734226853538 6.703382221933944 6.535104189957261 0.7761193709133473 -1.0957848840663384 -0.9947227892159901
P 7.319753001516648 8.656846251802905 1.6094429782061561 0.5386959916907238 -0.8042428686224408 0.16175761295819238
P 0.7090761596602937 4.87882759976268 3.681608219495758 -0.2830488903712222 1.0328180534258147 -1.1211824982038368
P 0.4502555010545488 7.5254517843438355 9.74760607027613 -0.1619753853959533 -1.4920867549271464 -0.9129123435064019
P 6.316709811833074 5.458454826133815 2.9641015073606174 -1.1052925664464577 0.34040968767887825 0.3545178449454862
P 9.186446432814089 2.5887182051527993 1.4655775490265455 -0.36400444427968276 -1.2260642239105919 1.6290519914320074
P 8.61126564148982 5.203733631806637 12.926547598373052 -0.45543955756322846 0.44040297494508024 -0.223224462014422
Ni 7.399649299879724 1.0212940381395477 5.877067151249177 1.2192392305689583 0.18646668566909821 0.1234754295485422
Ni 0.3868212447467912 6.106239018171066 1.2437962524911348 0.029647133442471524 1.7879173704440694 -0.406775516698622
Ni 2.3248343779361544 3.576980254063416 7.957209929560105 0.42758191192101197 0.24609545307532454 0.6560478248400314
Ni 2.2977650767094047 3.6523184913951847 4.535928389243498 -0.3339371925806571 -0.10820847608714267 0.19610395164854613
Ni 1.1366408887277597 7.713346222652811 6.366405700105853 -2.204836403334596 0.7214019247658092 -0.1829689569284849
Ni 0.5870922140805744 5.20479407865882 5.8614785825221025 0.12548140423497745 0.5914925666664651 0.05747855383244295
Ni 4.518647756635618 8.003238904244023 11.299609107538966 2.019392759613374 0.5963462952143407 -1.1740965725940489
Ni 3.142866800575458 8.211086487271686 2.2033825162155996 -2.5862158485576168 0.9675863380105142 -0.5848352092509477
Ni 3.2317396885206016 3.8750123303533943 13.329119269524357 2.721812229739409 -2.5397300462912518 1.1546086390727666
Ni 2.3699312756499973 7.149104777803683 4.597697557950023 1.0028035093415955 -0.2429057424934333 -0.8820544775852808
Ni 7.672165536559745 5.31942466251354 10.709590432232986 -1.2943941186352417 0.9599311354581017 0.7831191992699481
Ni 8.396767010222598 6.511245996216241 3.5435417602078156 -0.31160793295583755 -0.1098282710787528 0.22418374060389779
Ni 7.048148377042887 5.132367419087865 5.425400511707997 -0.32733819920690077 -0.5290638679175986 -1.173874429280914
Ni 5.148832251792796 2.938367997081002 9.05730168033253 0.2894504230221918 0.07876651667694176 -2.9356151413296154
Ni 1.885316366368216 4.957616940446725 12.027965865361695 -1.695178193637119 0.6090470306104607 -0.7727165158793854
Ni 8.212360883927378 9.211441351163325 13.061904336888707 -0.7038112082672395 -1.6686665204998359 0.8612794498214585
Ni 2.506356832966668 6.883918647435236 10.158646432780298 0.7309828835860249 -1.2023992761934839 -0.5469795718557547
Ni 3.002041319038769 -0.02114754275219688 13.35133842172718 0.22937196967305656 1.3641085524122443 0.6745127164134384
Ni 7.7693545603456835 3.1622711175373137 13.64869609102783 1.4551027215036294 0.11254541289959971 0.22111487187058693
Ni 5.519495635291867 8.034884870832823 7.580342931975769 -0.10906825298427666 1.3912264916749588 -0.1631148983170352
Ni 3.493000305102902 3.7381867799258126 2.3225386035228337 -0.29324125752319175 0.8024127573922374 -0.2940781516021903
Ni 4.262801000298667 5.0320621699029715 4.261878225493962 0.7015198411299015 0.5196963106597695 0.24926742304540297
Ni 1.7463048070786806 1.4263940378384223 1.1325665402956921 -2.235348970101157 0.4695898809216816 0.23145430612338205
Ni 5.723845604140403 3.5194742677459705 11.350772877507136 -0.07937483968490201 -1.3199585973679073 0.8102890748165206
P 0.5020471671851929 0.6263920023358226 6.524948085806275 -0.6804784470785701 0.04524267388788337 -1.8764080563873105
P 5.250328178145053 4.916882758291419 9.89753092997777 0.14664338302457325 1.7868477915289742 -0.19042489898589784
P 2.8141189742336836 1.9169530307916445 3.198165383050599 -2.3369345415551432 -0.5249066512161153 0.6724303799631128
P 6.511990169445842 2.963502447910788 5.101072144133517 1.8646709704560405 0.48795321392021773 0.4776382051474548
P 3.1147649589926365 5.423869375288092 6.2926274359066365 -0.8373440220517837 0.43218135836623633 -0.5487487479410356
P 4.3265022287525445 8.658753195703758 5.1160077008516165 -0.0735839440347378 -1.252211828840237 1.1358197885010375
P 6.601774669597247 9.049230191440968 11.134395208835167 0.018319110024162 -0.4487680590803239 0.48164218410052534
P 3.1878799788009706 2.4436602383727526 6.309155523336082 -0.24681484773985238 2.0601087492754973 1.3769532695853963
