# total energy = -340886.7791523173 ev
CRYSTAL
PRIMVEC
9.09447732426236 0.00000000000000 0.00000000000000

0.00000000000000 9.09447732426236 0.00000000000000

0.00000000000000 0.00000000000000 13.31068684791764

PRIMCOORD
 96 1
Ni 6.7597156363884885 2.160820469433328 11.268761007639943 -0.13783709758685295 -0.6355833863380925 1.7749065600066982
Ni 4.514871293265281 0.7157271607216439 6.164578513329547 0.5835630274067434 -0.25217662627239795 -0.8757665876940401
Ni 2.742103066117211 1.3773039860472183 4.541512654406869 0.12912979962084212 0.5668007203467399 0.733974105003865
Ni 3.7481704979896358 4.057355435086168 4.5187382649172925 -0.9308979814505453 0.13362743038087954 0.7748808705205559
Ni 3.761166505728876 2.5447438191268343 2.627596324169539 1.038366751158186 0.9904267329437976 -0.0438787036608212
Ni 5.43822445614653 4.664384496367525 2.4597213718541906 -0.5228626242028931 -0.13659628320121636 -0.0031118061561043182
Ni 5.342050361085324 3.135857545528085 0.609039850162494 -0.14605125796652912 -0.7300596004408072 -1.5668809172199014
Ni 5.996607159557211 8.049912721017623 12.07793028250966 -0.08923553452906567 1.1252145021813653 0.8424062670660395
Ni 2.0921026006595715 6.77735892191272 0.33409289090775074 0.14882573538787272 0.5663620901474247 -0.21311128483982006
Ni 0.7476824248177726 0.22827501235690814 0.2354123579648547 0.5358883470385997 -0.07007001734420835 -0.023580872643733583
Ni 8.057861293980602 0.10624259063021455 6.724198975070046 0.02360169857934 0.7824918500985942 -0.742617896721792
Ni 8.88276674253206 2.7532256115791363 1.2515828444191701 -0.5235478231953757 -0.8600026399915639 -0.13496800356917402
Ni 6.821257962750587 1.1893666173058635 4.783980507686001 0.20872266885382118 -1.447081908081682 -0.30720594723339995
Ni 0.9209158430253255 7.619298326024427 2.430943718047838 -0.795457666230643 -0.4705514735040025 0.29820014419036384
Ni 7.927037241266138 4.198147034674115 3.420340973442987 1.3015320152316037 -0.5511118488565735 -0.2764411552467175
Ni 8.26627033061631 4.185232877228544 12.523865233582299 -1.4034004080333315 -0.17025947978161646 -0.24410053413248284
Ni 8.34062677517616 7.717691473491773 8.49236448737079 -0.22790618376080748 -0.32503860453944666 3.2779346444366966
Ni 6.9955899937887205 1.028958230668553 0.3749261835238557 -1.7147226914279503 -0.21074972658617896 -0.2630876167579469
Ni 2.3650824245231337 6.623034740438147 9.202635871295534 -1.4017556733410568 0.10568493833434056 -2.236476913058013
Ni 0.742838706327976 4.8252748902897755 1.5520389024197458 -2.6897708850331483 3.2026841113328133 -0.8248314914070698
Ni 6.57413373720939 2.40801745079112 7.05075072558775 -0.22405672810773028 -1.7786295173842401 -0.12532122450802932
Ni 3.7400855078705426 4.843791245613143 0.3014309859429454 0.3712603545111477 0.34425862911132327 -0.06742152397776775
Ni 6.687278126491325 5.927470944838034 4.3381519619951305 -1.3990053642894293 0.0782479251693104 1.1733766637088887
Ni 5.657565054225601 2.9928014211486262 9.32083497093539 -1.2483718862688564 0.676135596728842 -0.7423535873168118
P 0.45006111532127063 6.312085474789192 12.234757264075094 1.516689126856859 -1.4178201830030872 2.246820461075866
P 4.4330209995961685 6.601962837056887 12.387936450886007 -0.9667615281163737 -0.3735149548732793 0.4514319790657322
P 2.5187699926025022 8.759436538926856 1.3525788312251945 0.556685229179293 0.3246285135852216 -1.7516103084829189
P 6.773839359284948 7.841758329739998 5.481553273271835 -1.2685959266252151 0.9776869167796258 0.39904729481642887
P 4.939201404600104 1.285631657137813 12.49824245387304 0.47020257480501604 0.03222826390608643 0.9706063557837606
P 4.14983717245519 6.222695859625446 8.183396908276334 1.2165154038798922 -0.13065163558200724 -1.3169560630961576
P 4.8414721539591845 0.9896700897073794 3.85320443261667 -0.17731792929029463 1.4667873569304093 0.18583805094616385
P 0.5606299486957514 5.722681510077917 3.5911961858955985 0.44277353205978587 0.8272208175748527 -1.885529301962288
Ni 0.2645874404193559 0.2671084294643645 4.453781871861485 1.000753311680786 -0.18934863520258358 0.3307870769874497
Ni 2.3461022508689737 6.312112758220414 4.9586435776896405 -0.8879060512700514 -0.09674109887749145 -1.4425243706179867
Ni 6.216638937893932 5.854415010499816 9.11208307251398 -0.12732334253972266 -0.10065560344054922 0.24062260288621137
Ni 8.58549557040292 2.8413238109983237 9.74091978037191 -0.3127790704458032 -1.9988470742515383 2.1319104045988313
Ni 2.290689602054986 5.088350828619375 7.0293732477767925 0.8782037363806231 0.9711889677601081 0.26791357739168054
Ni 1.0072679028462383 0.14981241139799015 8.754771072187717 -1.004615879959986 1.3092905761310998 0.9496510936883321
Ni 1.199616092968651 1.3386160805729515 11.232089347733059 0.47378489283963565 0.32029234810371293 -0.18816464219681142
Ni 4.368968597561551 7.0398800971407836 1.7156139859743431 0.81519036877288 0.41119755702571764 -1.0585817926534802
Ni 5.97653564865413 8.217551216929039 7.637459087294188 -0.5010959219497628 -0.2538079912282339 0.19613763309995896
Ni 5.967177431744629 3.394977386330344 4.67021405617218 -0.15608267406060217 0.3181513905013102 0.26213039505100016
Ni 0.9372586183279247 7.83874805782839 6.9990249777797 1.1901654531314536 -1.9160799210556356 -1.6746448495704578
Ni 5.375572603581363 4.707974324984863 6.921636434563263 -0.49173299267762405 0.8734646790337409 0.20062729344019642
Ni 1.0541772155957136 7.648746242791158 10.77156685543317 -1.1508134336963922 1.5788571157451712 0.15561936127093845
Ni 4.867018540061022 0.5435759852859383 10.42394502042962 0.2413682228029843 0.49728837527821457 -0.8175208166782694
Ni 8.690673197767728 7.147867917921566 4.962569663442636 1.4007717121612326 0.519149437017364 -0.6658650680407694
Ni 7.534274059856368 6.357512387775548 6.953928194311143 -0.2953637031828333 -1.874900104383216 -1.195786913083289
Ni 2.811166525019793 5.436150915373579 2.4939829953363732 -0.32308328058528873 0.11871348938352458 0.753091028338974
Ni 2.6971854438470175 5.877751438672586 11.311074881123753 0.3513898408394658 -0.5992213027692906 1.3391943056690678
Ni 1.3524669691571802 3.4899601048948115 3.3316516330139674 0.09915665029751955 0.7134237916563392 2.8716574075307317
Ni 1.6401343734958107 1.4451942574072094 2.4830150559847124 -0.9739171653245484 -2.2424020202931962 -1.5490654863050355
Ni 1.2148220586369571 3.4454699230471117 8.409185490601114 0.8880613459009932 0.3947522669855008 -0.594085267094306
Ni 3.8064024346966723 2.9795325790971563 6.9258298979422435 -0.08647082729973495 -0.16913796458266353 0.3597595529603998
Ni 4.328125301020665 7.041808126280545 5.952312508966609 1.3387258506730817 0.0031701701978655078 0.07555598015944408
Ni 8.217696728562228 7.671964442761963 0.15913697874231686 0.4557131229395894 -0.05689259942198589 -0.6505286947940152
P 0.4688739505972623 5.655173206755048 8.156189870660722 -0.29771806234762277 1.0935796488849037 -0.27074924706826276
P 9.020102440831755 1.8157305368472785 7.646110663335013 -0.4580535981473079 -0.06633420445085994 1.0801052685475527
P 1.828762922494816 3.3959504953772996 10.681706146356973 -0.2226580479879907 -0.1677994482768981 -1.1560006343242863
P 4.463314702730814 5.978872929262236 3.783496175289517 -0.15780479895803146 1.779658987090019 1.1994358226897859
P 6.806215697669619 4.183350320474155 10.579878924346353 2.9824619264798247 1.7122595745994382 0.0220063290677621
P 6.71313372481369 7.858037443703076 9.96215657692098 -0.4362151621159778 1.062500668091912 -0.0689407888357716
P 2.520570699063223 8.352631484914298 5.65091881037967 0.4197295057561288 1.3894267194620589 -0.26626215783118656
P 7.217095077411486 4.3298077792794185 1.293135510171856 0.6278392236162994 -0.7505178682951591 -0.8243445244683222
Ni 2.9521945810116725 1.7217391162839153 0.26945753289266805 0.03989632197430548 0.0900145787869353 -0.026101067962426013
Ni 2.113129031655459 1.1777529700819238 6.81210346212755 -1.4270507004624198 0.45392852023534075 -0.05009820220797179
Ni 7.06489900357231 0.8681205847133333 9.088829404082585 0.3701447528494658 -0.31654393680487425 -0.49446376134522585
Ni 2.920245683049496 1.7982691408645346 9.077115717610827 0.3050112535749263 0.22628818854141028 0.5181731891470238
Ni 6.528843241379147 2.3884916085124996 2.4930380791683486 0.3376454946701798 -0.946735205593118 0.5285195653783543
Ni 4.479912123391496 7.223433927932305 10.209149841992307 0.26226280686380643 0.35660480938150196 0.06047594589787004
Ni 7.724948866197101 6.4577244306577635 11.343353908603728 -1.7071916731582275 -0.7459636732655734 -1.0122610552100695
Ni 7.739836525167806 4.2283225096067945 8.224193822984141 0.6267290212712561 0.8637903891687704 0.46565300776112056
Ni 3.0926769683790916 9.016073587487819 12.00634583456207 0.3266637988476955 -1.1387765571365163 0.9098421892215104
Ni 0.436982347840654 5.082421229566902 10.345957151173984 0.11270122175117364 -0.024065525589635973 -0.40278130793756445
Ni 8.931222116384173 2.44248551890289 5.481926146831884 0.2514340916794186 0.5731806557311548 1.0340503831710193
Ni 3.7865400967663008 2.7720602736001063 11.33185303289551 -0.5400141962815151 -1.114602273883158 -0.1780506936912611
Ni 1.5143486610805346 4.251849921798127 12.687999627476971 0.4837078083803024 -0.34325564176810563 -0.605756532784647
Ni 3.5169252294202464 8.545516249184095 7.967257566127432 0.22364638004318904 -0.6528552860446627 -0.1802423020259412
Ni 5.719261986697963 8.152989524178258 3.499232833719814 0.4740047221599256 -0.7200726644314244 0.5483134601758299
Ni 3.1335111704429037 8.462520051403617 3.2733505782811667 0.4803239795097341 -0.6648476825198485 2.2248239022001166
Ni 3.4445968532479747 4.387885109876191 9.367222260700798 0.2926144225724703 -0.3450980942934831 -0.1716663874314721
Ni 5.079438241086516 4.539199019439155 11.631703398722934 0.08527886387416281 1.421500717178468 0.08633533016313517
Ni 8.026603576276075 0.0502051512412183 2.454929491883718 0.4950463733215732 0.12086396006762412 0.09522054846790698
Ni 4.764387366277031 0.6035167742352436 1.664448457954074 0.4710690365703694 -0.7938499554238909 -1.0209850653466288
Ni 6.2438587077774494 5.94462312860025 0.19563766248020356 -0.6516926331951293 0.20130940710888556 -0.7459906698487668
Ni 8.218542514930142 0.11878387451573734 11.199092766011917 -0.17807100540623527 -0.7271082311219672 0.03252239810773754
Ni 0.23624723096027966 4.886917255899691 5.463437984387447 -0.2543798045713038 -0.5893724349996688 1.7699348178237198
Ni 7.595398040273046 6.358449118914205 2.07930212417743 0.7676455291143812 0.3556229050842069 1.5917206019714008
P 8.636406453065108 2.014808640004707 3.3650883874255073 -0.5027421993039343 -0.6019608131876407 -0.27458481876426905
P 2.3134621726491473 3.5316673767577607 1.3215639360585532 0.5655866454339809 -1.166662742023823 0.0015542318609973232
P 4.937846327516027 1.3366243900936696 8.24867251747745 0.0664146799798082 -1.1492268059355628 -1.2352116947378147
P 8.63511503732055 1.7699671282091705 12.650396693117672 0.4330789304798412 1.2867533142605323 -1.8933601108606166
P 6.491628641190925 8.185547752104416 1.2854133896880289 -1.4412593878626339 -1.0800085950686884 0.37770636724680756
P 1.9686359798982536 3.399106278922097 5.728520164359646 0.14196628926387808 -1.0980160873897025 -0.4806605369135465
P 7.309285791514129 4.147772726159314 6.17088735207602 0.6598790256606636 1.3347010457844044 -2.3070408393195043
P 2.702787641724815 8.847125486877697 9.913120065983817 0.4737666380071905 -0.2898042068171848 1.3370960283791424
