# total energy = -381167.7222147388 ev
CRYSTAL
PRIMVEC
9.18595961293900 0.00000000000000 0.00000000000000

0.00000000000000 9.18595961293900 0.00000000000000

0.00000000000000 0.00000000000000 13.44458042456004

PRIMCOORD
 96 1
Ni 9.056869351736912 6.282911630785574 9.358798984845485 -2.699765791462331 0.21913100867133875 0.03299856641320768
Ni 0.07679094822823122 2.524880425242394 10.717521833460534 0.49543846655366935 0.26794365929866754 0.6711540843538506
Ni 5.234646660211284 1.9569492843793597 3.248412536491333 -0.5254350129157597 -0.9602553515667397 0.8959199227134634
Ni 4.298073772931297 6.053244267801431 11.59109740951161 0.1493237580702138 0.9496528934605453 -1.0516421281108532
Ni 0.3395158241781777 3.2152420362219254 3.2762965169864287 2.520841951137497 -1.8803554710708326 -0.7254596397749506
Ni 3.6948042453232026 7.149239484678642 6.1447107051546705 1.2917229995609818 -0.01392972270721472 1.0696619617270415
Ni 5.764584671992548 5.188799535635095 9.634950978005012 -0.11900556670264666 0.5122491103531049 0.19931731637952124
Ni 6.564599083225727 3.8184472621125223 6.062712236405053 -0.30767697333254757 -0.9219135185637478 -2.294932743202061
Ni 0.9778454039541621 1.5747674334492243 8.867790151433573 -0.29353204929073323 0.013321142588938349 0.5036379716453262
Ni 4.760118356994147 4.370808201381359 1.9380363120712223 0.5914527145674652 -0.8685754692622396 -0.5635642156873133
Ni 0.8835928650413234 4.870092665835287 6.574870823298076 -0.333443026553058 0.05901813040542094 1.860719956228092
Ni 8.446241870455099 4.588864511377262 11.082864901769831 0.5165467092871943 0.7556040245688148 -0.5207121535187935
Ni 7.832785113603367 2.136938977616352 7.636225786363062 -1.7928078657671511 0.24372335329872216 -1.1601992457866666
Ni 2.378419484700871 5.661012977022298 4.755025660968293 0.058954109936704926 -0.9863253091809141 -0.10076461821458775
Ni 8.505252475199125 8.84734679824898 8.841559643674145 1.0054090652852425 -1.1287158304664044 -0.6529671290321786
Ni 4.245576013573872 3.6547350893622066 5.72424544881806 -0.2685938912881568 -0.23924989090840088 -0.09221878552710569
Ni 2.8147525677240997 3.4128595860130564 11.69885514629099 -1.1131395732947023 1.4696968172677205 -2.117509398682153
Ni 6.102223804615743 8.068404978435911 1.5674636769373975 -1.4182765538142155 0.3288466654316272 1.061962793310571
Ni 8.638347844460673 2.6383913285459317 13.367260577952964 -0.09262861937101467 -0.3992110740878028 0.7261839195354848
Ni 0.7080069208569906 7.098698334725087 3.865707187281741 -1.4555994586343899 -1.1195267077679685 -0.14121809824394388
Ni 0.6169740607988812 1.430134498876577 1.6050278217038583 -1.4790754302691431 0.5047461171078405 0.7672138408936012
Ni 5.141436727717879 2.3083673564664466 10.261105486870703 1.3881856479661059 -0.22282234147999688 1.9510600366752466
Ni 6.817387506630279 3.000878482002345 1.9055272008960809 1.7888139141164097 -0.078926953514206 1.2360930689015035
Ni 1.5452345731982837 5.74363149804779 11.157442033724196 0.015554917015463535 -1.8026665037287857 -1.6249881057752789
P 2.6624126130113157 8.295435971002629 10.395000034621157 -2.003206122551182 -2.584604538206439 -1.744008584876261
Ni 6.949288701138291 2.7859545842445663 11.890184906706766 -1.4978269998450333 0.08813638792761595 -0.523602330582395
P 2.4544792305415517 8.94433216015549 5.960990593706821 -1.189296420262939 1.6388221834448937 3.0694336046753783
Ni 7.721524770412265 0.2824002829084192 1.080797965244502 0.8082746154896531 1.1681655518215945 -0.5336268046979327
P 5.723211109762303 0.686211394413007 12.463663448597963 1.847257660075599 0.41109394156831786 -0.5867802487924605
P 7.783741275071556 1.2974892416375157 3.0869830747122022 0.6675941349167341 -0.3071434694265807 0.39158723899395786
P 1.6645418170362982 2.3064750487800723 13.121695074615385 -1.661493142679848 1.400102968228982 0.4295495771703441
Ni 3.775861153209455 1.061713215491048 5.043250760886082 1.3406328378878072 1.1742706362780682 0.8159393311237625
Ni 4.262175042648039 8.559311847695792 11.61810688664873 1.0551689103171893 -0.2706980821153531 -1.132227957384721
Ni 4.167513728531105 8.293065993414839 0.3937488113120901 -0.6543439547750473 -1.069149026646365 0.35963999666339996
Ni 7.80100169323999 8.149232237331098 3.2737960987717143 1.1577245589939287 1.5037173971875393 -0.2670941668141787
Ni 8.789015954518504 4.700455549115499 1.5166157159317812 -0.538748185084898 0.0683949436346306 0.4164207530978699
Ni 1.8515312115209475 6.493058829529203 8.520920047965534 2.303087511098711 -0.1790038016331498 0.7223007824309948
Ni 7.615463680378872 4.9145159666668725 7.539250529012159 1.6858435464997545 1.66378425270687 1.6955273494464216
Ni 6.508279964656982 8.491739928564868 10.378638003305769 0.3471729745446408 0.4811678155672681 0.001952752850996637
Ni 2.7144235165076847 8.20451334246023 4.152156641200616 1.7970375875777826 -0.7647196137168378 -2.2142065316955866
Ni 3.5537630209708104 3.195887219254979 9.116272196957675 -1.4486281695228793 -1.208927564230305 2.75578421580948
Ni 6.771163757708745 6.302385865227873 2.936430707745868 -1.2375521699455334 -2.3299177439176777 -0.06640722378064046
Ni 0.5203836951570022 0.6863657185350026 6.620138313820817 0.49683251868771855 -0.855363598557656 -0.19655518025335184
Ni 4.773217535444487 4.065907828924369 12.658583082042064 0.0522072781311746 -1.3251856500948016 0.5771409259304834
Ni 7.962187727088593 4.439932547691881 3.948753774026579 -2.3505901846653643 1.910548192604129 1.3587760844557375
Ni 3.717557867357909 1.5847433856210817 12.58669559907105 2.581834945881102 0.1916405165605538 -1.9765355552385313
Ni 2.6177045474308094 1.8005032057063364 3.288073835844198 -0.3202090443612873 -0.8408924015246744 -1.065535598263494
Ni 2.362546146438468 8.936661883853922 8.181793708476201 -0.21749604417107704 -1.8031778961475653 -1.0312985314574947
Ni 5.49247817545962 0.6144111780585974 8.74338745578181 -1.2239402355890534 -0.5517569386397401 -1.8454630300690218
Ni 3.1055157482911366 5.583878473903433 13.450764625488004 0.4004248918902459 -1.1475023670452884 1.0896389190696008
Ni 3.1883179885094814 6.7449654008080655 2.275051718034686 0.9241524351965955 -0.6919959607998662 -0.04022876561305975
Ni 6.470856365073052 6.523666447058327 5.376380505920728 2.56339165157425 -1.7662154599906033 -0.5292168485556951
Ni 2.6686958094068505 0.8724310054796071 0.8619158374767294 0.3851664230692786 -0.7220043342364985 1.4080391923569235
Ni 0.7893191984213067 0.5184408646925935 4.03254074911861 -1.452754275876111 0.47050570786773166 0.7476647151170801
Ni 1.4150419671837946 7.104017005358149 6.376482571492932 -0.5827235622245835 0.7495089674146704 -0.5118750148431378
Ni 0.5543625598749585 8.773886678987152 -0.07978740826364548 -0.4688419470120635 -0.23863771124569866 0.6411225709887669
P 1.5655631018873448 5.132609020501347 2.725444830886869 0.05938811215032998 -0.05492082040759573 -0.17569684874710387
Ni 8.457375253541922 7.798475554338278 6.690748948401511 -1.4854221984227773 -0.7105459558879117 0.35913091823746535
P 3.995423960586743 9.214987275064887 2.426114824357149 0.4339271374127494 -0.1357413914000888 0.8740622034084238
Ni 6.437603191166861 7.515437765830662 12.313299393804302 0.008278695069024452 2.4397701833661465 2.47461660162137
P 6.8520553183214306 7.366101619921007 8.655769016922854 0.4086588497642639 -1.3046726177431145 -0.4668519131652283
P 6.658562264409825 4.2162452444350675 0.25380714632891593 0.9552681827647936 -0.9335202495647407 0.9552910655829289
P 5.520173843782042 1.0388034321424178 6.370996716394374 0.6628666475340778 0.03452323058785022 0.5883342235431416
Ni 5.244475637028859 2.837588863395589 7.741792671767685 1.2674893238245977 -0.4923839959980617 -0.43955245401932685
Ni 8.862613863174971 6.609261219008021 12.450218878065062 -0.08756920257023627 -0.578039783595669 -0.8751760052978929
Ni 7.5430507605163015 0.20553584700304722 5.173205450545828 -0.7492611130699225 0.6266081794226757 0.7940137346952647
Ni 4.429488111578252 7.41044224711581 8.800432265162321 -0.513629021419767 0.01695925356215789 1.0448083930184715
Ni 6.602583026347855 5.453290871624313 12.118810581867438 0.6722581160513067 -0.9895525578689603 -2.016408480174069
Ni 8.521520809726159 2.3192343467236354 5.316658907900365 -0.69515430392319 0.716294942556547 -0.7457865242577607
Ni 2.3396822928880505 3.336946815526657 1.4958572843314466 -0.057403477620133404 1.0310450206857922 -0.2019159303446329
Ni 2.7917692966983285 1.917017917813002 7.167762972297933 0.6336072364483282 -0.8041464522538926 0.5229670109912412
Ni 2.985896181825274 1.0214419684179146 9.905428803893308 2.3779521216180854 2.4763263852236257 -0.21921559796534504
Ni 8.02006845879658 6.881248298065596 1.0204719310796566 -0.19250337878148138 0.7448987223361687 0.44259715438292163
Ni 5.441689004595717 1.3284642975523435 1.0225011095647056 -0.7065987983147057 -0.5895033041505783 -0.4551536508916935
Ni 2.1344495825532093 7.375186534007533 12.333157601359662 1.7129429738197077 2.294325962855997 1.3216472979242402
Ni 7.4806780945430855 1.3672474191633766 9.650694794236454 -0.8345841999184596 2.2198902123439255 2.22822598590313
Ni 8.283090041242982 0.7875876450286777 11.79716236779007 -1.1071314194274093 -1.5411176922128684 0.9607706006402615
Ni 5.41351566637188 8.414320660697083 4.59724026937938 -0.7282269181074427 1.2532564680546674 -1.6587027244189048
Ni 1.2883675837124193 6.575291540249707 0.9122695938535743 -1.7905244690496132 -0.47923254621776823 0.5964874487778953
Ni 5.941836949256048 8.039166068893532 6.837012390810718 -0.35113761561934365 2.0980191511680255 1.3318957151251256
Ni 1.5939569031426037 0.8614473535349572 11.632399321256644 -0.7354203505320883 -0.36172001912088025 0.15314801691231045
Ni 1.569788643322938 8.535024170400773 2.1201029507834055 -0.28996875741950706 -0.2863738409793971 -0.045918874019301566
Ni 5.447292439977699 6.00055360329151 0.7175575630973959 0.2409203366322883 1.8310221720533433 -0.8378831823847054
Ni 1.2000629536681606 4.2216649606241985 9.38437085929854 0.19692901865300277 -0.7765034937256433 -0.934136800102817
Ni 2.934271088633894 4.267411039644318 7.497249565738326 -0.48750815596299907 2.942116947003875 -2.2533220096398097
Ni 4.634638148276309 6.22709773999717 4.157427544843537 -0.5323785341131283 -1.566598352982476 -1.0717206440282832
Ni 3.4687469644786 3.8952510706842527 3.5883986818032114 -1.721392904359274 0.2038630267686747 0.8097856528175409
Ni 0.4347567723485596 8.106030669131977 10.88713874106911 -0.09235453977402158 0.27799821532119223 -1.0789665269574191
P 7.309065996500139 3.758132251099248 9.380444780147295 0.4668501133930153 -1.828624618355444 0.6158727952830425
Ni 0.928489242794503 4.396271681510631 13.075069899257468 0.7125889544598695 0.7359798225799841 -0.7955908493743975
P 3.4647878158726417 5.152257788176856 9.790020999923575 -0.9557865171621087 1.3126165551805393 0.014620321016336112
Ni 1.5706888673679122 3.0092193333578208 5.504452992449706 1.8193563056796407 -0.387002704947069 -2.612131282871798
P 8.623246126808247 5.901492214505773 5.566419639006718 -0.7805519527634042 0.8762584397287941 -1.3011532917359463
P 5.693485344358868 3.9126860220858966 4.008313699157232 0.4125381302140121 1.398579075385288 -0.4924279618621197
P 0.5103664061667532 2.867976017893291 7.28709685541891 1.0304158717422256 0.7848901751274419 0.3564451438751861
Ni 5.371232694137018 5.80102537389472 7.308043599191918 -0.6671472771873026 -1.4594640837961186 0.08738639713546885
