# total energy = -381176.33778187196 ev
CRYSTAL
PRIMVEC
9.10946808341890 0.00000000000000 0.00000000000000

0.00000000000000 9.10946808341890 0.00000000000000

0.00000000000000 0.00000000000000 13.33262733922972

PRIMCOORD
 96 1
Ni 3.389961034065433 4.616742217338822 -0.20144768929484488 0.12037262225350236 0.32582459077585174 1.5913585906462915
Ni 3.7188766000332527 1.5424698015084901 7.56502613412138 1.05560651207524 0.6805170136259893 1.0293403792898597
Ni 0.8641496538425262 0.3777924172487442 2.4580697313802142 -1.0305099741179284 -0.09333078764436185 2.66888401428181
Ni 6.509698805359951 8.073348120283436 1.354488638958327 -1.2788877954695266 1.2829529666778356 0.8082357918319176
Ni 8.338278782067635 4.52006343201696 10.54648126817248 -0.6511904967477302 0.1768319907928116 1.9128902104737444
Ni 8.984158291809523 8.339526779202197 4.7188302048395325 0.09048329089323771 0.39262827866396255 -0.4655535060687789
Ni 5.27274234617923 1.08169468427958 11.52157695633066 0.19427152642549766 -1.1027446032136234 -0.3516574926785556
Ni 8.830253827660568 4.521074582979998 8.3236790374869 0.8750955297689444 -0.08151194063256284 -1.1749036418763765
Ni 6.907472840963874 7.042019685324931 6.423406635606165 -0.39875058951161646 -1.0023725924517641 -0.7081787412073157
Ni 7.758005661837482 3.7400925513207883 5.628995426021629 0.04921631382365072 0.4504081657869082 2.453612231455561
Ni 0.9233447996805103 0.8000891410733818 11.211660097106199 -0.9936377836819273 0.24612116410693743 0.548283635379159
Ni 7.680547854281485 0.6615450620944753 2.970749687098283 -0.5147523363909329 -0.7927875755976476 0.3150591247292316
Ni 6.6632844381241645 4.163163579936942 3.721536564728813 -0.1528723946534206 -0.464660047720232 -1.4056611790430502
Ni 1.6999087392940118 1.8792377290090947 6.789093480649669 -1.0784119400055299 -0.022969721422295926 -1.1753291594495694
Ni 8.093480044862849 3.7192500882268074 13.349426353693879 0.450717726607527 -0.5502173620667621 -1.7161871917886187
Ni 5.9418509996665945 5.573582531353496 10.104731275144523 -0.8046449891568658 -0.01577268945322445 -1.4801509227215088
Ni 5.406387353194875 4.280229354946011 5.731310239278913 -0.0933385009538457 0.4174617927678746 0.42585952991326653
Ni 8.651225450393957 2.510651403351839 2.1381798264410294 1.1687371080543485 1.5009547468407376 0.03699766027027177
Ni 6.849226901705607 3.4296327677954537 9.168314388689598 -0.34905013696269566 -0.6693638252226471 -1.0376262734477357
Ni 7.532263931972122 5.045579539284735 1.766973554654238 -1.374343599876691 0.9456733399875069 0.7895829526174208
Ni 2.086131969302144 3.7213908132386457 3.137847393947855 0.007518676974548341 -0.5707229382192816 0.10889341796930924
Ni 4.7388819660993535 0.5605438341423274 0.7371572914062234 0.376757373069977 -0.2841824897550332 -1.7812530710500163
Ni 0.6551283527398424 2.8202275684680322 9.92883473302289 -0.22261151102077142 -0.22955786043161755 -0.4434792998775588
Ni 5.796463888224315 5.841446441877321 0.13356119990879828 -0.4089218736176635 0.7875029301599406 0.3920760057049183
P 6.606532451640117 4.871534041088231 7.5277347044151615 -0.2536604099067761 0.3104828182124588 -0.2920369528024454
Ni 5.648435031022745 -0.059213364774254915 7.185299776787474 1.3439845279688596 0.09437388419689553 0.6293142654999291
P 9.168133110273702 4.03741648179476 4.00498768617926 -0.9527035073614107 -0.6073182208448121 -0.29464687962146674
Ni 4.210979178180083 7.756466161722587 4.973829724462431 1.3775438519815437 -2.129508222915242 -0.2540257636659948
P 5.700696049716001 1.5403199670285166 9.132009514382451 -0.09082061962799844 -0.6396817247771822 0.7587487408453836
P 3.199145005031508 3.5146058865632224 6.470070797076981 -0.08899359372158867 -1.475510338625704 -0.6701580389891684
P 8.06636115822352 7.658056577454983 2.6395002753941528 1.9383459315426874 -0.8742020714203975 0.5263230719476678
Ni 6.5051349618240755 8.370854240120115 4.696617677737976 -0.27038337908841176 0.8570561557687304 -1.2743803945174763
Ni 2.9551479010226442 9.082103293202218 11.916982530219357 0.7695131784507392 -0.9993330342944918 0.9215713047329805
Ni 4.775374495450092 7.386476003931882 2.799798675227402 -0.3081408003428435 0.007408890869561433 -1.9115915462669786
Ni 2.6549180502134546 6.3845893699872525 11.896716696458354 -0.9031886884607347 0.6295376943646448 -0.6388905963344546
Ni 1.4094715667304647 0.8105030850458639 8.83761245602041 0.056579181946625146 -1.3383273296830822 -0.6663949724023104
Ni 1.8780626076196176 6.508441698757255 7.9486595423385955 -0.9923344914894716 0.39713593672632896 -0.14065836908573193
Ni 5.299924999095506 0.7314629628747341 2.9469375373921345 -0.6787923176253987 0.22346434593936998 0.618400961021535
Ni 4.892349175777806 4.50796605833304 2.272825964004763 -0.5634513442585328 1.8365359027827208 -0.25758854131658865
Ni 0.5788420227860686 7.736625740123508 12.24923125057795 1.1179331380286037 0.574870641839068 -1.1354114973190252
Ni 4.522477441072862 3.9060215134085783 8.298653506625104 0.7292116506182151 0.04890443901018674 0.8049020994729944
Ni 7.950816664393078 6.5049072251206885 8.349544461310785 -1.5034106645803977 0.005012879833559109 0.8597907810910741
Ni 0.06390200802358709 0.5613964803598085 0.313755589096752 1.0920673260054354 -0.013086143759996817 -0.11692554424516637
Ni 5.208356625397649 6.924489327440952 7.785160986349352 -0.6488003992489988 -1.501645345149859 2.285816125612773
Ni 3.5880555281396074 6.064036295767805 9.677487199175507 -0.5811703588048507 -0.47779787065377066 -1.3820170572615489
Ni 0.8869488306920086 3.991031070048889 6.142088040646234 1.5204725051586911 0.9063737710569357 -0.31802694910830387
Ni 0.5932905501957553 4.7110252125410526 1.5206790427816055 1.4756787458827683 0.4779374815554285 -0.8507474399418833
Ni 4.045177748646189 9.165855743239831 9.458338902346608 0.5893575226013333 -1.7532447587625481 -0.6234688624627456
Ni 0.8872612854490556 5.834477698753678 3.5883033056728926 0.964936301982177 1.2263748131724752 0.31277444246011293
Ni 4.397595742403551 0.6895912925899949 5.387514357111785 -0.12307150924190419 3.058879483308616 -0.5551875615878438
Ni 1.9603484332874195 0.3713966596708228 4.92167255370592 0.7941451180668065 0.11676613584916663 -0.3857516061487873
Ni -0.054737883079293004 6.438426326667946 6.224896749785013 1.8406596951431073 -0.9880438345339176 0.9741701618756192
Ni 5.965089252880208 2.2205330621730335 7.077252375232532 1.0937269730960455 0.8760761485146589 -0.47278447659957934
Ni 6.389144104054994 2.091816277418684 4.692671456141685 -0.14887818589236293 -1.047382838613867 -0.41292533835010176
Ni 8.679237064910561 2.411549499505939 7.637302476201915 -0.5950170348799558 -1.9439771616865358 -0.4464651219787601
Ni 3.722757233458968 2.6639728615401226 1.6538057210603412 0.613130713761531 -1.3153784341963928 1.3452055448601543
P 5.8485336080867265 8.17034573699004 12.71378042045539 -0.5765380022391619 0.3018061163740673 -0.5270424666121956
Ni 0.9720166879283862 5.891512078749926 10.061494095586276 0.9432297635430206 -1.1563986410936538 0.23123164858961465
P 2.7710728784089755 5.630361846241951 2.0097600103478963 0.25508762927160583 -0.14939214941430398 -0.3453346357843214
Ni 7.896606219518829 6.127939214738205 4.305318652084753 -2.067592716357368 0.21163444318397748 -0.6789571253380372
P 5.589086846120085 6.097085446163331 4.20604366834428 0.6391636474901832 -0.7359664528435453 0.8320228669491865
P 1.0355643376415031 2.8928209200396817 11.999071591375433 0.46890905280457307 0.5278294812898652 1.3945892374996047
P 2.105689997389022 7.870088557776443 10.205846371448365 1.1349741526712904 0.3455781192536952 0.17865798825795684
Ni 5.468022014599541 3.2852750262524832 0.12269633726360986 1.7122132947425353 0.6649312433725904 0.3066634444663686
Ni 2.0583754198933324 3.9217991122192317 8.411007864714504 0.3351337839919196 0.28461854885118726 -0.5560347400794875
Ni 2.598612427668045 4.154054111801461 10.727085583426533 -1.0359802532038802 -0.22468356305845175 1.1824495725444346
Ni 7.078357353717365 2.5784987220249027 11.288282566434173 0.10310972140799662 -0.027387133763701218 1.5185804303423007
Ni 1.649405847950904 2.6251756367511088 0.8873414487686478 -1.4354710633156311 -0.29347548502118487 -1.7115404370452263
Ni 0.5206270557194623 5.439017468056168 12.449194096566712 0.33064823741674026 -1.311442589477096 0.09815443428525031
Ni 3.394807271113509 8.321344280803777 7.083772021577095 -0.7975801118902844 0.3388991645716228 1.2527206501558554
Ni 8.09491023136012 6.8106938514925215 0.31096718090048114 0.5059100555089545 -0.2948525678743696 0.28365489938633726
Ni 4.119948263102219 2.962781635320177 4.212403898996472 -0.4573555436390188 -0.5083276638115116 0.21550678165519013
Ni 4.756271940769988 3.4845628606524053 10.810414443195846 1.0585180292950802 -0.06546928534740337 0.31969739483219134
Ni 1.3749557919651263 7.163011641100392 1.098170068349411 -0.9945615810477775 -0.5814506090494309 -1.048458845286865
Ni 3.631398377528227 2.341789192524424 12.714726894194666 -2.520750162754639 -1.367137311936239 -1.4052063508938186
Ni 2.2248054027285744 7.166373034842385 5.517294216797544 -2.3659741233206026 -1.8440651212802306 0.10371984418816975
Ni 2.457916692315538 0.1849085389480652 1.0708699032941875 1.8080779045523443 0.6336748564614699 -1.314719717566471
Ni 8.297841853014233 -0.3282022946128116 7.748709449605224 -1.5005572542920027 1.6097311796162082 -0.924885199597562
Ni 7.1144126285976 1.4733107194239168 0.13833091742453626 -0.9519103220361541 0.05248007217658703 1.1261681243438864
Ni 4.6409916215154725 7.4431642241389815 11.157956138660284 0.7603196848769294 0.27133854391282947 0.45819269482833347
Ni 3.0250995068350046 1.7795254907981175 10.392609598108814 -0.5085747468253111 1.6518260519037293 -0.12158335473215189
Ni 6.605056717802169 8.04275852628449 9.766842883063255 -1.30351202177611 2.0931502531114985 -1.7290213674388095
Ni 7.697828515334494 8.994634180165328 11.936087817739903 -0.2411810464928427 -0.515450390899222 -0.8613594111297745
Ni 3.4335134012211683 5.473442148140152 4.36924889945956 0.5764356723333427 -0.5815750504424371 -0.9690580374600343
Ni 2.2943744108792443 7.5306424466440065 3.1447532817413637 1.5191715269590804 1.6504525685949705 0.46771477538615575
Ni 0.06268680497431389 7.844964644658786 9.573853334932204 0.21182907569328682 2.585944340063785 1.6761312043079972
Ni 9.235907553201681 1.9892436662131658 4.543545818976603 -0.14598440928433568 -0.8972031603012612 0.49795943320331015
Ni 3.6894894558281903 5.500123780308976 6.768734730313681 -1.2714552504508811 1.9232250167408487 0.07864207528393553
P 6.55320562517501 2.4545188607010036 2.0654771612517537 -1.6915385400020027 0.519691168453447 0.14293636648663127
Ni 8.02874816429212 1.0565525522256518 9.906368962707166 -0.3916918828926222 -0.14929033372911707 -1.7638168778514398
P 7.701417645779873 0.838929180362633 5.835064348501604 -0.014029738620188742 0.07007207422673739 0.6695026647933566
Ni 7.633233276785797 6.701453109611831 11.043574923910741 1.861149587566343 -0.8671996719606355 2.627090989505424
P 6.471247740360085 4.605983935470819 11.935727993748552 0.6398377907390722 -0.5205074937071551 -0.7313546651031468
P 0.9724175045263475 8.345675670193646 6.7921205569110885 1.618581945138619 0.42366766446827037 0.01810030914513657
P 3.1085331254878765 1.102254753861361 3.142420346951867 -0.4508066867769075 0.05067181532325466 0.0764826057387715
Ni 3.752563413198262 7.2715418444665145 0.38439678164696806 0.5894218001803655 0.010615313622001073 0.6537759980867193
