# total energy = -340859.18075304816 ev
CRYSTAL
PRIMVEC
9.43711940429750 0.00000000000000 0.00000000000000
0.00000000000000 9.43711940429750 0.00000000000000
0.00000000000000 0.00000000000000 13.81217816683408
PRIMCOORD
 96 1
Ni 6.4192134933303775 2.6336829475619434 7.317526275108734 0.6634016941019414 0.2891909987132181 0.4075159944090723
Ni 4.43334160126706 3.2640447694438883 9.125871797144923 -0.3092638582036932 -0.7669888693669887 -1.3671869342272518
Ni 4.281101992449173 0.5051104868861137 11.203968881443158 0.7816205032372345 -1.4811716506765396 0.4312084529300057
Ni 2.977562138345167 7.652324125973444 1.539684890767158 -1.2998772532370002 0.6119009551194882 1.998784596444719
Ni 1.7123558629058184 7.881212017882012 11.043030136039086 -0.3258428456082969 0.19851461797256778 2.31621067874423
Ni 8.540007880265339 3.8563561262406783 6.259320380746604 0.6951116236107125 0.9209714663654526 1.3870929291225593
Ni 1.3078903661090298 2.394234919137927 3.448776380069361 1.0162035847975852 1.0107536174266076 1.0137067865176606
Ni 0.8938386435102821 6.954052793488132 13.566017561439361 0.5756543140826279 -1.741457279209317 0.15202135950703496
Ni 5.155856893277114 6.160504304380866 1.6450720333131528 0.7208087712665006 -1.4898619793616856 1.151120937634482
Ni 6.886181031362033 3.0016173554835746 4.879580506719462 -0.3665976589281557 -2.427064048653388 -0.07087605818527148
Ni 8.930157267058611 7.652324125973444 11.21533683537212 -1.3534559577944045 0.12405572753204441 2.7467015367819214
Ni 3.996638904884237 5.666140808972672 6.13884989039664 1.2127783054349628 1.172423041546368 -0.5065204353994438
Ni 7.035608378623526 1.0937904401698166 11.396276611456122 -0.522184624299262 1.1325747992011785 0.840829666607539
Ni 8.141251840655187 3.0807098524772956 13.018474954969324 -0.5004593168070284 1.1672502390961768 -0.3790117163217924
Ni 1.776264034918881 4.725250575972915 5.326721600778548 -1.980111445515248 0.6258448188940899 0.21594232653071196
Ni 4.365073480129656 2.2268959194132334 4.086954024169443 -0.38249273289185737 -1.7471620429035781 -0.32141874839867224
Ni 8.457083912829015 5.296441659738808 8.171380787785857 0.05651464725727686 0.7861253330861236 0.11317713294632767
Ni 7.144399490107074 7.143710580396951 5.868794452892594 -1.014861211837078 -1.9632619780580767 -1.671642315298708
Ni 1.2618183496046336 2.2184402605054214 6.757207696507674 -0.39014613567205714 1.1435716645323144 -1.087238022937592
Ni 5.741864254370312 4.88237861259688 8.019709293550841 0.6204876683472346 0.7672058704738013 0.3496911129808042
Ni 5.661205195570009 1.1782243466968207 9.37494663098396 0.9167900812942534 -1.2709767681525659 -2.59252816392889
Ni 8.77859713083153 2.6379013398965325 8.506229599094878 0.49042995759548436 0.9363818873832519 -1.2923063828682775
Ni 2.036190612260255 1.126631615392123 10.294644868846014 -1.2393984791256525 0.08087636393109297 -1.315769241876908
Ni 8.599829779614247 8.04435149951075 7.315288734118731 1.0637389113743874 1.4622606727046494 2.050980304611668
P 6.149085390007592 0.7686609180451214 4.9061412790364685 -0.5380930679994024 0.082865883557296 -1.2992725297734655
P 9.457692236865197 2.784129503709646 10.525211624281031 -0.06194533135454493 0.28753700804956284 0.6857990879605351
P 4.503865193921167 6.167223533334394 9.323469032534927 -0.27986149378217606 -0.2978463603953709 -0.26519617846051746
P 1.1563396670012667 8.57417025219199 2.54090190899927 0.21571272701840916 -0.6671765877633413 1.2650609168887632
P 6.399716404821963 4.934037403736795 5.999775063025627 0.5481262838656882 -0.29158880952143335 -0.2068737885705405
P 7.164132506598409 5.605129832589853 12.248611747923247 0.6013090385362547 -1.4743392011357384 0.199980660995133
P 7.751310070486884 0.8124359397078196 7.945192855713813 -0.27945551659300905 0.16291100983634524 0.30659788133575583
P 3.3158073688962877 2.2423067352574937 13.400367806072367 -0.1196444858382262 -0.3670756270058388 0.019237250963057194
Ni 8.224383424716478 8.488915316284428 4.114744453133421 -0.2357033112077231 -2.3976765966302063 -1.6419987814006622
Ni 3.11835452143183 4.932706769913133 8.11582824121585 1.7513457419676226 -0.7389211645964952 -0.8306331856905114
Ni 9.12525083469388 5.385971610696859 1.4249889737271169 0.2068277658239535 0.3382964979906174 -0.031715071715093766
Ni 1.8519402947199366 0.5075933929783518 1.0031940947289717 -0.6457387296045395 -0.4312107669228509 -0.3464111566779518
Ni 3.348299370703874 4.7800613649646255 12.529206560280247 0.7776975140337444 -0.0665856583400337 1.8943597557697245
Ni 4.138469371095743 7.053114234956107 13.695202287766417 0.6410973741777862 -0.06602772895403466 -3.081332412995493
Ni 5.795429343612212 2.4816226440110754 13.075022173915318 -1.014701546330762 -0.07711895377118977 0.5470307368086643
Ni 6.865976158904862 8.522001856608972 10.40044535721808 -1.4272751577684 2.160824773640337 -0.11017151335078444
Ni 1.4973594106315136 6.3166980661924725 8.75189291430091 -1.6875785269129904 1.2118095137637905 0.8770174293820058
Ni 5.231721895464505 4.260802748798834 4.235020538825459 -1.5580059833277746 3.0485835006992463 -0.6957939943897178
Ni 5.263921346573271 3.5351260218176663 1.8336775814181532 -1.6073387681246318 -1.564320612691893 -0.6984471157418487
Ni 4.433879517068114 0.4277478138631539 0.48907587745501585 -0.5412017888317131 0.3800869516638422 -0.9370866267597603
Ni 7.511663862557215 4.042814729701118 9.976688501113983 -0.8522253100389904 -1.1044721274276916 0.6475300171770074
Ni -0.04215655569987479 5.134245890041745 10.975791604619141 -0.6056212927583634 0.6015273251946479 0.26319997396609507
Ni 6.083686153142483 8.233952663703668 1.0229488165947345 -0.1956547799262695 -0.9189942880344238 0.12404081513370897
Ni 5.706503368290432 0.4529571906940007 2.5790788314832693 0.8314587669156003 1.081665413945821 0.9423337340913126
Ni 8.462104460305529 0.44435997499643715 5.68506506433856 -0.3242950415052028 1.3451289259859478 2.4419016278868524
Ni 7.318353910472813 0.5319326674081938 -0.10866182294890832 0.47300841968492735 0.2878242002726785 0.7105169024221892
Ni 4.550409066391401 1.4063100834634645 6.645190977641659 -1.416838278705792 0.5654501198561165 0.6810340624717239
Ni 1.7797085834694966 -0.0032756241148455463 7.282028550798761 0.36906206130824826 -1.1844113242564958 0.8241570910478645
Ni 7.749705760203035 7.271206062366307 13.397674452219364 0.3153144352731473 0.6663749177976523 0.006891842023826839
Ni 9.49327017668936 2.0362661092147887 0.9103838010964163 -0.16697181016928017 1.2354042703645949 -0.05473235854587348
Ni 6.151142682018645 9.192679052212092 6.798271433790668 2.5823283405777526 0.9302318086214559 0.1966559674972742
Ni 3.531171868823946 3.412849266830476 6.006073396457628 0.42724766851004486 -0.5707975002109589 0.3744050707877165
P 1.175940563822166 4.2053785470515335 0.4728006214813407 0.05511262470342767 -0.3559031553287871 0.6484008498177349
P 2.846395616961594 4.222280427747841 3.707368548739346 1.9849865142193621 -1.1026926669297656 -1.3441061411483886
P 7.331858428215089 1.8444189106244833 1.8381111400731645 -0.02608435579187766 0.743041614522772 -0.9416086829998299
P 6.625197496657182 7.349939948825991 7.962458065503816 1.5639051224210292 -1.3034217760551488 1.7682720854093161
P 0.22141274969776642 8.086441051663476 9.42867592610197 1.0565192536974966 0.5554788675760175 -2.9320099404768603
P 2.0106537673891167 5.730275471849337 11.303610705749113 -0.6484368452619929 0.287195308439428 -1.0711210627710714
P 9.051848920648162 2.2766484124511637 4.877245763400497 1.1482091633043259 -0.22614420676437827 -0.07126043810788373
P 5.415972213004823 4.596622639685548 -0.1625005886509937 -0.048971544802696304 0.9699116437095812 0.5227461532296868
Ni 8.821828574421584 0.7245725840211069 9.932710581385974 0.4204080198803921 -1.3891788651173107 -0.5312336218754077
Ni 2.726336585013841 5.161264362645614 1.811577735402177 0.111472234440079 0.3096875760046731 -0.911204873896992
Ni 2.92605434111432 2.547654167870408 1.7689398866171477 0.3729117740716416 0.9046611592412032 -0.5448589259683262
Ni 3.887158883690566 7.0805196294519614 11.089175762074156 1.1268486953506787 -0.2333075572820369 1.7435036202153842
Ni 9.052585015954868 0.9978338109570551 3.014784024354311 -0.8401606655649724 -1.408792011362548 -0.2778393211458247
Ni 1.885243888788764 3.891830257752359 9.712170765225007 -0.9663622357954261 -0.40019914903268494 0.8278592224898
Ni 8.760298556476343 4.11498038111634 3.9479207201234225 1.0664318848255183 1.6897775914468383 -1.5304800099933642
Ni 0.4379540584042241 6.54192435580614 6.230521123727664 0.4648875903500058 -1.0547037977553124 0.009761964482770285
Ni 3.546610996026157 6.6872276819262115 3.9947033517123702 -0.6601945000185533 -0.23056933241526742 -0.5213096778934765
Ni 7.196313083468541 6.469787015748866 10.31714484872102 -0.7318370040562041 -3.4735657702138822 -1.7733620983377136
Ni 2.949175283440369 8.281874355594148 9.330762038342915 0.2960638145736514 1.3424853177155138 -1.6893600442934456
Ni 9.406467553213853 1.2901297075548976 12.29394389427321 -0.05013214076970076 -0.20631765895675436 -0.4241178646318115
Ni 4.213853080197979 8.788204118295987 5.586376389083598 -0.7045190329675415 -0.5560689357515326 -1.8453450164339187
Ni 5.367984461279125 4.620470240198988 11.072104013230144 -0.08233032276880015 1.9491869880222497 0.08867580537085373
Ni 4.643562871167086 7.903795044407006 7.824778044367819 -1.868433779932582 -0.9591094108877545 0.030911344866875794
Ni 7.154402836582834 4.461398156995771 2.235059027622226 0.7850277291465706 0.8365960881421656 0.8169973400746317
Ni 3.307370584227109 0.34339412285034226 2.7707363439753085 -0.16343011556460887 -0.4328056222137966 1.6424078439136232
Ni 1.201250917829702 3.45689230268177 12.26379135434425 0.9167687411380147 -0.18855442143606235 0.03401955147855431
Ni 0.9366727843770998 6.081402370267829 3.426580275436354 0.15484905876381716 0.7823807784420268 0.004641612537069426
Ni 3.5099666617191985 2.7405771980628235 11.17229790901613 -2.360804406194205 0.8303369946063313 2.0542389207582814
Ni 2.2678907657252156 0.4491747932718454 12.50423405514425 0.6505618620247956 0.10268831759986184 0.4502888666002245
Ni 1.3439967846149332 8.208642309696131 4.872881095716498 -0.2732306187292198 1.302788513346524 -1.4529530221504785
Ni 8.65064866713497 7.964268104988769 1.8052378786451813 -0.20545556806677517 -0.4362722406061583 -0.6262834490934053
Ni 5.7748847348596355 7.69301698446729 3.6662632881313577 -1.9802096616560092 1.5912750297935498 0.5018664815672002
P 2.675423326299949 7.434194550085977 6.349292932600611 0.005517073163487273 -1.16298966404761 0.6569374265338364
P 1.0755956741271138 4.596292340509462 7.343009328399766 -1.2976313946256168 -0.6267040815705917 1.2233403972215253
P 5.54334501242306 8.516820878104072 12.545462942015288 0.30172126996974485 0.18711820321016806 0.31394712261197544
P 0.4451668486980197 8.86728717817039 13.172867170703363 -0.8352645138149357 0.6862060935909666 -0.07794787743038835
P 5.476888818194474 2.55358067880133 10.913236715516101 2.9666702108632066 -0.7185076339371497 0.0873383175063528
P 7.307189798321092 6.53093011180212 3.226469935172298 2.3541305937184553 -1.6309983165251007 -1.2581665037617753
P 2.4252924788093666 0.7484541581640862 5.371307270990554 0.5930822797510883 1.4035384762730925 -0.9435046144709621
P 3.50908900962274 0.931900433138617 8.673536512613897 0.0361687366110732 -0.08746481578188808 -0.036653903777607834
