# total energy = -340874.91700109775 ev
CRYSTAL
PRIMVEC
9.19082998797145 0.00000000000000 0.00000000000000

0.00000000000000 9.19082998797145 0.00000000000000

0.00000000000000 0.00000000000000 13.45170871072694

PRIMCOORD
 96 1
Ni 8.09805886173454 7.4800122948033545 5.250982306907276 0.34674719986113184 -1.2082549636433126 0.31129502970110906
Ni 4.5801031717140805 7.294761921501374 11.203955628282632 0.6225442937659472 -0.8913497868442779 -0.6665268699944843
Ni 7.391486218416935 4.138401063631134 12.018658388781116 -1.5206172582666715 0.9557016707577864 -0.8688613759337747
Ni 5.281409469333033 0.06378803784803848 12.359981925865108 -0.21905207580428726 1.4264786300090337 1.198296309768704
Ni 2.7797206366996137 6.157589692969884 7.708272996143699 2.522498512904314 -0.7372319498195302 -0.7281839806846491
Ni 0.6792758776544331 7.277841603122283 10.832822552561627 2.55401483834504 1.4861163962763246 0.15734277171994837
Ni 4.654833811985881 2.2030052331311496 5.66712471623289 0.4434864989664104 1.2819636061813728 0.8409206836594485
Ni 6.834990641265635 0.10924404579986094 5.449381081878527 -0.708281071113135 1.4834265081489872 -0.5477814989317599
Ni 2.087743031723125 2.1390370550113946 9.90110306117192 1.9128948384594346 1.282352099869043 -0.1544721350403727
Ni 6.897322851611638 5.789735905460534 8.007439114230923 1.343391374469551 0.8470054564009477 -0.47946857348797417
Ni 1.1309132731723588 0.6800570982205508 13.419572518599978 -1.3273050104306496 0.05136781294901476 0.2230848511127642
Ni 3.683684739999686 6.83972391881329 5.10421026327716 -1.4113880542244983 0.6678196206639788 0.7778540942162668
Ni 2.6790167103119473 1.4680604970181883 1.6401799312282583 0.7553615695407055 0.3273757373130555 0.2308048454648412
Ni 1.4607997411683884 3.084699954881773 3.02145601418096 -0.366598173148788 0.6167040329350862 1.0943664064522571
Ni 6.477715499304538 8.39017101765123 1.6480895596894454 -0.20053087707164818 0.3239412577102098 -0.32130741963178855
Ni 5.317722439412222 3.7321204150989833 4.024831813144038 0.4647415516904448 0.5687534731977366 -0.3640784920507278
Ni 1.2306521623901145 6.670254200946887 5.8772537477751525 -0.4849429663389842 -0.7881084249544232 0.04973747643444337
Ni 8.162964504533635 5.582951417024274 3.7247512074529463 -2.1460458155589492 -0.6259959997599736 -1.7762432765402507
Ni 8.143875150229794 6.286187788983047 10.06620989194731 -2.532441740159955 -0.8345461475916723 0.5201200284607493
Ni 7.045543370079639 4.758212269958726 5.714649580060396 0.29878481304924026 0.23819162484721562 -0.25578876910368853
Ni 8.85235029539665 1.389368608934662 4.6314238484098995 -0.3602164379921603 -1.1712899563831893 1.2524571120818235
Ni 7.091387231065464 4.001632319579399 9.827414661043624 -0.9140351442569356 0.07639287423844263 -1.305029486861901
Ni 5.491364794184712 7.661531191048349 8.590543982947212 -0.4976496152723752 1.0700098319847637 0.5177291596310696
Ni 3.184383699118391 5.686035768431052 3.07713222530364 -1.4872289126142129 1.1337479935736732 0.35940216962098104
P 6.88131242542132 2.391132336282481 5.367124070764448 -2.4524192395887248 0.6484887815458509 -1.97483348494576
P 0.6132609016514498 2.565886781507915 1.0703401877246492 -0.19274686225085513 -0.46014236235553657 0.29967672873589035
P 0.5719085993792925 4.154871031330933 11.183387469401282 0.3164097252198551 0.17534537894495605 0.28604036889937834
P 2.7763016478690745 8.070045211316577 3.63067019329992 -0.36170819204633836 0.22223895817270115 -1.246721238039311
P 3.834294874316988 3.8939893163985704 7.640140452865027 0.12126068128541051 -0.4728919487117211 0.8413076346852221
P 1.1550759657408698 0.38781627068120444 8.744350688004463 0.11472262305657661 -0.27656945329446564 -0.31194269058743695
P 6.8028962622434825 1.9497427164259815 12.812780123235983 -0.5917753880142067 0.44513431898247857 -0.3139445515088142
P 3.5667130441763923 2.30335990797161 3.5596986025756743 0.07842224596364558 -0.4733483195228493 1.2128598094051757
Ni 9.176032953014687 2.265410970118669 9.152044886219779 -1.086354334781058 -0.6980125993075914 0.01774318291603396
Ni 3.781953096387103 3.7955003800866027 2.059631958505154 -0.6462241538813903 -0.30462841631421084 -0.880627001110135
Ni 6.410944117976948 6.524000520139463 13.0883653283057 0.056082187705548577 0.37923128853176624 -1.3158391758828951
Ni 0.5646276237030756 0.7934535611000821 2.604116039681639 -0.13435685234773634 -0.44889687134870426 -1.1262791960004537
Ni 2.9910178227589763 1.2698510531488438 7.4485070479963555 -1.107280543410764 -0.12129127741302981 -0.5780654946272819
Ni 1.7544559565569362 3.7117075812478375 7.458206131095461 -1.152086386871545 -0.7533211420719091 0.22732768554951815
Ni 7.4867491733323455 1.9505423186524784 1.4245492687344892 0.343070522340493 -0.8187490326584157 -0.8974121909882739
Ni 1.8309236637345745 3.864927911338992 13.163775170928513 -0.9331536102539413 1.4584418131791916 0.27123955644111997
Ni 9.184240364374018 5.901523973056881 12.507196967510366 -1.6971700272561676 -1.9351366805767705 0.6509871224876724
Ni 8.092342165356596 2.3836142371873716 6.939278991427252 2.044950810588136 -0.30224706056622785 1.3001233078095351
Ni 4.783863877017955 2.2196865899253098 0.6082132977113104 1.7192264928355747 -1.1186967556675056 -0.3116917509188955
Ni 3.230457330858956 8.608646242088687 9.31357280771933 -0.1134139315474821 1.1385670122288714 -0.6507133000009955
Ni 4.6463231032302925 2.255135621966674 9.049906271239513 -1.6506723979152602 3.0251756632982674 -1.3044494459887146
Ni 6.062326738054473 4.049700361471112 1.8014256942409892 1.9359918294882144 -2.005222381650263 -0.6004857713040109
Ni 9.258842333023164 -0.11251598134736565 6.8154426645353325 -0.7022112107699713 0.2608720971638669 0.9766710739206018
Ni 5.834844500031188 1.0455304607107891 3.1172051640134018 -0.16092894640930994 0.7286082127062613 0.22401713311904645
Ni 4.870101436687159 5.6741612158260635 9.176351874822267 -1.0575183843859723 -3.03379914330122 1.3001641883497996
Ni 0.18842029063438012 4.524324023293277 9.068792508196163 0.4102357073330805 0.551026745341935 0.24055395443180505
Ni 2.6435952507611518 8.735920858554545 11.927442156398195 1.5337519958764165 -1.1662464804220107 0.7283248771378876
Ni 3.036521623027785 4.264591162134616 10.95053870563028 0.4213202472820163 -0.23898763838594975 -0.5228754797186994
Ni 4.545747848465281 4.375892115730914 13.226204804074525 -0.6477855848312393 1.3257451221426977 -0.3298627654009674
Ni 9.349463918692816 3.9324988948930777 5.35294629611394 -0.2449788229723781 -0.9528906836715525 1.2212539470061419
Ni 8.927025790687312 2.387649011640615 12.186024325617115 1.9113454916944435 -0.0072291707585875505 1.001718760917849
Ni 4.558495529938284 4.967643717489596 5.9899921472131075 1.0407288236324592 -0.15796369313339892 0.46065092656083895
P 7.346046753959453 5.834394149351898 1.4711862983656778 1.36321226585022 0.2199455341528341 0.22227572494790754
P 6.750499339332458 8.105724014112683 11.205690857022434 0.940241113228342 -0.2988406059878402 -0.35023310152720327
P 7.03462466381437 2.057615490361551 8.827751038394132 -1.4659833729718752 -0.20769268492741005 0.03703596970737492
P 3.7089503321909514 8.16791836200584 6.935526375460832 0.14569850261280068 0.4636256929184467 0.42177096166618977
P 0.9820677782514632 5.3197444220539385 4.139306360404811 3.0393583825565527 0.4692031870062242 -1.2194991690985644
P 4.49110836298799 9.402678825490716 1.3857005486059848 0.30854497775979767 -0.397945834222134 -0.1561757479950407
P 8.968733778087808 5.566729601739595 7.219773937984265 -0.34490988954207696 -0.826743620828118 -1.5247996717791352
P 5.887370094564867 6.008872869671643 4.177683590944588 0.3082703839421723 -2.4746487404108866 0.8653402501543935
Ni 5.7513090444377335 7.083795605328837 6.165630750302783 0.4516497515034931 0.6607889390694426 0.22947738490266928
Ni 5.576683270834954 0.5198103784494317 9.852327325355606 1.2850882678532838 -2.4801208192690516 1.1413607729239246
Ni 3.925026749948917 7.5840892558706114 0.3188878015081115 1.4905368939415233 -0.6576997586211577 -0.6636040399207346
Ni 7.807095559591549 2.906094551806888 3.451681532606128 -0.6825882943327212 2.002339146565197 -0.22017204834134338
Ni 7.674416734974196 1.14273268079621 10.773527911593293 -0.8150618136148156 -0.4850391255972163 0.20087000557862178
Ni 8.403801018822437 8.492823400039097 9.324657868011032 -0.6750518767463599 0.8193355012895049 -0.47038718001199636
Ni 2.927159934601497 2.022285939112652 12.550955429126164 0.15381496107234802 -0.1643264021266331 0.10922843271122479
Ni 5.254939878386927 6.081820488886657 1.8174067097747004 -1.5083528390770216 1.256514569980649 0.10601583931119807
Ni 5.275628437143762 7.813942728082816 3.586454028340677 -0.5816120743279596 1.258998512744767 -0.7872075104067088
Ni 2.0746369078727276 8.264403697336471 1.451573985824048 -0.28504406642438007 -0.6250053537119301 1.5548116447601934
Ni 2.0077828090734315 8.89665009691062 5.4832125278065185 -0.1302518290404273 0.7917869022472751 0.16220884156299806
Ni 6.064311957375431 3.7036747956621094 7.556537904211187 -0.693628868417599 -1.435410899501657 0.14971173753725184
Ni 2.753361335715783 3.6944655838121103 5.296610183383645 -0.7958219915485971 -0.3401024408511045 -1.218129028223915
Ni 4.325379313008763 9.346247128126448 5.030898687186637 -0.6109182794912447 -0.992749210429387 -0.03129469634822352
Ni 2.429329426550541 6.2102623407865964 12.150430997541774 0.30314129024572306 0.4792238044670199 0.17748582232672658
Ni 0.5073375027990984 7.433221778307999 3.4619449326788767 1.645089504510844 0.7280212298545398 0.6726455812977126
Ni 5.363667399530132 0.5545526356492142 7.391363980375412 0.19974077707018503 0.13729356637855708 -0.18332222650284558
Ni 0.8514090981097877 6.86705744779722 8.504600529844076 -0.6565720727746176 1.4603282315686268 0.24096275983444954
Ni 7.809816045327678 -0.0006553061925199042 13.153511770855765 0.06488795892263663 -0.3903060582886891 -0.892571832176837
Ni 0.9345052320201799 0.5211945174759884 10.979002706727531 -2.325618088101059 0.140948389522325 -0.46598879383398456
Ni 5.222174568760932 2.852401721839128 11.334477365054482 0.43114700356445107 -0.471180365337253 0.9125932696040864
Ni 0.7981850004816984 5.264682158387924 1.948251044686206 0.5712988653274096 0.4495908120919354 -0.5671755871876554
Ni 8.29950347783063 4.129927118196305 0.4863180741554376 1.0134252507214998 -0.399949237805408 2.5119827009746545
Ni 8.680242809265827 7.593767200060281 1.4195457807792602 0.07110257237378077 -0.45419720051569523 -1.0001020512500323
P 3.774903729631664 1.1372733276635758 10.90343110549338 0.48296990177301335 -0.3149449677488705 -1.1903870822239564
P 2.881729660974205 6.619934405658717 9.879809745788608 -0.8595814932937454 -1.6890556256791494 0.9231599893763391
P 1.1642667959304898 1.9062792804592688 5.8963817035657895 1.933556480573844 0.6856401937851676 1.7472119223049072
P 5.403454503420997 5.107914167843576 11.320944786683285 0.4718028294126003 0.05954597788443294 -0.2973629930010492
P 0.8313390822247145 7.704636184637667 13.054292163543721 0.5759474198430146 1.8180730680918429 0.18406887486088297
P 2.8641476028214625 5.61861183816 0.7756591947699588 0.45608927533208543 -0.18868580480760408 1.1596832253821963
P 7.127884017748444 8.300836148208125 7.4693711516098125 1.3962409141704148 -0.05135315766099543 -1.054750591832848
P 7.96671270749468 8.994946025788604 3.3477405958256776 -0.874724519582771 -0.7483794817959176 -0.3973249128086835
