# total energy = -340867.2493935429 ev
CRYSTAL
PRIMVEC
9.26075709731845 0.00000000000000 0.00000000000000
0.00000000000000 9.26075709731845 0.00000000000000
0.00000000000000 0.00000000000000 13.55405410360060
PRIMCOORD
 96 1
Ni 8.622153954779106 3.8029114446202543 10.781870897146646 -0.5374271522806292 0.7438137168021062 1.2428134183444726
Ni 4.601531367887181 3.7091833204579507 12.556760776149414 -0.5214436323681794 -0.484484795755643 -0.5450155061508485
Ni 5.006254242135293 6.0226130899456525 13.153017410140833 1.2088342331855504 0.206418960421309 -0.9208321125741109
Ni 8.558699246078374 2.190465434676214 6.008132969904136 -0.8233793323415755 0.4604200414969555 0.24589747813190557
Ni 4.116962244599707 8.139631458844647 12.47277959899638 -0.495693777097585 1.4654822649657406 -1.010486222697834
Ni 3.7916688853145497 6.351388493958111 1.5529965787554316 -0.9040446087031268 0.5977632301665253 1.7234865536635091
Ni 7.8839604725910295 8.42376075213816 11.034612705880996 0.3232866548453464 0.23182711608176848 -3.474466941871913
Ni 7.036406707996801 7.213944685302949 0.8010406852129819 -2.9103309128415296 -0.27644398346019483 -0.35230386801330293
Ni 6.19499282546162 3.117115326972273 2.8384767366543393 0.07834177043469734 -1.1381093558661626 0.031143772592656046
Ni 6.1722113626181 2.0207991010355104 8.381704875223006 -1.4841695569625988 1.0715882322154768 -1.4752647982738012
Ni 9.20642439065737 6.366066794204851 0.7915298875136749 0.6777489639625489 -0.6874057703260226 -0.3386713648315329
Ni 8.397330550936775 2.454915618806116 3.7782194875553445 -0.15333262211929075 -0.11233663932290332 -1.5502685054742011
Ni 3.9303487251851643 0.9770284117548997 9.501866625011711 -0.47286238102536626 -0.29353410617326225 0.1242760710729666
Ni 2.9050717681397202 5.184440472449183 6.368223624569183 -1.6838064614650678 0.40433065470255525 1.5698238018983093
Ni 2.218099534320549 7.310849249203192 8.895119405203568 -1.518920587290539 -0.9850377007177423 0.5379907380935831
Ni 5.915540214581108 8.730893766449274 9.372479028969222 -1.306667793796272 1.135525140078754 -0.39722592533697393
Ni 6.106256249458934 0.9567103103408009 5.723741597180352 0.7867318563218708 3.7344545795482977 -0.05412532108949389
Ni 0.7375489334832366 1.1815151926686258 11.19833270728925 -0.9616933695648471 0.8290056773894173 -1.0154283971944578
Ni 4.394590486301286 0.9244865794016495 13.54837488057852 -1.5943552113807702 0.8841298720570709 3.967923602108863
Ni 6.1890381585476435 3.150315141725939 10.8187787191046 0.17085546149440253 -1.5630126925137469 -0.6438816217911427
Ni 4.62497960525295 7.48328454926268 3.5000633826903167 1.2146025031278953 -0.6216168968556713 0.8834462157264851
Ni 0.6968016015679974 1.3739166853665823 -0.17533947353417534 -1.3103038478869629 1.196375181486591 2.354951546957854
Ni 3.9328861726726134 0.013537374953112856 2.412133698522291 -0.9442867440526254 1.2446062485788372 -0.4743034843472671
Ni 9.130569527994249 9.02677496069743 3.585074356049935 -1.5044079954966607 0.2581564980049167 1.9820590561599218
P 2.0985338974210825 -0.13156480007277901 -0.29982349861095625 1.6168783321839506 -0.6926143111101556 0.4842960767836047
P 7.9130577718814115 2.2595136407580374 12.146289749874075 0.43586112121066867 -0.9701376436774583 0.11771590135694564
P 0.07507325475092672 1.403449240247877 2.1174008381735634 0.4644875266981097 0.8551921059767982 -0.36006140047153473
P 7.674056148684026 8.561505255526175 8.375253831720244 1.894366440637944 0.3760387497363975 0.16761715706276292
P 3.7823433027603115 2.201809862311707 2.0192562588770833 1.2950332948811376 -0.5156853897281636 0.05558210814067847
P 7.308302540958488 4.944790596244056 1.088729813594725 -0.2013037506819307 -0.3980594769818629 0.035505134885145305
P 2.635852294024285 3.1914792077175838 5.394988418985302 0.8205254078325482 -1.3200241604985203 -1.48018074751818
P 4.563858607380092 6.358723013702854 5.667139848847183 0.6693795089519311 1.09784690880169 -0.31575923612004975
Ni 7.3767210155470755 6.8962914507518995 3.065954273525514 0.29145382660546576 1.4344559917875555 0.5218791772437013
Ni 0.7270750170295693 3.972809297192294 4.853340618366105 0.11689597655881159 1.2385983518218602 -0.14042182759489363
Ni 4.060351235509284 1.7427263429857636 4.381293891036764 0.8537725999214523 0.16444364443078777 0.025552651658123735
Ni 0.7945053688192127 5.814588699761104 12.022879972638698 -1.0684579141166115 -0.622565891032502 -1.1328311381863587
Ni 9.161111505416173 3.8723300809922163 13.138975323917407 -0.1148141543291184 -0.37727647879824056 0.9206097121506597
Ni 5.915762472755191 8.111062022717713 5.53508237648852 -0.06741535333018067 -3.7848011503216497 0.5725821029152074
Ni 1.6998212546304676 7.928384325135893 1.4945510136530986 0.3996916132686471 0.11380988143432012 0.7709141725633238
Ni 7.7103027525740835 5.960140021513788 9.410877832844983 0.7672462367934335 -0.4593463488168025 1.4103015060285389
Ni 8.031225034435606 6.8472464803375575 5.503447629710689 0.6945125565741329 -0.690169963334721 -0.3825552106986766
Ni 4.006990752214827 7.883080700651949 7.769604011646637 1.4582276402858565 2.0495124618168896 -1.8587373785804246
Ni 8.113191996886009 8.947604746937571 6.28840330565013 -0.6586137857949947 1.1717437560911563 -1.4108368097067188
Ni 3.1676142362754085 4.013297327904437 2.976484245548353 -0.2709569922036947 0.5668742538971527 0.40548919378703074
Ni 0.6863249068871542 7.819848250125302 7.112381960504216 0.42444516606424315 -0.42843886060466857 0.3967559276790909
Ni 4.679330989573527 6.150930142449642 8.940972192592643 0.5568981165210474 -1.2054131233191434 1.9895849322233221
Ni 0.7941469775135037 5.109965462616831 8.287870252352288 -0.5184272141393588 2.7433403336191717 -1.2772705715810777
Ni 9.28076048913092 4.331450643347173 2.2347383368778466 -1.0883273993470288 -1.580521905042104 0.03303867562252374
Ni 6.492874343276526 6.8483299889362135 7.7116474145272855 0.23544465822969773 0.46643385179120317 -1.7679805223108263
Ni 8.67138414033852 8.673940109340474 1.4419341691660952 -0.2026386674432704 1.0492530590533864 -1.4016273752933088
Ni 2.1470695261864843 3.204861001948839 0.9124401863663444 -0.3579852346687964 0.08709740514014033 -1.0598742862126584
Ni 9.05607599664739 1.0616069077507813 7.924499437468065 -0.879463319819337 -0.07146664058141886 -1.348026302138401
Ni 2.542216777434516 6.709835364210667 13.11818307173193 -0.3493794952776563 -1.1440195507030104 1.3510913142169698
Ni 2.3606688922376184 0.5488341482478839 7.1098195089721825 1.1047757747110392 0.8717898624344791 2.391433958154604
Ni 6.454766327178524 2.4332361860757583 0.296298854400288 0.2147292800592173 1.1554738152865391 -0.6013506904074676
Ni 1.6490537833669812 4.086605482322853 10.157069831072878 -0.3578199127355257 -2.027976387517327 0.9490944498539139
P 1.36260004000285 1.6468219408688964 9.117772087545688 1.9755081424152816 1.5484599915105526 0.8872720172304784
P 2.8514612443994207 5.129255619975795 8.683567592581175 0.8709210866762807 -1.2161927304331508 -0.7837730308038631
P 6.8488300698279 9.036489495056314 3.921526927825515 0.4506254240040368 0.04541056692431534 -1.143926476768572
P 6.025113494404088 5.163974198919029 11.23198722522406 -0.7708491236533433 0.48303829311710356 0.38237651902896724
P 8.399682783279156 8.006415465753577 12.865074537010345 0.626956821011346 -0.24377940334763823 2.726151223434395
P 2.536641801567931 4.498949959790567 12.41659828904252 -0.3256595259528972 -1.1592664495597518 0.4152814972871041
P 4.9666274618477235 8.152670605057525 0.876590868962462 1.2096724128161296 -0.49675230026908634 0.4451906261417107
P 1.7776857016175882 5.367729380009732 1.5986604466965342 1.0732159976268874 0.662265266504653 0.17031141606547442
Ni 5.60791638013556 5.221937278568457 3.323670961056423 -0.3008746056987334 2.041870114780284 -0.4585971293556037
Ni 5.764839911795497 7.2491633451378705 11.053981579676613 0.20910344923200763 -1.0230776862095994 0.42980128816983393
Ni 4.003805051719636 3.3990868638257274 9.55582535322474 0.5646939584163824 0.8331862911296682 0.9190701355776818
Ni 4.601790669090278 4.156088943995589 5.018294152640521 -0.2644816688919961 -0.429641365553202 -0.20528921769224
Ni 6.5082657218317825 0.10725994266106424 12.689685055387002 -0.2188646423838295 0.4237314278266702 0.2930952188636307
Ni 1.969735285539913 1.8798503756377969 3.4333775957838517 -1.7424744076199217 -0.2591304318824118 -0.43190882143114007
Ni 2.837922017294857 6.053293978726376 4.1661776129475125 0.23608460580654178 0.5794184091107505 -0.19837397862964545
Ni 6.26758790157152 0.826528141325964 1.9804370166220153 0.29437897067206076 -1.4684907127747613 0.5201827633778847
Ni 7.6756675204461295 5.8623093818882 12.402082052047716 -0.10421812398082697 -0.27386825231321865 -0.113451726763953
Ni 1.3698512129323117 2.9319372249320175 7.078862649625305 -0.5592617316572175 -0.3842122866861254 0.8694427023585414
Ni 4.865861162172788 4.368215849643423 1.2398051770491008 0.8640968646655958 -1.7515241765270158 0.08259051840872228
Ni 3.017173234692895 5.864281923183188 10.78138285523939 0.9390486355821377 0.5298735083030874 0.6801799420015446
Ni 7.829127528893272 4.964164100418302 4.169972671269982 -0.04381802562621486 -2.0156895997301736 0.1310182748928066
Ni 5.385019213801948 4.666310364875158 7.174580910521378 0.4639092855971365 1.178155573154771 -0.5724154954303561
Ni 0.6793098832676557 6.298241008080485 3.327872566622319 -0.6083934561868619 1.1940804719151437 0.7165713361463852
Ni 2.0123255081485913 8.614171182026622 3.8162932388515087 1.8138217490146569 -0.35967239256323214 0.3699434354719371
Ni 0.5064522926774085 8.899939629353996 9.520625214904326 -0.8673539381503127 -0.39589203701689885 -1.1741341107002037
Ni 3.8150893404085586 3.09250949494982 7.3028562896177265 -0.3306585218293854 -2.288849513122458 -0.478320318816144
Ni 3.7243061370528565 -0.5604221337991427 5.515822779628492 -0.7401049004919511 0.4407241057299249 -0.35033517432270633
Ni 1.581709556619795 8.140640881385275 11.414831616436443 1.1378213923120986 0.35432269821554463 0.44115013752375
Ni 7.639513524128608 1.4415387348313722 9.786162611935785 1.7935498861394985 -1.2592728494520764 2.8203800974129942
Ni 8.800117926918913 3.3439946189248735 8.623753287556779 -1.1659775430313404 -1.310212059504105 -0.8240748157467034
Ni 2.7736060581695536 2.3927666768781233 11.452836838128931 -0.7803830312857076 0.12800494198777954 0.744685320773782
Ni 7.8800802153018275 4.7205691416232005 6.763879291390429 0.3180354337487361 -0.3038167190461929 -0.44773190450632566
P 4.7342287585720575 0.7865763084587973 7.394400727219663 -1.5140210931063927 -0.9658603564583431 -0.4352545979749214
P 6.68513692461568 4.128158500119143 8.701323242463241 0.9410337843329664 -0.05544198301838839 0.5639154283791449
P 0.6721161270331653 5.851094604854256 6.176663934705566 -0.6848791472494269 -0.3410887160237739 -0.8993472032274576
P 6.5116181159575355 3.1577793120722304 5.10151594769877 1.1822845077214799 -0.04065788273067837 -0.1542721032144246
P 3.720120274774291 7.9013151316840196 10.281671467766776 1.3927678680201498 1.3390215275366293 -0.32755648586529396
P 4.673904185822998 1.514328286843595 11.700998276325716 1.6069667294971937 1.0139402426847053 -3.290051739415205
P 1.0037179141593813 0.20483776361363246 5.654615600737599 -1.2740528359747283 -0.39700995267142597 -1.6017659020225445
P 0.39583810373913986 6.873954504256546 10.17071833511303 -1.180469308889612 -1.8114059404843126 -1.191098506468684
