# total energy = -340873.51689049834 ev
CRYSTAL
PRIMVEC
9.19887912653235 0.00000000000000 0.00000000000000

0.00000000000000 9.19887912653235 0.00000000000000

0.00000000000000 0.00000000000000 13.46348943863315

PRIMCOORD
 96 1
Ni 1.437085668984 7.780319848230601 12.132919376959759 -0.8578369997988129 0.4812858292023711 0.6262441112150375
Ni 8.381530981396999 4.482898889745761 4.394819623560528 0.27888833123562934 -0.537100879289462 0.0032753283171621014
Ni 2.181403762363835 6.730037841264653 10.087586352281416 -0.09105587556725608 -0.4012365891582638 -0.43227880317604905
Ni 6.546924956389119 5.294313606368947 8.892890224399688 0.7786526788581623 0.3454575345154309 0.8893921488972748
Ni 6.70712343373803 8.128920565865648 1.3695603779804157 1.5279456736072847 1.6492852877597466 -2.1159603090274786
Ni 3.7053268488714486 5.221173319639048 11.659597498518524 -0.4179821840477189 0.6701330992885038 -0.883332058746124
Ni 8.940804425316557 3.6669215291509945 10.229303361881737 0.21366330068854816 -0.2597251280436172 -0.6688763440632675
Ni 5.552185780673973 8.684551253711124 4.9296157704156185 -1.8598059290542552 0.12538370231484858 -0.28447842372889715
Ni 6.239424830014189 2.287853189862061 8.650709497850148 0.8916542054585741 0.6888962388286201 0.7591801719558474
Ni 4.08109185611955 7.900273230064066 1.1590053973467833 -0.750289811444753 0.0765067741084876 -1.4677677185658076
Ni 6.7564018284068865 0.5450896924280699 12.45802247814117 1.1016547125835543 0.16015118770302095 1.8602535581146349
Ni 8.28900865666686 7.545454070241947 11.601192896018611 -0.04097130020603911 1.6472314905545116 1.232411763395174
Ni 1.6317063514572083 2.515865803014371 5.755116730413159 -1.1481528561450938 2.280243259510686 -2.930227137544825
Ni 8.87757133124269 7.465948159261376 2.803906620805673 0.81982529644173 -0.15216508417375083 0.5457007051433311
Ni 4.711279458057069 0.8479269070505938 2.56705664462212 -0.5176893075320697 -0.6240244778558995 -0.31993907852935227
Ni 0.7186762182371369 2.842076449224368 3.3454345072946388 -0.42910760453691904 -1.1388022681681291 0.7105940355170277
Ni 6.967663282945795 0.5694087687741691 6.5842116924262175 0.12918122168406784 -0.17499622313565347 -0.25787110555401394
Ni 8.55627288640532 0.9260879419250257 10.765405749551272 -0.4376125566841367 1.286738916082829 -1.3066906766144077
Ni 0.13010618455812809 2.238482806403456 7.355427307928832 -1.739223761893108 0.4698364497148489 0.9356295825982596
Ni 8.343990356300191 5.7156038656641215 6.589180006960593 0.5610856722398337 -1.6569312343407785 1.4814339031989905
Ni 8.565922510450052 3.273016332564274 1.3104575805663041 0.5409732177606748 0.13259333268941037 0.26528231041642053
Ni 6.101800401669826 4.186796174420804 3.0166969290302204 -0.24919543215688694 -0.7678018521865874 0.6081324892159914
Ni 1.4160846282841684 0.1382701896484042 4.864803228821749 -0.9859435003614633 -0.01885827035708365 0.36296674704378784
Ni 4.9218142011569554 1.5651432631944047 11.339313690032094 -0.2504686424423558 0.6349647789174871 -1.6480259614313488
P 5.3023994209879355 7.80300428378285 2.770597480037346 -0.8040808891232797 -0.02836106764119632 3.728272619107302
P 2.03099289224428 4.607341324519007 10.439859262403266 -1.956008124709141 0.3229542112065922 -1.243240221469246
P 0.8998279021152101 3.5382844055651677 13.150234441455249 -0.07088557126696825 0.18556859933486106 1.0200167878960884
P 3.5723202577725157 7.607776475297294 11.702869025216732 0.5515275962377534 -0.7679566325968967 0.6725252536697643
P 6.0682060956532755 5.084174415064983 5.417223507904964 -0.3277521468158678 -1.0669723307100205 -0.46696735569716996
P 8.56873736741639 8.511557135708044 0.09952543129377427 0.1519462832947254 1.2953148306772981 -0.6825654115145857
P 7.605936699502303 2.40710745689343 3.407070675978454 0.3999001297350274 0.08511765570595019 -0.5342227864107187
P 3.9262287285761146 2.9054935208777355 3.3848020297558734 -0.6991739666055443 1.1409733076775188 -1.0735121887110672
Ni 3.232992010144227 0.025841490816454916 10.193840763545372 -0.37814216923264554 1.15185627313861 -0.5032510206195526
Ni 0.7723443179528429 6.97104847040858 5.532121185853793 0.4826050622344269 0.7220806960003887 -0.6081353174294688
Ni 7.026462517353734 2.968505841856205 6.222743582880997 1.1193431310022528 0.7191115860697357 -0.2599482997980168
Ni 0.740188716607976 5.395869230252495 11.98293625471254 0.7583761879973133 -0.06993503442824085 0.6069482390999031
Ni 5.4147177332721865 4.324586182586716 7.218772441428432 -1.535646127575336 -0.40637725281893883 -0.3042910875794501
Ni 3.589310587239265 1.1868669619861394 4.74367239047949 -0.6992634409955569 -0.084943334911615 -0.3337662142204316
Ni 3.318504789095446 3.07966509538961 10.345546835824601 1.1387531600977485 -1.2547711049269807 -0.9529454481688878
Ni 2.708241959017689 2.5290385977065117 12.484801334725175 0.4230935371323552 0.6623534553430852 0.2699853723190447
Ni 6.474069834907443 0.1138655637278379 10.306367890382354 -1.2945131607116092 -1.9793689109222687 -1.2125636183209954
Ni 4.890538012642096 1.9370447412730236 6.675063500734503 -0.7509765530991324 -0.6142625133731292 0.5605881637781248
Ni 4.397965640169964 6.241531373299453 4.119827415595205 0.898542447937975 -0.37810411690585854 0.4468752129329852
Ni 2.0221251729124194 1.6319179256736325 1.0977546616920186 -0.06854226784577228 1.254525307464762 0.6389957544537512
Ni 2.78201696839686 7.90953650119185 3.491473150237396 0.5328153645402308 0.8726275278444262 0.374282172056607
Ni 1.8114984410227826 4.027315209631939 1.7229362336913645 -0.22706928968180895 0.5334625112059264 -1.428620873163017
Ni 2.697138912094913 3.2120737593551705 7.950715282923254 0.7403869505087444 1.5717009643163642 -0.332629272402511
Ni 6.56696011479658 1.5239506831445382 1.228364024930077 -0.28847288960027095 1.0263532716370776 0.5149973625222034
Ni 4.54357469546459 7.393120634416626 9.585021237578786 1.221553994745064 -0.4509894922116749 1.52680898889968
Ni 1.5114770032544937 8.508742278741707 1.184154212576424 -0.5200668066253108 -1.7199425450659929 -0.5263438978832742
Ni 3.7480372439521834 5.156909951119984 1.9364532533549335 1.3058501829909834 0.42184423810628635 1.1244727389193345
Ni 3.628166652029492 3.555026365299593 5.459781201594716 0.8803418657695484 1.299019533222395 -0.22551762892397287
Ni 2.957025640895456 0.2350056009490734 12.92052003569257 1.680921940828421 -0.39919693302041576 -0.5698407927246444
Ni 8.575940089653782 0.778367743905646 1.7303275329477439 2.544166999016683 -0.2848525192388643 -0.362217270472273
Ni 6.575579464396116 7.07772786988118 6.360044210685441 -1.8552586760032048 0.8171351512040765 0.412274077919348
Ni 2.9306800515111733 5.7721125792072945 6.368499820239222 0.2881818407224134 -0.12133909993182974 0.4368710505324218
P 1.5196180111473325 0.8960784390450169 11.344807260555939 -0.17707136049712732 0.15073503659544363 0.12002218089261911
P 1.8578147966617014 6.523155053117825 2.206099992747908 -0.2625754530082188 -1.392162630335983 -0.5473019881921799
P 1.0496288865587255 4.709228108045653 5.802709890453802 0.13710613295809934 -0.5477282770963212 -0.09057893593083756
P 7.995518422970792 3.901603329560149 7.998012239060904 0.1910285940081678 0.02370300004389466 0.5523822309285648
P 3.14592462064624 8.7686106097843 5.98644645932384 0.7969723031029564 -1.299513185029362 -0.49813066867385186
P 4.917812688802849 1.4913130605413836 13.359484101162334 -1.1276557646330063 -0.8592140826519977 1.0892717655381694
P 7.700721948460281 0.5489743790191952 8.63239912925049 1.2479692515137992 0.9754189466810557 -0.28274729997040343
P 0.509387003350459 6.98318179177655 8.137669619658732 0.2518092156306502 0.2092757131438138 -0.8724125836201427
Ni 5.637790548414943 2.2106837941411297 4.427953065740433 1.7010778469510057 -0.6144612596474966 -0.022373739709509854
Ni 4.570794178351494 3.0505966378287392 1.2939271950483024 -0.46681643194160244 0.5036845086125455 -0.1065485718862165
Ni 7.448010345260205 7.645767845463875 8.437030577916618 0.6961881445043429 -0.3535264275664944 0.16499925982394165
Ni 5.810269529195424 7.448111532928929 12.431984131314652 -0.7432002515878233 -0.743485644038726 -0.05219030885031012
Ni 7.601824800600495 5.285611466858636 11.981953814438015 -1.1562839698926601 -0.08070127180580941 -0.5975405726327581
Ni 8.634518550966321 1.320085127301496 5.027091691473772 -0.37749399412568535 0.9340840924880107 -0.10775596193075636
Ni 3.9998565558916868 5.217107415132117 8.87541511401096 -0.6400015700104462 -0.5250724873700183 0.2568447211720286
Ni 0.06439767215209821 9.01758746812054 7.06431958388728 0.4820317062294601 -0.8030287937096815 0.11917525951129153
Ni 2.673442599855419 8.030225793343313 7.970479994288851 -1.3098078820871506 -0.2961615164937803 0.21392169655625737
Ni 5.309758524167903 9.09421412998195 8.138436806165243 -0.7104184291711121 0.29979628503289013 -0.38900045210338813
Ni 8.51733403170432 6.487914147764756 0.5462827870311222 0.3219260270523939 -1.259763930155882 -0.295891036441213
Ni 0.6487996937675531 8.657653731588344 9.570360064268497 -0.3220342704954841 -2.7376319703804852 0.14336805470741118
Ni 2.2587755334222157 5.0741752336192025 3.964540219731024 -0.49920127603021125 0.01897165600649636 -0.27669698001126536
Ni 2.8203302993275647 6.139653788651782 0.11577065156355193 -1.4193325058825557 0.9124850261609962 -0.27328641166781964
Ni 7.130225872191271 0.22200758495745632 3.3454216288640737 -0.5410539503999391 -0.4769532632652882 1.3861362216362452
Ni 6.724086166567854 3.602575370721156 13.364666749576827 -0.7585517943432292 -0.7563756126275166 0.11975144372973567
Ni 1.0197693254060085 4.74463459322027 8.40026173876581 -0.13268100730721022 0.6989983602596285 -0.9493230209249521
Ni 8.86058100177594 6.108892737359519 9.940995776600161 -0.23026311402875826 -0.14512077573245974 -0.889098528916256
Ni 5.609356813503344 4.075416147792001 10.91104056170703 0.46017964335137523 -0.6491431273003981 -0.2169196028423167
Ni 6.012451690186049 5.9671840067502755 1.4423032731385967 -0.3444964561537422 -0.21581531403454443 -0.30438004774883065
Ni 1.2474231822782946 1.493465598221524 9.25600033384194 1.0340275003528838 2.41647907404869 0.652479904983115
Ni 6.941639654325636 6.374280395787087 4.105044817082446 0.5989006862050782 1.7713532954378008 -1.9016390630399571
Ni 2.330315215210472 1.1770149626039583 7.234485046605559 1.3245302758989896 -3.1110096283449518 0.6561133879706442
Ni 9.12202234112325 1.4964368361304357 12.822896012682921 0.6121207844397781 0.8130393838681482 1.800065318660513
P 5.261041261116521 5.125155420898426 13.099166864825763 -0.3956416115689896 0.04733786585401525 0.10122793100425148
P 4.113600694417055 1.773424280945427 8.761769403490621 -0.21783620111931515 -0.8201312577179231 0.19235991122508161
P 6.663428758606974 6.942403161280557 10.35848505910288 -0.5479681610212692 -0.3932998508096904 0.34917766367949543
P 1.297198316411798 0.62646573550425 2.8007560047567495 0.23782241443325494 0.3292536710620588 1.6113954546925084
P 7.357806138031757 2.8531702972681687 11.410670314128748 -0.24015851876559932 -0.8576246266776906 0.3438356826412918
P 7.9128664953807855 5.180560268964604 2.223966055493073 0.6565412195366822 0.9592474791275158 0.614706028668451
P 4.489420894939006 7.025892186857286 7.439452628149802 1.0953763357740103 -1.177495313862953 -0.3655915862611445
P 8.122702123678575 8.307958347355276 5.0815922897367125 0.06429249143048282 -0.3201349965902422 -0.12621056909151815
