# total energy = -340869.89884108957 ev
CRYSTAL
PRIMVEC
9.24467700039087 0.00000000000000 0.00000000000000
0.00000000000000 9.24467700039087 0.00000000000000
0.00000000000000 0.00000000000000 13.53051925634175
PRIMCOORD
 96 1
Ni 8.127476401937718 9.353209655322933 4.467290545600898 -0.9957406889575433 -1.3085773521141593 -0.8267359075186342
Ni 6.348569402189249 7.646549807467588 6.60009303116135 -0.18541896113087422 0.7396259039730037 -0.3008375818132109
Ni 2.3275878330189443 3.83810336587539 12.85702457114451 0.4774800823030358 -0.19053828463531053 -1.1369693287244484
Ni 4.211634545944698 3.3054805368068787 2.4994251183988303 1.037103568175046 0.8302410924584153 0.19138186358252846
Ni 9.245786506890674 2.06779391587236 4.237880184361152 0.9993186361167886 0.4734287950517976 -1.0984961123499144
Ni 8.3871686276357 0.5626255042769491 0.024783130492013482 0.1797352804825356 -0.13746480184909873 0.7162746308415728
Ni 1.2357729727653721 6.433685144669095 1.6502229428166832 2.511128066283843 0.007988931742747531 0.06347873727993583
Ni 6.701383260775195 8.800553610879835 9.81687921096531 1.8195982464871177 0.7090696284527014 0.13437844961429116
Ni 7.668552139074195 5.334927531879152 6.444829602968156 -2.1820217194329254 0.10031570360262723 0.9618219247229112
Ni 7.983712427645976 7.269015682194219 8.254415063824407 -0.2143073620304503 -0.9205942855316919 0.23528010762737545
Ni 3.6897632763965595 8.725200247465779 4.716197930940784 1.0482765540727301 -1.5231868187660607 1.085662450920356
Ni 0.1233637452344731 9.172180387457143 2.221468184064221 1.6050152621977778 -1.203089360281973 -0.017106320662983444
Ni 2.68150180818522 1.4304566287752618 7.548216950072631 -0.7719814374855738 -0.9939853968293333 -1.3075923624930705
Ni 9.283042555787578 4.344563758621759 5.127687755370064 0.11460512364210586 -1.385284415158911 -0.4337525595080981
Ni 2.187161187176776 2.015247170976581 2.227732377298102 -0.39575988231440873 -0.02861329286131846 0.5818442449434238
Ni 3.9688046113603517 3.230191886132842 7.464976952585635 0.6760391803602938 2.483506190801516 -2.4995025662297725
Ni 8.535323823571618 5.069706989248081 2.321377258912508 0.5713258619106032 -0.6213387034936202 0.6931061631449096
Ni 3.7356815877789193 5.387973489340795 8.832939563856417 0.7842296587253075 -0.7042688646299484 0.3635380461662255
Ni 1.1673438725333953 1.8517735450103494 10.622404909372912 -0.9753873221121718 1.7668947454458153 -1.1147020326858157
Ni 0.2959082484160003 7.52146932568717 9.9781220963363 0.8996567640480765 0.02067732584369342 0.7307998210409413
Ni 8.922537125816465 8.575029711912114 6.602487402542069 -0.09516372708804256 -0.2754620791628998 0.4702714803697384
Ni 6.197982856164031 7.114805222727912 0.1150463092065469 0.08203233191240711 0.7116967816629033 -0.8690197558885099
Ni 7.249518658094079 1.0380385732974238 6.453611121788792 -0.015867820270192026 0.18927844408628047 0.6672830314342185
Ni 3.8484851383099357 2.3604249262402335 9.430758629559078 -0.9393828789931048 -1.7267174018959812 -1.2204569050261433
P 6.4036399439457865 4.786782889883123 11.857727666361294 -0.731588635490824 0.19560824295905022 0.19839454745493573
P 4.085962404826962 1.2174130439541446 0.42525792210227087 -2.37742118881528 -0.21475319131861725 0.1410545760828861
P 5.868484073339372 2.185349230456232 7.728416045930743 0.28180961864748244 -1.013981637445602 1.1267785042343756
P 2.1236872338948585 7.746013288877456 6.5708262322537045 -0.19727226092503444 0.43274031619349984 -0.4520523862585505
P 0.9014281301809729 8.514939310465497 -0.10467655485229015 -1.1456959099641688 -0.6601029687460115 0.7967817843587052
P 1.9203967834623845 3.180631171955102 6.165912146678115 -0.061988782997970664 -0.586789247653525 -0.18791473096953445
P 3.427584232546402 9.541985962636762 10.184137877591306 0.46104636222704465 -0.4291662256889964 -0.13821942062693615
P 5.937135045822844 8.640583717551797 4.5460653640265525 -0.2169003195686071 -0.08593372384934232 0.20942637978906514
Ni 4.434995190460343 7.487559849916988 2.6798682737335864 -0.17385568177330704 -0.3157535796930949 -0.2454382791072999
Ni 2.7489047492540317 5.369105103286558 6.073741791068437 -1.0291701722605824 -2.438617557818942 -1.0476695166163503
Ni 3.1327529890178676 6.792674447588324 10.682128297136845 0.3482577229683873 1.0566753196593865 -2.026327539059994
Ni 1.2195300750204947 0.0947856747741772 5.009458503822276 0.5318604568261291 -0.8840126297529164 0.5967545863963529
Ni 6.687691893922513 8.694757525625208 2.3612652673927714 -0.3358318385002087 -0.9535427154332545 0.5894979048339396
Ni 2.040096863144043 6.802076284245432 12.551532365931633 -1.1527733856362403 -0.36979122616478893 1.7682983106615608
Ni 5.350162759815156 5.981509496121884 4.826403727193878 -2.649991034032049 1.2195752737521381 0.4994434739480044
Ni 5.4973287752964906 1.2880423773467824 10.55800001710243 -1.4052834839886572 -0.893085538588462 1.4728315062419601
Ni 2.1061963047353207 3.712052192994681 3.978162073567162 0.32055562906742857 1.2411681694315657 0.007789671247747875
Ni 8.521641701396081 0.43517098940553334 11.13592915992626 0.4976830396134719 1.015939275392605 -0.7811692746324289
Ni 0.47488889582631727 4.966878445357203 13.550273665618398 -0.6922885523396206 0.04320738862540946 -0.8530781449575889
Ni 3.4505942339618825 5.058539419256157 1.026398600303357 -0.990222073132159 0.7344878114154898 1.6793625667611014
Ni 3.749021656900068 8.902217325450364 12.380087054862722 2.1178778377651657 -1.1345815452185621 0.6722506598521389
Ni 4.107373077096248 6.868674938402573 6.845279433950119 1.1814949219406492 1.4016273752933088 1.3596235200576972
Ni 0.4911872616340686 6.382497367313724 5.957568555717837 -0.29761187578706166 1.325496239356685 0.12886266200238453
Ni 4.604246739642596 3.437836579500909 4.955214436202557 -0.23686287873346304 0.7688678315572565 0.1669450706964028
Ni 6.798979317401645 2.425378027865452 12.162732677088597 1.083950867545888 0.5673784472270809 0.45474818792315874
Ni 7.290999524446535 5.686336199538961 9.994115387798246 0.2573036630863182 1.2765272656571498 0.957212450975358
Ni 4.225658721174625 5.50922667478292 12.401844402524969 -0.15967527650786695 -0.9595446986529604 0.13930108372688915
Ni -0.22709179621162126 2.7318298305660473 1.267939826893603 0.6251133400447041 0.10679462645875157 -0.5154588755396542
Ni 1.5903710540404248 6.24966060140812 8.293964717121142 -0.5249989538196055 -0.06902434968851338 -0.3251298787016723
Ni 1.8478168231920182 1.4792038113641857 13.532954687453769 -0.9213525038539552 -0.8042986615610407 -0.5784506458808425
Ni 1.3263708087925776 3.4320494116077427 8.341700532030332 1.0376501847071355 0.595729230455632 0.13201046360274682
Ni 6.193785772739913 3.951785160735241 8.99783594563536 -1.3616899156684226 0.17468717653566687 -1.2186800156313786
P 5.749819397498024 7.190676288062123 9.080182907310089 -1.366221484990189 -1.8612766000625103 -1.6193571327417466
P 7.470263058977509 2.7687530710857065 5.171445585703489 1.0178120669352857 1.141755694369498 0.8337105390642544
P 9.19585600562711 5.680262446654281 11.556998318813845 0.5822574212214424 -0.3438480239364659 -0.4062708091480616
P 6.6663366897161 9.274075218956312 12.330294299288626 -1.4423495356030192 -0.7366305687901056 -0.8126940847135875
P 4.111995415669065 7.072751186392427 0.40647736048091704 -0.2004635141688225 0.06460050958920487 0.0832644045472953
P 3.6198827618527183 5.559628654580913 3.5679036401336806 -0.025813618628994252 -1.25944794157736 -0.37082969473163235
P 2.6008697341210074 3.795503893588312 10.419284560999918 -1.0791768431960123 0.8486645892709255 0.1810267456004495
P 0.11284145370731338 6.99015924077334 3.282085032354425 -2.508266685575648 0.5764611262546395 1.4887165529033328
Ni 6.083894295509772 1.7633019847266393 3.8413685858432274 1.6097676892810986 0.4783126055066601 0.23822864873273814
Ni 8.354405491831576 7.537028117323271 12.06121317948154 -0.8474543710129082 0.44082926384922144 -0.06288224134651751
Ni 0.32068120976315356 1.546190741961444 7.117025794178293 0.3430478966326737 -0.5252606921214243 -0.0639397360767544
Ni 8.472321348824128 7.009249499079072 0.721574785248108 -0.2803929408056139 0.6540783598184864 1.3006388139933729
Ni 2.0754485085489445 6.973278460305414 4.185666247842615 0.3727834760238935 0.1892283075746354 -0.037118245008536076
Ni 3.0043444234650227 1.6234669982217915 4.60624913671234 -0.6417074969579594 1.4038837754276532 0.3167642803457964
Ni 8.026940537978957 3.2377078086522415 7.603813513958754 -0.22305862586051908 -0.6950100650358417 -1.0121432986852827
Ni 2.1720831187522482 8.647618916859624 8.670979291538925 -2.39855231436694 -0.7037068214788913 0.43630566494725503
Ni 2.641518579530356 8.474170284253255 1.2353070410372324 0.32450972861917016 0.47428008730849935 -1.4385098501419549
Ni 5.431885705782554 7.100022983972044 11.31983537131977 1.2427653387153563 0.9036810547161211 -0.7940795549361938
Ni 4.460676903570912 0.9287480000817481 2.676891487692693 -2.0179105186408925 -1.772161650271709 -1.4310451663337935
Ni 4.91946249627725 1.1529129315090618 5.967905953702084 -0.2481075984093469 -0.1773004457887979 0.693872866107605
Ni 6.48405939043565 6.262852755694939 2.2416419185314216 -0.1455789463158009 -0.40298031132224793 0.49729146060200813
Ni 4.317920599088044 8.945445435783345 8.151556012498949 2.2590501703728383 0.48751021284552815 0.15145108882586172
Ni 4.752734743955756 3.7700348080520922 10.827216109195845 0.9959183521859881 0.8927325261244173 1.6917961645387636
Ni 1.7068909647839856 9.099350820903846 11.552073679298365 -1.4988922078847542 -1.2191412715385133 -1.3848139032803957
Ni 7.391868196782539 6.802760390354209 4.58071718737153 2.899394468434684 1.461086192780574 -1.3958087117290026
Ni 7.409470062067824 2.1865695278394557 9.839907701735083 1.246137340511383 -0.8014827893788004 -1.2150640161453459
Ni 6.099758161491678 1.2108123444721628 0.7872045972403873 1.03244447213648 0.14241906053058054 -0.3716370211242761
Ni 3.2383456913752906 1.9253334410581526 11.656921260677851 1.2387752437193567 0.19012485124697578 1.1955827674922828
Ni 6.739378883843748 4.507686086856457 3.9847378124208506 1.2307343756927513 -2.0353598244655915 0.18117175581874603
Ni -0.22880021254813432 3.9751926832679843 10.076272833591489 0.2268204068957965 -0.4898308905589049 1.2900286425776943
Ni 7.451949353552009 4.329069679725677 0.22675528996352023 -0.5071979210824425 0.3389331031333518 -1.5670079297160688
Ni 4.652642624499985 3.18548462745656 13.528124343645176 0.9508867658676462 0.8530593759045113 -0.5278649625134908
P 9.180907362682621 2.3964421883996203 12.463462024636044 -0.07240817855908176 0.2853785669456633 -0.45821660608773346
P 2.2314339460272135 -0.05470075467071164 3.112236277028564 0.5134819543189415 0.8129108287100838 1.714024636919661
P 8.791105550836997 0.11868131626020988 8.870446143503965 0.19984979184422355 0.18758588687520597 -0.1772379679819786
P 1.3882639222825919 4.172039593729952 1.8754519365834594 0.5106038614401981 -0.5069611224812882 0.3335720959317546
P 8.894331615845138 5.0629121515460405 8.277971425659196 0.13985412801688174 1.6268914934455785 -0.6617366476946926
P 7.769383832701616 1.2665854816917677 2.2210077991423685 -0.21566953248529955 0.9989923631256215 1.0271510849480245
P 6.3744082748112945 4.08397479924065 1.9399243149971055 -1.3527938987303734 -0.034261235175715186 0.5362752980643732
P 5.262939230946106 4.811345997059071 6.633783408083182 0.018479803971742367 0.7541279542439207 0.8196543180815046
