# total energy = -340896.80213467375 ev
CRYSTAL
PRIMVEC
9.05498136889760 0.00000000000000 0.00000000000000

0.00000000000000 9.05498136889760 0.00000000000000

0.00000000000000 0.00000000000000 13.25288052493221

PRIMCOORD
 96 1
Ni 6.560370247285238 2.1552304539075604 11.368626041303102 -1.5038279546234747 -1.0410489259760394 0.763436119018724
Ni 4.634276097811543 0.26231194530265756 6.136587157088053 -0.14014800510821668 -0.009467316060486921 -0.6818519303873289
Ni 2.83151985004477 1.5376535571953338 4.872858558846293 -0.08974358451373576 0.23251257218456733 0.18189217892453838
Ni 3.4855068269833773 4.2333849061023745 4.941323273243624 -1.431530076390012 1.0067516953560662 -0.106933466029461
Ni 5.083792539661389 4.641746457470027 2.457666832808611 -0.05028949228317146 -0.43890479313299896 0.38748401545886163
Ni 7.305278292503649 5.918299625874588 2.7741194174252595 0.14026190497826166 0.8418012864921888 -1.9027546647016391
Ni 4.9153879955056485 4.749401131384834 11.487000907702368 0.7518322162312084 0.39644379575531075 -0.3265871799734892
Ni 5.900062893326482 7.850351953112262 12.527099535702172 -1.5010498776577053 -0.08838809892710583 -0.46449832533138713
Ni 1.7327159666051073 6.754934632717779 0.550411572146402 0.9430988943921113 0.13440647463874916 -1.5823934110332036
Ni 2.6301551735776565 1.5978057986635879 0.27305749173504906 1.017536701786712 0.2255268848953535 0.9399891451185359
Ni 0.4358760178625247 9.042639464569124 4.729688436867841 0.265349159098614 -0.11676536451821826 0.14265225958730918
Ni 8.684994864046525 2.4287361672221186 1.3927584612593775 0.288047114916762 0.20365631007450732 0.35420494169075767
Ni 6.91564244267993 0.6714793900152858 4.641290991905394 -0.4933111357980214 -0.2183355093532369 0.20021771670660357
Ni 0.8981808099495553 7.487582233114873 2.677506387834761 0.02997083533047742 0.4172615038316104 0.0058322904110609235
Ni 7.645944802893331 3.808353133969547 3.8405526478429644 0.5181068546854625 -0.40610702987668773 0.13908356839944433
Ni 7.666508665662321 3.9003970199434748 12.634076897007944 0.3626193910066981 -0.02101696857129929 0.08619674770274187
Ni 7.910784899004048 8.723306490367792 6.809515344128015 -0.6695754270128211 0.5092658593550649 0.026969586610308394
Ni 6.871463188408726 0.7311752604207669 0.27342240748563923 -0.6987119393674611 -0.08909206697266592 1.3807381905491252
Ni 1.8992189646659614 6.226884337149107 9.40878940912471 0.0831643886343213 1.2220029093570244 -1.376677133105874
Ni 0.15949444245398534 5.00731416672132 1.291480305249423 -0.8919614522863477 -0.44545133600226505 0.7213900976912673
Ni 6.404416302560304 1.8684139179287944 7.026292504443255 0.7136161101728031 0.2977910816774033 -0.4776780572464547
Ni 3.542779584365088 4.458482688829956 0.526577050094206 0.07798464420559471 0.3967479572592909 -0.7125164493507213
Ni 6.007998271664822 5.4744606573651895 4.7309733387291 -0.8414467313662476 0.3830720024340951 0.6589539427432328
Ni 5.451605884300931 2.836961893868708 9.310983838483276 -0.9579534429064406 0.08957954813204573 -0.5169598855652129
P 0.34705842176292173 5.54985243253675 12.410527516100487 -0.5435484346870187 0.2889151193440121 0.006475323311698526
P 3.924555710329942 6.400042746542065 12.553778227413437 0.43693121434639587 -0.46103993446914143 0.6653109953095123
P 2.5186883524916706 8.62763155685077 1.4204440669027893 -0.5995444904366642 0.19565915080164367 -0.5508297988397803
P 6.210377106049208 7.745350388748892 5.643844950508868 0.1844486267978049 -0.29586712518181296 1.4620328729645597
P 4.726564468283384 1.0719196436505238 12.591919620084305 0.5988582630029171 0.372254600103617 0.2319890955809295
P 4.004049392077616 6.199800887769075 8.104692798284782 -0.7422551140657345 -0.5354152640569231 1.1496402393238976
P 4.946183987261411 1.0354914534613344 3.718917082640036 -1.106414852976359 -0.36097079965968154 0.2802494732492141
P 0.31134104761396386 5.688936946905617 3.7026824064804043 -1.0443342815955303 -1.625842483355774 -0.8490610533783958
Ni 1.6293533538759009 1.1338919363810267 2.6816671517900015 -0.8656806642129478 0.49746423873444645 -0.5447224003904618
Ni 1.872570154393333 6.509037557704698 4.855776336427226 1.016469179754146 0.5348339376321564 0.49321934741516354
Ni 5.867437795327066 5.666335713320677 9.190222984483995 0.05365018122528825 -0.20551444632916865 0.6313971161708868
Ni 8.594300170301826 2.405455810031861 10.193121937878969 0.4795487919066064 -0.21846380740098503 -0.2035141280696882
Ni 2.229490356403594 5.3827246407590055 7.031262783736034 -0.08472273426037667 -0.9439028783506453 -0.1847551022946302
Ni 0.37888577590062544 0.0918772743160899 9.309963342079019 0.4200310961569476 -0.22642985632559715 -0.1891041232919453
Ni 1.539002749424563 1.299398886487416 11.466524878252999 -0.8651895835091422 -0.3249481017081694 -0.2129423633621236
Ni 3.9975479154293843 6.859510612955152 1.7159959434422094 0.747676542191622 0.4178718837220997 -0.9961914033417165
Ni 5.628395341236982 7.763885935683335 8.011670974319198 -0.5331393235385528 0.9834865541805384 -0.3763979328480292
Ni 5.106891797223562 2.75831938037303 5.110814415167872 1.0908997880598954 -1.1420380014966074 -0.6635906701842958
Ni 0.7068345649080748 7.381168091652444 7.0021464910307545 0.5675594528896355 0.13766431945441454 -0.031184910243236618
Ni 5.020950968716081 4.359665676765669 7.081597614365829 0.29518372596154324 0.6617546454168216 0.19651969902972607
Ni 8.141433385332418 7.093264957905171 9.0969231725893 0.02827930656066743 0.5873947424480077 0.7179008535910861
Ni 4.75353020290516 0.38115314324424293 10.558676064658155 0.5076545490038871 0.23943089657095537 -1.0558978180634138
Ni 8.01471797556172 7.108223787184947 4.720119132519859 0.5836486451420142 0.4808641682839202 0.45243213819547246
Ni 7.176842436266149 6.101979923659253 7.1018871111982715 0.031687560911268 -0.45199170822394413 -1.3100930174277374
Ni 2.2094245176118354 5.3613186647194215 2.528993826827817 0.41397717665338385 -0.8185554285903709 0.8791535018884021
Ni 2.520653283456387 5.053784331287794 11.441026050618708 -0.8515992464192174 0.13231616776862373 0.2553735359431409
Ni 1.0986227838115779 3.2570224812106163 3.8635061202045295 0.4172417063372685 0.8763391723680585 -0.32473855680052466
Ni 3.6268007568148746 2.6460647759048768 2.8078483176578497 0.41194343405280665 0.4181953284997894 -0.322414022432406
Ni 1.0210034832145776 3.404473798396985 8.299735286735467 -0.07741720173789893 -0.15549234877477092 -0.8212103497147148
Ni 3.5464830717594156 2.507016481461627 7.179774439244837 -0.11278246861107029 0.1823791458632859 -0.267262574071243
Ni 4.211109651847985 6.748315441311292 6.05036381316076 -0.10788477419913678 0.5091355044247877 -1.1183092904210998
Ni 0.7701922697934238 7.309543188745039 11.285159033715255 -0.19061156107540722 0.8022055264774377 0.13922292219078605
P 0.1257257003032162 5.536831369277478 8.024168659653308 0.34566527965086274 -0.548767516994113 0.06759764454431584
P 8.597686733347006 1.5603996704827423 7.8867629388367835 -0.8052525408338778 0.4447561097074534 1.059641344266246
P 1.8976252879388182 3.188919966069455 10.370524417056084 -0.322393967827748 -0.13222695048892713 0.19412214533182698
P 3.944322734735361 6.03511794097047 3.78618925598643 -0.030729567873372884 0.46623330574462285 0.27945654503427353
P 6.775027636453751 4.1023774351460744 10.50119866469671 1.2613184191271956 0.3348897863019136 -0.5101521186147601
P 6.3192813673977986 7.776191655411675 10.203326901921526 -0.18545958456082254 -0.8082285927430661 0.2804664743560267
P 2.300182596226364 8.582899948713909 5.7337129244513605 0.7628331953274023 -0.5197184221469565 0.7596239443614853
P 7.014649609353706 3.995066850524627 1.5399843094087808 0.1139147824433006 0.5494827978935827 0.1265556111357627
Ni 5.336345026006575 2.7840083626168113 0.5095745115114964 -0.29989013029827705 0.7475425877169191 -0.4551634210837064
Ni 1.5246053289918482 1.1292195659764477 7.062459911168004 -0.6523516069353669 -0.0012153604643398424 -0.33039035576966325
Ni 6.963217314977719 0.5518259602417417 9.069794448302247 -0.2500906902776467 0.36754305356056055 0.44010935496406134
Ni 2.740580671802157 1.3824873958525672 9.264267378422607 0.5452515334210545 1.0095423707273257 -0.3532747165670045
Ni 6.4723467730547855 2.1006741909471165 2.530239792269038 0.08107485309514424 -0.6121927753282941 0.3719725500868239
Ni 4.013430352812391 7.129647873187339 10.289947759532465 0.4663554331447839 -0.5478470620623727 -0.08194619995650403
Ni 8.313577636808102 7.266948556219574 0.293366909526581 -0.6224913290408247 -0.3318355728566221 -0.10851469447365183
Ni 7.452910709318103 3.8120928412894908 8.22008585930764 0.9140587984060194 0.10199489107726306 -0.04969042524659184
Ni 3.2157498759701677 8.494903639427669 12.289833668963595 -0.5596425120354039 -0.4406695983429056 0.8420853933915111
Ni 0.21503226539864714 4.775551917680231 10.225008149395798 -0.838648085575188 -0.0016218518741391423 0.6637014847305474
Ni 8.531476709319326 2.228485253467725 5.753248141332831 0.5503626293953747 0.6819807426557093 0.17923520091766548
Ni 3.8759123502264554 2.7047772753298593 11.33643467691295 -0.6661550884773624 -0.5082191632581053 0.13815308616537497
Ni 1.0328926737983226 3.4933937157864556 12.823235458542165 0.7440428020937767 -0.7880616308768879 -1.0911337584475724
Ni 3.0469378576512365 8.322442463602837 7.938727666119339 0.03749851116609026 -0.43233536744559736 0.19916793528585053
Ni 5.512210874839395 7.790435141160518 3.542468093004783 0.2616346863615042 0.10973931090937229 -0.09039741604765078
Ni 3.086336081741011 8.46167185767417 3.583022638219877 0.8263142466001835 -0.49463679658798043 0.5193684950067056
Ni 3.382071774402937 4.250525985900569 9.02342298303308 0.48323652517083876 -0.2575234924066081 0.5837874847127236
Ni 7.28546599319121 6.075303948442412 11.42391666325543 0.4919811041326882 0.15365426712476762 -0.4355824136279853
Ni 0.4939881720204072 0.268344373914151 0.43896014452880305 0.7462601214600696 -0.7578118308534111 0.02163737576411757
Ni 4.631704483092743 0.41353466224388513 1.5234716453200396 0.1511703243606493 -0.5545728108219804 0.12639131764375652
Ni 6.028634574285046 5.5590160737178245 0.2721429386132226 -0.22623316693375878 0.6824581965127602 0.8745990497485002
Ni 7.806715997725311 8.974283409948644 11.353066866756226 0.9028431321958581 -0.9861795276316692 -0.4337116789678337
Ni -0.03233352759819977 4.809870297202237 5.771523810300975 -0.045215934415006 -0.0006528030926504886 0.40708893417398273
Ni 8.080765009924122 8.790295242796235 2.4530415483073345 -0.5649302427969044 0.8498508962695428 0.3569506227566949
P 8.656797651953774 1.6575234010244388 3.575362123951904 -0.7830464370504836 -0.27789151453999883 -0.6370545715669803
P 1.9891439849913009 3.367973168356562 1.5522701081780308 -0.9659454599729816 -0.6152986679471274 0.40112088951600594
P 4.880571592006411 1.0280482587470632 8.257100812291823 -1.1030549353651906 -0.9134931557105365 0.19243910120244923
P 8.438454885353742 1.6275423575950565 12.450988795007117 1.4653511387045153 1.847329393853799 -0.44103340944022756
P 6.45498837370289 7.7557273974381316 1.448566122649885 -0.47185322303456156 -0.5150888937947452 -0.06224563620378313
P 1.6804325039771233 3.2887058611439928 6.0361565473375345 0.854748076460844 -0.4189298926729688 0.08041150847953248
P 6.82071907261946 3.8589342600935375 5.961477399202485 0.8414649861986927 0.09950914854093185 0.2712506121847135
P 2.2970042977534813 8.58296333358374 10.193519451562612 0.06340031863351663 -1.0154224836571866 0.2644682991555574
