# total energy = -340888.8093268636 ev
CRYSTAL
PRIMVEC
9.05443198411842 0.00000000000000 0.00000000000000
0.00000000000000 9.05443198411842 0.00000000000000
0.00000000000000 0.00000000000000 13.25207644476832
PRIMCOORD
 96 1
Ni 6.396123283810509 2.026481506824546 11.23962967114991 2.0050658014677403 1.5182634133225141 -0.19170453702926984
Ni 4.42648550182453 0.4031087505651325 5.946670327891169 0.14379408650123623 -1.2535611437792797 -0.6014473638863319
Ni 2.661432613551106 1.715298783783471 4.6872594849335 -0.25351385702658275 -0.19987653131710093 0.15880752919093294
Ni 3.581824692806468 4.666246864316606 5.005229410290438 0.8489823776216604 -1.7701813866168867 -0.4898319190001693
Ni 3.5903539678618888 3.0091409157573255 2.774918149392002 -0.4087382968519477 -0.21484523681179127 -0.8102656777777528
Ni 5.2330995870815755 4.739252750486304 2.5731428459657497 -0.23291623538088918 0.42053426104561126 0.2530346033973191
Ni 5.1696642356609 4.531426370075405 11.624376938822381 1.4575486119409609 1.3226963080140446 -0.5015664338282781
Ni 5.712088100570749 8.093077788122343 12.539565435939366 -0.19751060218808564 0.42250089785367884 -0.5131140294565615
Ni 1.8378414680722834 6.757539996243805 0.34334044415236087 0.46038815981775544 -0.48466528719756524 -0.6834802100193713
Ni 3.1806228056454455 1.935167558911684 0.3164388208857368 -2.2284486434368977 -0.4385304405127157 -0.14593838653774868
Ni 7.808705238583498 8.79856292105031 6.802940729771288 0.708902763857534 0.4173342660510749 0.7483954226355176
Ni 8.848099719169424 2.667698280576956 1.168069731748451 -1.3799313783771137 -0.7434519625873132 -0.05954777765664584
Ni 6.986282114847934 0.7223209440086987 4.776008312227253 -0.3004056364821149 0.4505043250451402 -1.3476151827429113
Ni 0.742501462313923 7.759168440464383 2.5918809932345317 1.53267521787247 -2.6100219498382793 -0.17026565042920355
Ni 7.863756185862645 4.12480993250765 3.6664917821013 -1.4393801685620502 -0.5887504851449538 -1.1117645473240467
Ni 7.825582700051973 4.1118439857142715 12.176060771459595 0.7524443958939105 -2.301525051707597 2.124628783335754
Ni 8.195401925491034 7.033510032776887 9.097802848127372 0.4065898830503772 1.4726286462025349 0.3081536558586499
Ni 6.918609289195903 1.1835772576374306 0.26432150961291245 -0.16768657684811766 -0.8857442677320424 -0.6118510757181592
Ni 2.1338580173152377 6.69874051406769 9.209795308111964 -0.13094217023923257 -0.9375576528589079 -1.3343362062458182
Ni 0.3583599361501651 4.936838568171427 1.1270069766488358 -1.1164791791908963 1.4190504558657626 0.1900261208855824
Ni 6.1773953671292 2.1082792465810947 6.549017330003011 1.9293373002861742 -0.3764118168051001 1.5169061279636715
Ni 3.338378176442252 4.489567730392592 0.10144404656679451 0.06366154271470327 0.60920978144057 0.6933141653906576
Ni 6.358357247445159 5.910289619639915 4.503294249483906 -0.7271030889156445 -1.0144878876580594 0.6874463937559708
Ni 5.5019709488339235 3.199492242179943 9.189692657922958 -0.15138938234999091 -1.497794346834885 -0.657430564120171
P 0.4137178286781221 5.667033246350184 12.258170889124225 0.1433189466370306 0.11428039331283543 0.20172026939405907
P 4.193080350679487 6.311292309294336 12.4596953847808 0.027384562660539936 0.10045531450428506 0.2770247956643294
P 2.5651025102447162 8.615500412482909 1.112565157420178 -0.6103994308732972 0.8643133515517759 1.0545585304267
P 6.375741757112259 7.844515517611297 5.429548168092643 0.9500221038745059 0.06432617288189567 1.5223967187645973
P 4.7917503479080965 1.2550257814827845 12.351637980994813 0.6452165385524823 -0.7584798034547131 1.466596581075842
P 4.303082646484481 6.113127007953642 8.03864344767045 -1.2228966248158875 0.7587520832794933 0.8186163637352932
P 4.5003877767739375 1.132320117415843 3.6999397597894417 0.8574510772143038 -0.4842323134252047 -0.5112674631661259
P 0.4209314947467565 5.743778612984731 3.473965581083872 -0.7379657426617613 -0.8397868271653215 -1.0813782217227055
Ni 0.6310921077577487 9.332222095669664 4.77982566080832 0.36082244700727534 -1.7249662235328294 -1.0318960558321777
Ni 1.8602874052935017 6.388979336869185 4.879931462308033 0.4534958035732964 1.6408276439106968 0.27204225484807343
Ni 6.311111220651971 5.5443547455795965 8.820277260156372 -1.3196981446176692 1.333162497652691 1.244811679721424
Ni 8.745386241219647 2.531755036753088 9.803343213091262 -0.954127384292131 0.15451070158779195 1.6206424272120734
Ni 2.4394269924429786 5.388591349848812 7.085315871584842 -0.6384787056080166 -0.18540687694601618 -0.8494480044041693
Ni 0.5495442703276644 -0.012687975727346897 8.945376916075388 0.8751870610414862 -0.012643656905939516 0.7875224705439664
Ni 1.4867286993895905 1.2260063265436945 11.067153604615202 -0.136345600642991 0.07662581618485514 -0.02456174849976415
Ni 4.182504773965335 6.877846235799403 1.3864191731672164 0.7557906866583243 0.764253986934329 -0.22157381378487648
Ni 5.777442991600499 7.732077579566488 7.846554575724335 -0.33432902870243714 1.3981239901257405 0.6426328369857062
Ni 5.338601830123784 2.921620774902023 4.543686071163557 -1.007051485984672 0.20129218071770497 -0.9561989221091791
Ni 0.7992401557399179 7.439184809404339 7.099217141216038 0.17594830263627761 1.004279836776806 -0.846218184612962
Ni 5.166549511012211 4.5314806966681145 6.907763890404627 -0.17795504865366127 -0.5196767702757438 -0.4460884553656318
Ni 0.7460589486931956 7.397136026647043 10.911216363787746 -0.018468491117832712 0.5882874294656062 1.5801899756239817
Ni 4.984202302582155 0.3910301381193459 10.339919725739126 -1.138728220397084 -1.1612024902402003 -0.8312420229191038
Ni 8.437734746704702 7.253252045855443 4.681998859872779 -0.135665800967147 0.21463260658035294 0.40875680879470894
Ni 7.606230027554503 6.28272557596116 6.965636198731829 -0.32294855477963735 -0.20564223015628455 -2.1208232935467346
Ni 2.4989055570279652 5.49461874995388 2.349884996895664 -0.5513350206109731 -0.5321911006926706 1.2613078776042344
Ni 2.4618819840963146 5.284528761513411 11.179716493823246 0.19952326174274027 -0.029427047011865447 0.23637694023598
Ni 1.0419387760111638 3.4164092724375963 3.489138998427687 1.2434847333798842 0.15601453982682809 -0.11609687769628392
Ni 1.3265648496493212 1.1062524073473126 2.264594057227883 0.4721882377764771 1.3986711208784621 -0.15518098818193918
Ni 1.0244818308871184 3.3624176937162877 8.001113731983388 0.6782554712853223 0.613650333710427 -1.4036225513464666
Ni 3.8865063335866172 2.3687480953276787 7.0017217324960255 -1.230465695412397 1.9487175045849987 -0.8525240722263318
Ni 4.480703441348795 6.970255769998576 5.886307145288225 -0.9654713485500405 -0.18611187343284077 0.8520700154080488
Ni 0.8162262703938126 9.049633269258118 13.082092521375364 0.04635853265988145 1.196712253111036 0.6461907295402937
P 0.3973193466687038 5.6473398564929225 8.018328018326663 0.24404319853198614 -1.9687754516771385 -0.38801237715850595
P 8.571704124326786 1.611109433398414 7.843241559012256 0.2496258348260862 0.3783100622690775 -1.2624486760768967
P 1.749415884005153 3.2841874002143414 10.105331160316222 1.524221430678162 0.36264124538356907 0.3449394572284317
P 3.826846680359265 6.410447395421629 3.960794327344264 1.0900914332259872 0.7745327431525177 -3.548614214609288
P 7.094229054562077 4.164649433828085 10.17478499276592 0.09756128078594165 -1.3442197839081171 0.17396392521639714
P 6.455837263630571 7.675713739630189 10.226190625674247 -0.7237174602728632 1.2433754614955295 -0.36703217536241306
P 2.3224165661784357 8.367273155960241 5.909683878131203 1.19752086505526 0.2671543306281528 -0.6821437505961349
P 6.8428780189586025 4.109480778931401 1.3037476807112536 2.16080266215315 -0.03986392607447328 0.6611038992067001
Ni 5.191458253769603 3.134590072756106 0.4912319165995123 0.4335137040244147 -0.7106189752176922 -0.24863724566057183
Ni 1.5872691136309802 1.012502817194633 6.982545350712718 -0.2271831895518539 1.3004858333552765 -0.2198876843317052
Ni 7.322799138955959 0.6359606759077482 9.308642543547236 -1.9950827221130993 -0.7249873281242224 -0.9161563043649964
Ni 2.9550859560111893 1.8021579510941388 9.0330663748113 -0.07196286349154703 -0.57522648251659 1.1060960361843597
Ni 6.512644770740665 1.932568936893737 2.4415891908328238 0.10543039912137327 1.1575736352383612 1.1210719407679015
Ni 4.227604900346492 6.783870284843766 10.291470364917416 1.4046972724678841 0.932435244030678 -0.01986125770030128
Ni 8.393612498992319 7.31531112359414 0.10540445517533055 -0.06039701303081856 -0.09388743147878024 0.30418232991572774
Ni 7.665273979397812 3.9682769100468116 7.72930058523581 0.6821442648167672 -1.326904175447805 -0.2976823240136809
Ni 3.116408773062598 8.52917545666722 12.288478789753745 1.5537042706286275 -0.07280104312212624 0.07849809350690351
Ni 0.24489250917350552 4.970566327812024 10.13021907787974 -0.054236906966693685 -0.6148803494627861 -0.44540377059378133
Ni 9.031126010008354 2.2713314601670955 5.574180950420425 -0.8783592881218807 1.4366959368616674 1.567959494996061
Ni 3.862838048029431 2.840646988468238 11.24235958243357 -1.787689056483347 -0.7590235917733251 -0.8203878538134194
Ni 1.4390571142868418 3.3621551151848577 12.32505416829554 -1.2626358523870385 0.020693009572977265 0.39944375892389916
Ni 3.086646854689809 8.654697049122946 8.159369812876335 1.6149253222226378 -0.6067667192167163 -0.8857866909342036
Ni 5.527377685357821 7.977162948144112 3.42127512425796 -0.796855575019434 0.48758528905783766 -0.6848410949226399
Ni 2.8158197355999115 8.656408336793302 3.2241773404640117 1.6939075544548117 -0.8087811228124264 1.6611236751555711
Ni 3.427953673388404 4.206834033067156 8.86105389520105 -0.2991177709086268 0.1754821616331365 0.8005875312580405
Ni 7.35981365745549 6.068787453870421 11.204352698173876 -0.2314291093124014 1.4618264133807082 0.03023103097039955
Ni 8.226404301064028 9.116636066933395 2.269789490377352 -2.2110371328286695 1.258314085083233 -0.484974590907868
Ni 4.610580215653415 0.6475892830772563 1.5566950126971817 0.7093614486615073 -1.4451214419212013 -0.021959277879910567
Ni 6.455882535791162 5.913458670881314 0.13876369942871253 -1.1379268075417113 -0.47976862122689634 0.8531465363016791
Ni 8.008636154187256 8.922608641070758 11.472640954497807 -0.22638126247584883 0.2909989984562343 -0.058983934733375834
Ni 0.22529781262633403 4.7124244681198375 5.528964927308155 -0.5120758180000342 0.710322527023196 1.3984739172659915
Ni 7.528742197486254 6.251134662300478 2.386659572944062 0.10302487500367417 -0.11275161537313484 0.08505800611260836
P 8.502636916128537 1.8543839155523827 3.518624756620868 -0.13039992458251734 -0.33437787966250154 -0.8673243704639579
P 1.858005688399695 3.4511058563148485 1.3944368728079541 1.1719237333124464 -0.8492047780451116 0.3189659159828055
P 5.137158824356272 1.0686674596243289 8.194434912140801 -0.19477366287289682 -0.38492988157844027 0.3067457197675298
P 8.7045507523662 1.8977546453989476 12.257004678267391 -0.7338617477957168 -0.8387604427833362 0.13071899848483293
P 6.613502090106194 7.945870830743333 1.3518439186803493 -0.9424568899327382 0.41169969347311675 -0.45551489088585423
P 2.033453419555622 3.419469670493575 5.82636861555163 -0.8028169348091915 -0.31558491532571453 1.0053221619983912
P 6.784377333042389 3.9955035874264815 5.601930973976533 2.2184095140333406 1.1762930660247355 0.7305555662406192
P 2.6366506328433714 8.610638182435393 10.250202979651926 -0.9315749529129117 -0.12662168848700775 -1.2984253512818218
