# total energy = -381173.7030589492 ev
CRYSTAL
PRIMVEC
9.20206379540411 0.00000000000000 0.00000000000000

0.00000000000000 9.20206379540411 0.00000000000000

0.00000000000000 0.00000000000000 13.46815052343568

PRIMCOORD
 96 1
Ni 3.814697046079889 4.420873781255228 4.6609500983861665 -0.04032621042287248 -0.11627094138030299 -0.47658868083701794
Ni 1.36927626029732 3.449623578329164 7.28959593239864 -0.47985783850659297 -1.2178117540938123 1.591181698748795
Ni 7.534934909681487 7.793678532957137 9.81479308803774 -0.21456087280215305 -2.448122411985584 1.1350633699509871
Ni 0.9713974359430785 6.019879558412802 7.239291931722963 -0.26766160928187455 0.12301365942077525 -1.0808537166778032
Ni 3.922812090886262 4.067312095022316 11.139682274530648 1.2027903409843157 1.2709243176480756 -0.01960363316354043
Ni 2.35629880017105 7.140580475672027 5.32047119603853 0.48052144023252086 -0.9738294907067486 -0.1011176306786323
Ni 4.874342271595962 3.408794022298363 2.1437522966027314 0.22435986117044585 1.233951339968152 -2.450492969100289
Ni 6.159852147275663 4.607454822066704 13.343314239153129 -0.8915225649767162 -0.0982783614576243 -0.17179519969985252
Ni 6.821121637005072 2.5458705116406306 7.91795240138084 0.3193143004611597 -0.33202197783581533 -0.10013084128533078
Ni 1.361518920713375 1.926304773980546 0.9742445544095941 0.3480957434692263 2.308520509188824 -1.9147398620879732
Ni 9.024482140752431 0.3141455671654498 10.421869785029578 1.2540663655504725 -0.4591596867272931 -0.9718448561765519
Ni 5.312746983883414 0.025221936020920054 0.2865025682209995 -0.39723595263930295 1.1572499333503554 -0.6256614992386902
Ni 3.5378989740928493 1.1731986898884164 1.5275710779212643 -0.13362408794676986 -0.46048303352440695 -0.22816586518009738
Ni 0.9226080949299375 7.928994877656919 8.577986053973683 -2.1606694790093948 0.27448865950603696 -0.3261966294032898
Ni 4.670047258424943 7.827799784650221 2.055401443917826 -0.8432760712655026 0.4588151589036808 1.1769512684340246
Ni 0.9432851317568948 0.7520358840997063 12.3397887184848 1.000936888446502 -0.24464766488520442 1.0788608546174903
Ni 0.37750821624394565 2.516534333000515 2.9878953157339225 -1.062932870533324 -0.6467178056883571 -0.20070571208661564
Ni 2.3161501968439406 5.882741205127468 9.020428631752754 0.46224526763115237 -0.06899015401646828 2.0446551337245884
Ni 2.8965335478510728 1.0625622796656715 7.708617417996147 -0.2259981681048172 0.24057349481583087 0.9660920128531747
Ni 3.1003592557803583 2.454024715214346 5.743344665443677 0.6064540730723039 0.08966130921257462 0.11465088927837674
Ni 8.622250740332703 4.420790962683157 3.8998372987875243 -0.5258502460763073 1.0706441231346528 0.09390337231838021
Ni 7.364172216135494 3.6378517885184887 1.8547127194573028 0.5078905762740931 0.43384820454569795 -0.45850534097274587
Ni 4.413318887069678 2.9806404088205385 7.7238762797969756 -1.4982638302721358 -0.885510040234049 -0.16089295096505196
Ni 9.167178540430058 1.3153981781336195 7.419079089005582 1.3843179374805836 0.9476533465320132 1.714694409293176
P 1.4497759123499339 5.785291351991074 3.7595803661605545 0.3102807295039818 0.386414950764399 -1.480942822495185
Ni 2.389628674397681 3.6335728289615083 2.6153534531951435 1.1542476561889219 0.6572271898601132 0.356980704663682
P 0.6646310035491182 3.3580538438097816 12.535803714861473 -0.5335532711475198 0.25833004746830346 1.136080755471908
Ni 1.9413501479067032 0.2648381499736895 5.747653991810416 2.035071346690895 -0.6955767361725891 1.074109455975434
P 7.2925893636758135 2.785924743819018 5.672367308766467 -0.14105586163446676 1.6670426117431676 -0.360223894191328
P 5.420043045032645 0.6593407372065202 2.3826774355818894 1.3484253373490327 0.4326629259883452 1.461214233718006
P 1.1808548067731641 1.7286628527658643 9.398007703886138 -0.6388995951955191 1.235894322627136 -1.0757714170588892
Ni 0.49218709299009183 4.454516525643014 1.4702100146988175 -0.35313613410661115 -0.40428077530122625 -0.6098962659846335
Ni 8.456760829208536 4.5017415158503775 6.956057016273328 -0.7970052132234209 -1.0212527171857186 -0.9603378839782171
Ni 8.034956639589456 6.938963262997958 7.401839022919555 0.17817950595964152 0.6528964236952434 0.9517485996473093
Ni 4.680951703747572 6.459940642141665 3.908497360807039 -0.19954383056803054 0.3752969864743666 1.2199851075960473
Ni 2.2022286499290624 8.11014670096599 0.6514518081136182 0.4503091783151987 1.2897905584249594 0.3723857263648425
Ni 4.247626530547117 2.5530665253472087 13.104186654775576 -0.9789801816697529 0.44760720600300336 0.5742558910732046
Ni 5.100841864145464 0.13093984326902836 8.910474094440056 -0.46626261632066157 0.28736808657186635 0.16774134134545304
Ni 6.01080632373929 3.041383230402535 11.638488411841893 1.3756258090232245 -0.028867574963969637 -1.2485315517751725
Ni 7.061442729026797 -0.2665248882248605 12.204164104655645 1.665315344639416 1.1287582536685654 0.37503884771697343
Ni 5.823038216728136 4.430802807840135 6.493264995130157 -0.3856955560998712 0.40745788747762735 0.2218432653961792
Ni 4.227621244360288 1.6182933023864579 10.61539378279964 0.6572032786007133 -0.5590719842439146 -0.2511998641814255
Ni 7.194780630060446 7.9841520466559315 1.5864808484414317 -1.1922529317881014 0.49857238419696065 0.10969225972152077
Ni 2.0356344911772886 7.739018275390548 11.824645237523097 -0.17975070710150334 0.9911379000782091 -1.434501243203194
Ni 1.1970872468990001 6.037087417276358 13.2062347790746 -0.6285305932563692 -0.5460740293223498 0.2700141686744511
Ni 7.3461545756783595 -0.04731977146206618 8.069724796351046 -0.4890009384584417 0.8470003141946251 -0.7622104741417389
Ni 1.362190671353503 4.437446697732909 5.308606055279883 0.3639800187996506 0.6209080437141049 -0.46347939714856956
Ni 5.373554219910353 5.976409010139306 10.508039748649958 0.3208741887491119 0.43250146070981643 0.20709901720746915
Ni 0.12800070416687875 6.958664881087194 1.9074810327552574 2.3421641653851983 0.31469634207317415 2.501296682015718
Ni 6.178155051703262 4.0877222720059345 4.151233994514157 0.4113104284544981 0.713105746195288 -0.26180180806698783
Ni 7.638577751596049 0.7411019921736758 5.797554021895659 -0.31536997110143106 -0.6325636256751621 -0.5158370848146793
Ni 8.199471131975903 2.0258066872915785 11.917144380462382 -0.5871687424801307 0.43905545977825033 0.19634126447033282
Ni 7.175033001653393 6.542409535796845 11.953306649853827 0.009834983812550805 0.25259571608768755 -0.18232566691753116
Ni 7.297797731652698 1.9840753290315642 3.468290884473875 -0.2694765510034262 0.25075712021705204 0.5475089619966635
Ni 3.649814471150907 6.194056217540817 12.330832350018543 0.4252702330686999 -1.1120447975686265 0.7733191824603907
Ni -0.0018008438393571655 5.442247624411126 9.584635675221786 0.1807161563385662 2.598600081154583 -1.4067898933308547
P 3.4203794203246822 0.42767326575981474 12.559224807043035 -0.6385046737499455 0.20472254655549257 0.03509298704839118
Ni 7.050933972437395 6.28855220827336 5.493995428859899 -2.4355839131989407 -1.3251941347352338 -1.6522927071275026
P 3.857008134344397 7.567961115810527 9.791035200329755 0.1892733018799579 -0.7896567432781497 -0.5122781638188274
Ni 2.384880409598967 1.4704345450497642 3.6125083852585314 0.4008856335767483 -0.8237323448056201 0.007064620156265251
P 0.978676268221727 9.497817886326544 2.093287259814695 0.2325274845829028 -1.8047568105989114 0.5640288140285576
P 6.980216113952675 0.6864647397659948 10.232305435210849 -1.682920716426005 0.403810263422711 -0.21164395626567423
P 4.519924793451654 6.39240669764988 6.125651757835934 0.4555128340033252 0.6087958338316031 -0.2406362297329662
Ni 5.841184686075159 8.19773194196242 6.076924070648668 0.08034851645208098 0.6539351493724028 -0.25994881401864905
Ni 4.7313790120749974 2.2319881234930943 3.893534805452952 -0.5292142774525337 -2.394973081656114 1.7566470995758778
Ni 6.941052131426849 8.965478509183917 3.8302614163910214 -0.9202443583914409 -1.9644369722027848 -0.546896268113329
Ni -0.12522076076437594 6.871328095806976 4.959565342875669 1.4999227060317974 0.10033035889064656 -0.5131243138692066
Ni 8.563210300509935 3.3619371146335357 9.333670556276278 0.6825587266463664 -2.161925462903683 -0.1389627265508639
Ni 2.368178664231398 2.4986823296875214 11.572817885221696 -1.1505663506825925 -0.9625667733087357 0.5633389870503847
Ni 8.266351729954685 4.501971567439463 11.460345663318053 -0.3186776953184254 -0.5177600128690051 1.1566660358224272
Ni 0.8714906318352565 2.19626571273998 5.300942576744285 -2.2989544627669436 0.467537369268027 -0.11425211117806129
Ni 2.256484016698862 -0.002318920017976524 9.867508029367025 1.7929906712019188 -0.043539318043531464 0.9748610172950567
Ni 3.0439598082002868 5.03157793170376 6.873348868965499 0.706423449079106 -0.2910807595367632 -0.3855392330276651
Ni 6.886575915131528 5.097197846974358 8.626875697479667 0.03098384997602406 -0.17440589784982222 0.9641526297386172
Ni 5.172387908350889 1.269084192219033 6.607178260187828 0.5863632158596999 -1.4101960907989262 -1.4898136426222537
Ni 5.585174075677838 7.164459830619048 8.09989376174365 -0.07122752798741926 -1.1441833299743842 0.5900116112455646
Ni 4.469580303696299 4.97783788049351 8.643670383689225 0.18580205550190582 1.6145481413888774 0.744535425459479
Ni 5.878020546519444 5.625368689322764 2.1260282019732686 0.5841348407498134 -0.018365389881065144 -0.1597287554536217
Ni 7.959205252335557 5.929791356127127 0.5593069446215234 -0.7635636457355236 -1.1916371525809737 -0.45290367851525226
Ni 8.926728619518444 8.20109069516306 13.491315628475055 0.9588728693969164 -0.4109517595634987 -1.514637643644469
Ni 5.520051071839664 7.003497334768073 0.19071460776415494 0.3844655403475121 -1.8775460266464954 -1.6759625399406168
Ni 8.242499981198357 0.927834867033948 1.220232277173661 -0.018891694698180368 0.36887925587348086 0.3096649502968538
Ni 1.6769840637938163 4.801167462139815 11.144975301492316 -0.5058385788410708 0.19200407054755966 0.5281202730574066
Ni 6.440892370565429 2.087570937929112 0.2674938655180864 0.585385939548095 0.3579518103276997 0.4162086370870639
Ni 3.0230711239113712 7.611164804240684 7.653639689236621 1.4559828101157375 0.7651446170693983 -0.5671151662633653
Ni 9.624530301594547 9.14920691029074 4.161604720150107 -1.6723205723126553 0.09596256884025409 -0.9910198864431062
Ni 2.4988755730223526 8.056839146743219 3.088556689053943 -1.354348644812003 0.7527698975541294 0.07902876919939293
Ni 5.123451334320735 8.138351025787808 11.554083404012973 -1.8751412738597448 0.20169918634813652 -0.7607639715031994
P 0.08743800797941638 6.828280842457395 11.372210138920531 -0.43768968977897527 -0.2746398403719205 -0.46504648452537334
Ni 4.168028680723716 8.822312804264557 4.456004499321216 0.6292222200067551 1.0895157632281751 0.36090446519812036
P 9.348100312150045 8.555425354735299 6.449708867665521 -0.27625860692226617 -0.789759330294285 0.6316621969068154
Ni 2.516147846330852 3.4341549094790906 9.31490938908322 0.259966554630462 -0.33410997071309556 -0.13052488019615585
P 7.5872762472301005 6.5815275080048545 3.193769403012421 -0.6070809080230255 -0.4444262371718604 1.1321438823113468
P 3.9830672030993983 4.7426515399401605 0.5995908182830147 0.05955754784865872 0.31922893983620504 0.0629999978713044
P 5.411319488774542 3.266548523735343 9.563948516124912 0.7260023996522981 0.5636598607249131 0.48802700458094667
Ni 2.5512997291430364 6.081478171906194 1.9246658864599047 0.9475067936518198 -1.454097934388199 -0.7136320510124032
