# total energy = -381164.52821352234 ev
CRYSTAL
PRIMVEC
9.29261470802387 0.00000000000000 0.00000000000000

0.00000000000000 9.29261470802387 0.00000000000000

0.00000000000000 0.00000000000000 13.60068093708802

PRIMCOORD
 96 1
Ni 3.1548891808026696 1.4965477324361276 11.274501843221598 -0.11851474310915718 -0.5181171390981076 -0.5006552348679184
Ni 2.3436996662182357 5.0486869024587895 11.86459496213562 1.0468102539398487 -0.06988104126185384 0.14937389458185887
Ni 8.891136650815955 7.362547982619213 6.949186457894071 -0.828426922067812 0.2978183353709129 -1.0077701093182514
Ni 7.362092644495004 6.49188573344431 10.777601570149367 1.1555668892209778 0.005871628289428598 1.8855264737488107
Ni 2.2511080525526994 4.786523654292179 0.6185684783836414 -0.2274564978178986 -0.5280994471218001 0.2598811940055073
Ni 3.964879948080514 1.540501800344396 0.07432605005443828 0.23447252412441555 1.7547059166891068 -0.3874678175089456
Ni 6.0386942032501585 7.978527538525213 3.3513434206001134 -0.5799064044907626 0.023173352792669768 -0.12637074881846624
Ni 0.4723965771594829 5.284923755389866 7.214903201952462 -0.5345477738503052 -0.7166739231625205 0.8478156110070689
Ni 5.1743788099698325 9.033731824611385 12.306603759703806 -0.03136514457484276 -1.1312949040474902 -0.2598081746757267
Ni 5.9552929856018055 5.114199836656102 13.041271379361346 -0.329112260388188 -0.08427767630315808 -0.30582577905642166
Ni 5.1062267731750675 0.6941100024512724 4.721177057899424 -0.233475707428785 1.1235224591909232 -1.6041218038492309
Ni 1.3642766536610131 6.767495395197233 1.519168744594499 -0.04301095634388721 0.1663344336955974 3.099896806261242
Ni 5.246015577307008 9.030516579897586 1.2209250610225122 0.18427173490030846 -1.3911102778120688 -1.0947212186885147
Ni 4.799524022369064 9.039214467331442 6.712901283366139 -0.4912527106070958 -1.156279599017286 1.8419992398901373
Ni 8.89057909392917 4.510375020882029 11.33755502228671 -0.1357442196135662 0.7179990697318474 3.1608913436667434
Ni 8.26799248891476 0.9305438588156808 9.47564862529325 -0.6378207603090434 -0.21224765128794412 -0.8179715310624429
Ni 8.141166882400585 4.50646283005975 9.298717239886606 -0.1419976567224458 -0.9120479386235777 -1.8230898045801442
Ni 7.459423491698219 7.214005535364738 4.964656574789846 0.7026084462083899 0.20761118095719727 0.9353102515856279
Ni 6.816374548938775 5.249360918627722 4.022428182150095 0.238722300539705 -0.32193194058966496 0.11849494561481529
Ni 0.8949865976224043 2.2209256397480366 3.9778319945605447 -0.054080326784171386 -0.026976528588843862 -0.5201999897690655
Ni 6.995731306802938 0.3219658705817601 6.158782664049007 0.4971924731302985 -1.155739924463732 1.7118355996881423
Ni 3.2223442714889527 2.7429196897715364 4.185119564668233 0.039848756565821694 -0.3528044617988053 -0.2744974012567853
Ni 7.614470769298526 0.9959452816356368 4.103365927620333 -1.5340494725121774 1.0322917486086995 -2.4974526256792795
Ni 8.284607684140973 6.85309896254839 2.5403081634210234 -0.6552304711450586 0.3697691146776019 -0.0006003525881602564
P 6.523331941859021 7.727236649650923 7.527269801466729 0.5441513583783404 -0.42575282913207324 0.14234835519364517
Ni 4.5470343861881855 5.7784452337281795 3.953581987031281 1.6848091916979693 0.3992673812470349 0.9393911065232209
P 2.0104943780603546 8.89214954582695 1.384250199868631 0.15400522270628314 0.1553877048761066 1.5467656345272653
Ni 1.9555285616380698 1.680820283518783 6.098626922272226 -0.8706179536135652 3.8434744957931417 0.3625983079607755
P 4.004327097820599 1.9321018797782932 6.79324058444456 0.2619689297724714 0.16069908978669098 0.2349602623941115
P 0.3404693251312198 6.697912295726385 11.12983162854585 -0.28118252658644477 -0.1772585368072689 -0.6735408394184723
P 6.430712450349144 1.7838382109672106 2.1942790668670726 1.0521224101813815 -0.5378722102378478 -0.30430728552936626
Ni 4.383289221154021 3.9551505804061042 5.732986691487068 -1.0351119916663143 0.5616716266502907 -0.7749947703906007
Ni 2.6741078773274083 0.5131688537671611 3.7344073040973225 -0.6437952327249234 -0.9771845232219107 -1.2937623985885138
Ni 3.770487739502699 6.821206708624251 -0.13467786600307238 0.2357087105243618 -0.5340487227266996 1.1901690526758792
Ni 7.40847208486079 5.123297306525488 6.703503662039367 1.106606400161875 -0.5079803077744219 0.7602687770343358
Ni 2.340503006733998 9.007136361111709 5.815338772926785 -0.3599937804583929 -4.052126459310027 0.9435748055872653
Ni -0.4890731036432416 2.169175068039549 1.8844289074351646 0.2291140880259796 -0.7673843050331947 -2.647299089022183
Ni 5.957950673428817 4.2564914924841855 10.711283895512125 0.007697111533941582 -0.9548375229852781 -0.16103873251429685
Ni 0.45079124779653923 0.17806136736386335 7.4989802942927035 0.0627760547859564 0.717130551083965 0.2115663089502034
Ni 8.520695855235573 5.948472206353461 0.29891739814351964 0.9569846512352679 -1.6299711608121668 0.3009885055687784
Ni 4.286553101296712 5.9233449759889885 7.881744026332527 -0.05452589896202222 -0.880249048945426 -2.6834107471430753
Ni 6.818279534968626 4.437948381288574 1.708245577518291 1.6523261314685995 2.080122987613895 -1.094152233558922
Ni 9.015778492856885 3.636246626394276 5.322069124449004 -1.2939871130048102 1.1383104161333748 2.1302003638862606
Ni 5.357368980212881 3.521176177576498 3.0010174189720016 -0.9152530758244367 -1.180591179179457 2.7827203780786913
Ni 2.4374528567312415 1.6753748112578433 8.588843245722948 0.514012887121747 -0.3517418248622458 0.19713290713369275
Ni 7.710872355023764 2.517759633657934 11.063433108160027 0.26398518887155176 -0.37271405623853876 1.0022013569812223
Ni 6.5167992336688485 3.200153507394884 5.597972432828968 0.3285869840123373 -0.31880830735901866 -1.1110860331997832
Ni 4.987169792616772 3.749681575010815 7.8787248557905825 3.4554258660800614 -1.7586142506045779 1.8863847079840481
Ni 7.450669848575684 3.3154748568117145 13.38166915135876 1.1584778922201855 -0.2193420962408803 -0.39421233532163075
Ni 2.2714402936908162 2.2495654784992594 1.6579502292843138 -0.9875494113960024 0.09397330632436718 0.3573550572839652
Ni 0.2953406707147897 0.25109481470243694 2.808608254388187 1.9210341797371178 -1.2435988903602455 -1.1774567473155335
Ni 3.27488471545372 3.7855417754459113 10.014331282199723 1.5224936493537777 -1.8670651817198298 2.2341708906326554
Ni 0.11235050047174125 4.867778277926407 3.1618186836439373 1.588186363565897 1.075586811851909 -0.010373887035156328
Ni 8.4854675526055 7.936729357245849 9.032960537584664 -0.9972483838513213 -0.0808280271916608 1.7240226286726374
Ni 1.3769239023762676 6.926018110725172 13.040550272454437 -0.604554799167062 0.4887661967398163 -2.901429753697158
Ni 2.8740663621583 7.5961921960267365 11.196203200348814 0.5195011639298279 -0.6081288896715655 -0.9606667280725456
P 0.34049255666816913 6.204056283256001 5.250515990644846 -0.29531896598782686 -0.9819819446105541 -0.5919767053917353
Ni 2.8232450519277883 4.843431627203434 3.2631704452623533 -2.2930748640577154 -0.789213485093144 -1.1016333724273157
P 4.178805232925386 3.8202961547222167 12.76032218115597 -0.6366861324839681 -0.7394533829508813 -0.12645919476721448
Ni 7.634477768919351 9.048144670134793 1.719534245952744 -2.1708250793861583 0.17560686013645888 1.5280456895202588
P 5.094230007494396 6.836706790076891 11.832320781744034 0.5542902465845552 0.10221754861103041 -1.0491013639668707
P 0.33073159410350844 3.7807096157604363 0.7316949121894927 -0.4372968252159308 0.48944805329818936 -0.3209358952249827
P 9.151236938501459 1.1630636658348539 12.366405452857478 -1.3989171754509973 2.0382217193944188 0.3089658673473002
Ni 5.595371429952113 6.038368961732867 5.976411381950291 -1.0338974025329226 1.5424148137577371 0.30339428679679364
Ni 1.2356296946500056 4.611943300424814 9.893026418126205 -0.25633589985641014 -0.4146934859941181 -1.7829793097125035
Ni 5.395756771868073 1.9107009879405041 11.770042606751556 0.6717243550350238 1.9911347932089447 -0.9209969202867493
Ni 0.5822417886866007 3.167099676623275 7.789218390231927 -0.23457202581675732 -1.5862025003666487 0.38888115291670444
Ni 7.908043055420727 3.2881359841296587 3.431043389781687 -2.401665148964309 -0.4842251143363532 1.0096513855013645
Ni 1.1818533329195302 7.5072897504287655 3.853032178068358 1.9276869091669446 -1.1348455975132263 -0.8519244909691199
Ni 4.864590911056949 0.7401288893636034 8.799613687850092 -0.4824783068485756 0.6953772185672733 0.6672786605588443
Ni 7.009047623782335 0.9074442769961515 13.339588474590093 0.07787254410776266 1.0361509744537896 0.7281780671473781
Ni 7.540399336889053 2.503588396118799 7.557816484770759 0.07881433919574167 0.3219710213577165 0.7368010329296987
Ni 4.3347631867741105 1.370149586201822 2.4042336174165526 0.046619499630751966 0.6949061924681258 0.7130769498398816
Ni 6.311070035059726 5.84246205694595 8.999217194796397 0.23811243486984798 0.43004862829394974 -3.180377220305497
Ni 2.8534181721176712 3.9813929245441493 7.931740152370595 -2.523861454690111 0.8960672469246052 -2.0098326267287647
Ni 4.4790774943037945 4.7091161731767714 1.3575618102211582 -0.5469602885820452 0.9782620725568054 -0.7687734720712374
Ni 4.292574715673997 5.847777432599974 10.066992530156629 -1.0413823980560581 -0.7501532858668887 2.2715411037509976
Ni 9.108407276981541 8.855425132217334 4.864188540836985 0.554629889312161 0.1602846279570917 2.7257745568212672
Ni 7.837893106448314 8.822362008830947 11.695592964920545 0.008749464057855899 -0.28262234435676487 -1.7346502835898125
Ni 0.8500837537451225 1.9100783827502603 10.456815861644634 0.11982651994204523 1.7219809156522603 -0.5582152926705741
Ni 2.4024196990115434 6.592729189034273 6.65572475388775 0.1840537053522314 0.3544000884206993 -0.8611799481291168
Ni 9.281853931845776 8.963758435319786 0.31181740598078345 1.6335313673595995 -0.6090017791948221 -0.90319100245358
Ni 1.8477714006519643 4.253527148369442 5.7084644103447575 1.5717462157320026 -0.010766237377568556 -1.3020151255156092
Ni 1.2273220970368994 6.65344713400523 8.827413474225224 0.5793191645287248 1.5092365272335557 1.2331123890066247
Ni 2.890830239220988 8.99967439144356 13.05439626847628 -1.0202541007178751 0.02788849888015197 0.3922061035248794
Ni 1.5004785084879664 2.656228886491149 12.684824332377804 -0.13614454037577842 0.5180243222739852 0.6236328988444356
Ni 3.559703358453387 7.667178480329329 8.819498024955823 -1.8296869981816877 2.5873512477136407 -0.481021519797391
Ni 5.456149475321738 7.92270680154319 9.954800933397621 1.6439605331127236 1.155217476301359 0.3567063679563727
P 1.850940182291863 8.934784062436492 9.218459713818248 -0.39372048328687675 0.2633750660913787 0.5279194699005101
Ni 3.662061510252451 7.438422182295959 2.769193628799832 -1.077930372383421 1.2071933551480176 -0.857611256941252
P 8.771642917363012 1.5714926706348982 5.906286523037782 0.9467321202693243 0.32423513480154487 0.3799015751259135
Ni 6.861973409663062 7.255013844387822 13.121665506866968 -0.00802209897352812 2.186212874696138 -0.6773584133923495
P 4.02254062278893 8.006368212405375 5.024662705468674 0.17224951362845176 -1.4629666976327385 -2.0592520577021562
P 6.17572310079251 6.86900791905134 1.4013597622011265 -0.2850070425388575 -0.8588423011348757 2.259306509358019
P 6.326839602340979 2.1861619678569517 9.419300997053217 0.04607108332644969 0.5105467829500175 0.34265760317279054
Ni 1.0300213000330194 9.085203617876479 11.373610367632182 0.7483925944220402 -2.2027134434543227 -0.9071073067888505
