# total energy = -381175.3142194092 ev
CRYSTAL
PRIMVEC
9.17044244539298 0.00000000000000 0.00000000000000
0.00000000000000 9.17044244539298 0.00000000000000
0.00000000000000 0.00000000000000 13.42186948136599
PRIMCOORD
 96 1
Ni 5.993021782220217 0.17676119776053023 8.55748928026815 -0.2990434660272656 -0.8475340752109081 0.8317073925912967
Ni 2.482301249581539 2.7019516902412617 8.928764735578504 0.1808601381155982 -0.2762431803032984 0.19493050016573527
Ni 7.099023009498351 8.797829156431062 1.1642949796220572 -0.1717607469174913 0.5316036036203167 -0.5861865810725195
Ni 6.1201057754843475 5.161115913195193 0.6457972391434004 1.6733104470297504 0.6978729884059336 1.6210332348925889
Ni 7.034343877986451 1.2690975485512284 6.603814524994119 1.0205891154597906 2.667033591336633 2.1606905620553176
Ni 2.3850120242575996 2.5007705209362774 11.319427586553477 1.065109823579985 0.4352905934191794 0.20946108968174248
Ni 4.188471261905439 4.388973818459555 7.504905881014519 0.15447984834985654 0.435571872105024 -0.042908883548384166
Ni 8.08173680674019 7.37524591042986 4.871481239991437 0.1754893607219881 2.046251274567114 -0.6141380719801229
Ni 0.07636686057923515 8.204061340305655 0.5608110795838682 1.0173775505010283 -0.9543600691282272 -0.944796079588876
Ni 5.524696450137244 3.822533921220504 12.406934782281906 -0.4355890984962047 -0.9824246885749274 -0.2768139652051039
Ni 6.669901319441944 8.28470621234814 6.618633043158033 -0.12752465991725134 -2.847487752263064 -0.9087106467202286
Ni 8.221210067928974 0.4346074488073525 9.38144437557691 0.21607525256415047 -1.4212016978808104 -0.3492599389806566
Ni 8.613613305897807 5.590916216002468 0.4631752115304307 0.279443432408151 0.35343721028679775 -0.5996123675601222
Ni 4.964501624294706 3.1272126239717775 1.4738020018951854 -0.4065554302680159 0.25867354685065125 -0.5945701771505244
Ni 2.6888471277954227 3.83902237697811 2.0262193753862077 0.9013503497004155 -1.4624267659688686 -2.0835124729114183
Ni 7.331576262867168 2.5511162506967096 11.025180180732326 -0.9400786195085485 -0.7056762865004363 0.601413682434919
Ni 4.82279077511657 1.3217817411693857 13.074042295891116 1.2576060032726146 -0.6200606081121449 1.0195411338112508
Ni 1.3693304859431275 2.869624062361434 0.005540781406421361 0.6727229715028672 1.1278208294559608 0.5933537882449201
Ni 4.437733061653766 7.468701890755646 1.7706666520284717 -0.20573633253198761 -1.0803551797748299 -0.5595661502715137
Ni 4.863901869199634 6.044541328630801 11.659296110118197 0.9927409828992709 2.109769606835734 0.7109529615183433
Ni 5.658970070383556 0.22616970828935679 10.904719081098976 1.798847901313644 -1.1933261102476223 0.978133003178109
Ni 3.345946020373569 9.312951256996275 11.446694071624934 -0.10824318597982004 -0.5935666755866745 -0.9256660436276445
Ni -0.30699432100639634 6.714222068427767 2.658027104374865 2.4694139743745085 -1.9212743207723815 -0.6747034922680057
Ni 5.578086766834009 7.069677593244547 4.417459047199419 -0.9952994876550665 1.585012593823606 0.5106324006852884
P 1.5982063918376395 5.545797638512245 1.0929278443370638 -0.647181118478021 0.4897768973925178 -1.430498035581072
Ni 1.4593383798590918 0.4702364523165023 9.896816829224537 1.3807962974805703 -1.3150534467568062 -2.38278862377478
P 8.494149950417087 0.7599885071852729 5.122376295563139 0.742011887706677 -0.6325530841522009 -0.11996124574769661
Ni 8.881014241068018 8.82486362115488 2.9528384924146427 -0.11702170350339845 2.7136613184975005 0.7053595265909658
P 0.9916824900844083 5.036948120671285 5.346977858171434 -0.14746999269092667 -0.3904508113966695 0.23438124996218987
P 3.5962807619036754 3.0846434295186036 13.13998328030193 -1.162121916730676 0.7134672432997647 0.22831421783250358
P 3.6281113680964734 0.8793684116385212 9.125220375822368 0.3788577072424314 -0.9239791428435249 1.220152743522163
Ni 4.766621814318275 2.2590559954307254 10.910785328865193 -0.693988822860179 0.5408541756843073 -2.132353148563205
Ni 6.1061391914360525 5.476423240399736 5.885690922271929 0.014004541809208139 -0.7864510918566585 0.2872325894352666
Ni 2.1402895935860333 8.321030335404803 2.1848386865920815 -1.1289012070043332 -2.1513489729394175 -0.5137915151395603
Ni 9.258937350204114 1.357014581559109 0.9802451140994881 -1.9041947395822756 -0.8451928286722412 0.38992296391765746
Ni 7.909369168019409 3.2060325779409795 13.65218918012692 -0.4562180876004659 1.297641421927946 0.9445975904248248
Ni 9.081938637980782 6.792491795842209 11.296341914404312 1.0680300825505735 -2.6015779328359843 1.5398799631510254
Ni 0.653671898186257 1.1990261968026918 7.479027809099954 0.16358361042333763 0.2063382277820446 0.10859851243670973
Ni 1.7609175545224032 1.2950682419358446 2.5156880798800465 -0.3107723244284196 1.7825453074988784 1.0581691305960936
Ni 4.254122460330747 6.712745627172498 7.006457479147016 0.6136109958320594 2.1164984409191354 1.2900566676021523
Ni 2.634402210202037 7.257589132137264 13.2657999184016 -0.8139474975047144 1.3123291058471076 0.34604348892588793
Ni 9.001312106823455 2.9815859958122752 6.062417272350658 0.2100061635519351 -0.08139598387998885 -1.5539238428386013
Ni 2.0611945263394524 5.7418433599728145 3.1184374274676325 0.06477688726606909 1.6251292593388336 1.2529651620664937
Ni 4.7701616051538895 2.206811984056375 7.908152250289134 0.9333934941788893 0.4322785460657329 0.7793700166401609
Ni 8.15831917272004 5.2678323534906655 9.47426942945324 1.3284882321054734 -0.431438823773257 -0.6737899793148008
Ni 6.583258977952588 3.0000002445115372 4.751932599394729 -0.36102402149512014 1.4874060616220255 0.13891027604637365
Ni 3.890661139142226 2.2432644933091472 3.5439908983164288 0.13489575557034186 1.191836413075973 -1.4782261948949704
Ni 2.0691911522686137 5.683922844641869 7.429756855209817 0.6495735299695975 1.8525890995908416 -1.3677587475703217
Ni 2.2649984422221205 2.9866297392308985 6.702129922842683 -0.7305792203897031 0.6264400292759276 -0.936773980615348
Ni 3.758570084229791 4.465116003195597 10.704732820462075 -0.9683067611163066 -0.9476605456208649 -1.3082323100699147
Ni 6.688728238057275 6.76134897284286 2.537042372470237 -0.23491603941973738 -0.5337599878416872 -1.1774917143185268
Ni 0.43405905634110953 1.4796509101722715 11.388443420361133 -3.1367625689393397 0.7418411664567676 3.0614958378855404
Ni 3.861783415459967 0.537815277771981 1.918763797418841 1.8075451719773257 1.5084543976518925 -1.024460682600055
Ni 6.015085867066046 0.7937173949919888 4.747315281556045 -0.4376621789751494 -1.5567397150208413 -1.7731695227109332
Ni 0.5977808017981135 4.2940505673210785 7.888100160545207 -1.7192761151265876 -1.6753297914526244 -0.03198658020892556
Ni 6.518258880950412 1.648258667435534 2.311755777801268 0.4106738233117637 0.6804506791644281 0.10691598252796425
P 4.675733557914696 8.27482047524764 13.013321127396448 0.09817911687559866 -0.7363611171788028 -0.1700779598984297
Ni 6.217275785054756 6.14077595305812 8.168308535821685 0.28727244153426656 0.41936158089374875 -0.5814979173475985
P 2.5989859609607273 8.233736892492315 6.043250130315635 1.7209370477687782 -0.6529951540566367 0.6804205972574411
Ni 5.969664664970705 4.404325139337326 9.774584000084863 -0.500324591001377 -1.15113302181934 -0.4023483341652039
P 8.017442833816622 7.562112018868535 8.169999565433312 -0.5507740059011804 -0.2211043303476257 1.735765113920546
P 7.360609884073275 4.098674288168799 2.395870745315765 -1.2962499408970578 -0.13985515645814622 -0.35007806400657776
P 4.654036290772039 4.2348186787012905 4.855280736130822 0.01395157708408565 -1.2762806968639824 -0.045388969657760535
Ni 7.341168545805131 4.024613793898261 7.422562643006344 -1.1220031943329192 -1.693184560245858 0.8771783804399022
Ni 1.9390992538384693 0.9649414795231294 5.291559039576125 -1.303243855716388 1.077998506617195 -0.21058363332195992
Ni 3.8412232831971456 5.4792202253864275 0.48029917895878327 -0.18511042875151992 -1.8726719863836456 -0.3069058994944779
Ni 0.5643848010570267 8.021991373335961 6.933053588565157 -0.019209997269547564 0.047196198069828395 -0.7145265378022145
Ni 8.519671292115317 2.206252587059037 3.5228108441352455 0.9752235428407978 -0.10823187312591039 -0.30297751097434916
Ni 2.3858648754174756 0.6064294461946643 0.07042166265506605 -1.2306780685335192 0.3579554098721255 0.42999412090693045
Ni 7.978816929672552 8.58485479796908 11.474812482661626 -0.41420214817999634 3.3453710808127997 1.5261916670306555
Ni 3.8407005679701243 9.117309035009194 4.226292001191045 -0.2669316730943855 -1.007665722529903 0.2774312870741287
Ni 7.22422706203372 5.150863358391519 11.618641704075582 0.2706587442369855 0.1067185218051775 1.3197061150374692
Ni 2.648011146989738 8.35460332568767 8.19682952928761 -0.5587624234232957 -0.5697376914878768 0.13835311799132302
Ni 1.9183923944943786 5.061974258470232 12.16360992705943 0.6647296688847455 0.25253041006739085 2.472169168522142
Ni 1.5050438656743912 7.848000566278642 4.356524207392654 -1.0093562228584487 -0.7175110743518353 -0.15605027816076997
Ni 2.5900172681181584 6.926095973780232 10.951064663806312 -0.0695488547334157 0.39416168458935347 -0.8902156732398346
Ni 6.660079775439499 7.19819217555105 12.888565509503207 -0.11031652356908098 -0.2400929556349865 -0.07029550309145313
Ni 1.7808907784601486 3.4412452596577974 4.006172950915519 0.021220085721040872 -1.1239338356967288 2.9238490019326226
Ni 0.31198579290231676 4.177631798776691 2.48640135445875 -0.5685701535423369 0.3658715793954086 -1.6293638662454715
Ni 3.3749888120222558 5.923528168354178 5.152535130073728 -1.1279997782359865 -0.2906938085109897 -1.2847108299092067
Ni 4.52067054434108 7.768557022214047 9.580557610080259 -0.15139529588726186 -0.5275399750739044 0.0766381574800293
Ni 4.479440234504485 0.08127396440342594 6.809800089166406 -0.7388242340073147 -0.1572898069948259 -1.1413530596144408
Ni 0.8488748559737871 6.985428737268391 9.30718121452537 -0.11497510538701487 0.3110664586300707 -1.8587841726579601
Ni 9.174844391751808 3.9347984792764628 11.801554434718316 -0.596946647802501 -0.3152023351753152 -0.647269307316453
Ni 1.4026558742763535 4.3922751777881075 10.065422752399282 -0.18314919126009105 1.4916008164296635 -0.9584992881075814
Ni 6.788016619863505 6.994470793651595 10.236537708663729 -0.49721252773495656 1.250438281879582 0.27515740343828743
Ni 8.97852355701386 2.6226090210450392 9.323058918807192 0.5826441151368998 0.99545863894075 -0.30294691484672986
Ni 8.029905465281908 5.175339269635709 4.336029185272145 0.15505783234051362 -1.520623943134891 -0.2451012074828553
P 6.891541746141377 2.0722173983197876 8.78277495789286 0.11985917295219356 2.061266002808392 0.29586609674054853
Ni 8.394742352857326 5.938668569052625 6.662776802602075 0.760717177425664 -0.20622072836757388 0.5054917370246133
P 5.698641404981667 8.859261951269884 2.8076804738709438 0.18706960936041978 -0.38642677783894097 1.4455413030674396
Ni 4.116620844296516 2.1687363064670646 5.679638413868814 1.0394982936594679 0.5581188763020258 0.7185289740933883
P 7.149533807225211 1.3997580144212902 13.04343961195969 -0.2427288505959368 -1.7676128545587622 -0.43289921036886736
P 1.1300277868359354 8.571456781360704 11.959865619053527 0.06519160620598449 -0.24592833136984096 -0.08375239992730737
P 3.347615040923004 5.953093675229885 9.096699382356444 0.5624175036773799 -0.1683172684535811 0.05081913953439635
Ni 4.598894419542626 5.141344438994192 2.8040297206801186 0.2183951589465787 0.2724957974457242 0.9779599679353546
