# total energy = -340867.2347570837 ev
CRYSTAL
PRIMVEC
9.31619089491367 0.00000000000000 0.00000000000000

0.00000000000000 9.31619089491367 0.00000000000000

0.00000000000000 0.00000000000000 13.63518706971309

PRIMCOORD
 96 1
Ni 3.984618600727167 1.1539965398719085 7.241866297708155 -1.0940830708838836 -0.7428716646038109 0.11823860662963509
Ni 5.143841523572097 7.1251344284533324 5.569264439480684 -0.3355053083987254 -0.4324731785750423 2.146632798410671
Ni 6.661169500071151 1.671343240866232 1.2721696238253535 0.5748750127144422 0.16596805149511415 0.15285902491698192
Ni 5.125339568876161 5.187273604535065 9.777888050317305 0.7514563209490284 0.11631053636898678 -0.05947398699591692
Ni 2.8028225478579403 8.082168064910597 8.32598581774505 0.8396582720072572 2.28490646931431 -0.8036689983968418
Ni 2.6709611849343347 2.714691383999151 5.075589247392154 1.518178566918192 -0.040271445925537094 0.26721243755959784
Ni 0.6164784228113008 7.243189196785105 0.7619917315614041 1.490424022512743 -1.1487848333021375 -1.256402212772501
Ni 1.763620109578844 6.644633261609274 11.494135330274379 0.15096283633553356 -0.40026008417760744 1.2130878662555817
Ni 6.5125017291558684 6.426625083442303 2.01949394477584 1.116629845836148 -0.26253842912269626 0.32202424319315504
Ni 0.5822144050992245 6.418939226129037 4.953335671919665 0.44213821246863205 0.38706004054756565 -0.5345426316439826
Ni 9.005831106342262 3.1033721754740515 8.495321557690005 0.5694602694567742 0.537516626670642 -0.26395793517804217
Ni 8.8284787843148 7.380817281741331 2.7087523124388992 -0.5871934250704791 -0.679152786288611 1.726121934403827
Ni 4.415063875032823 3.2457794662505264 11.228276401903615 0.2791593255088289 -1.3572115681820949 0.11106034371364099
Ni 4.775600454455144 5.147204668408569 1.4533611480331738 -0.3122057144408365 0.551930745213443 2.576884800964678
Ni 3.2229920638405263 8.167280782988176 12.945491634072626 -1.2456380322774612 -1.4401211604931328 -1.6415256984189859
Ni 5.291484513512277 0.11854573158075463 5.461723923953459 -0.6317401013326024 1.1915859876280641 -0.06847901870800466
Ni 7.921370613726379 8.847083217108247 11.021566899796682 -0.23440876076601563 -0.3040887417606569 -0.05062759234888055
Ni 1.8752653387208877 6.251135999551392 9.224544520143914 0.3888901517777689 -1.461042226916516 -1.2895563309269662
Ni 6.523438937017414 4.396552604146205 11.92071159058949 0.7959068379529196 0.3506642755273509 -0.07861302181821299
Ni 6.469768362494107 1.654527516683873 7.67692401802084 -0.058355557120757566 -0.20335446256337236 -0.003603401080542181
Ni 3.588708445282455 3.845397447164191 3.0287979322967953 0.013217270021222399 0.32544175351513627 0.6120644772805459
Ni 4.35984681285618 2.6185389799625156 1.199379431163844 -0.7484404169408401 2.305241067106604 -0.17941749213180067
Ni 3.2812834689424766 5.000707569922367 5.335162541909268 0.14888769897405973 0.5158905637604342 -0.4213513576302679
Ni 8.832894658698423 4.619060502412941 2.302491869145655 -1.1494741460596785 -0.34755889712914984 0.04337810987531884
P 0.2896366418503406 0.4767038875217699 2.591503394601183 -0.18129696854270066 -0.01315839175882895 0.6766439038238282
P 2.06991782684621 1.0435251507558911 8.525441733786396 -0.04221288592262408 0.8841838652234579 -0.2775760401821091
P 1.330212286636074 1.7563068998928872 -0.3912259747694269 1.2140368604324123 -1.1415690322799887 -0.2412864617224554
P 5.489155447418809 1.7052728073327978 10.105787218920758 1.4553963414846482 -0.47190490220810344 -0.5009226295966921
P 7.704797128924552 5.520336737633963 3.884078270878958 -0.3966787945842523 1.4036348926416407 0.4370068047793377
P 4.057685484251954 6.012809209505352 3.47938574247762 0.5298760794062487 0.3644165921164369 0.881158705243889
P 6.301899922581683 8.535829286397659 1.6485893767426898 -1.6940535931143725 0.1463677607656834 1.007029374497485
P 8.908765715618717 6.685633816804045 11.771515591662498 -0.42447164842680446 0.5407724146037783 0.5545021054850451
Ni 3.9696009013465785 7.17365314952908 10.239848134464559 -0.6056835134548666 0.6577192990051833 0.23527110876631094
Ni 5.19481971898809 7.5092316541123205 -0.09726662044229151 1.6122562600309072 -1.2786497113167916 0.6947807226338549
Ni 9.108132196229509 2.1597445374092596 1.1374211734091646 0.1584491174102497 0.28718476691646666 0.999605057008956
Ni 9.827929036950614 3.6031392246500307 12.757952989152649 -1.1772924538235274 0.9148640679161341 -1.374085204008982
Ni 0.6066535681172756 8.8658460251433 5.002027674142113 -0.9631761247579607 0.6609290641917328 -0.0034769028050069153
Ni 2.276252818087697 1.7905252682706183 2.9760701562705822 -1.294036735295823 -0.8104731658028687 -1.1272122493376844
Ni 9.456678838243134 7.744744954572172 9.422773493872343 0.1376110976189759 -0.3700051419478079 0.7232335786579094
Ni 3.4303797846291646 1.116489556183168 12.477913886943677 0.31897182952007647 0.41373729272843585 0.05061756504655153
Ni 7.865212616290777 5.88316509996424 0.01608812969003632 0.18493353685402344 -0.2561602935104943 -0.42398905236343104
Ni 7.930416634879325 7.019358399441418 6.2254307662195565 -0.36727154506672877 -0.12734571113722587 0.4008712353990451
Ni 3.348732689485567 7.172591103791246 1.7347091750330743 -0.5064731271012762 -0.9028050798690709 -1.3326899288916467
Ni 2.077165823197387 9.286322975418416 0.8046133039349731 -1.4479907930491966 1.8052036683283426 0.9929086188253868
Ni 5.5041545144180315 8.766619278181357 11.228099394280642 -0.6104526527087357 1.0346404513465342 0.15095023793004328
Ni 6.624808407836388 7.311029697336871 9.670442559935044 0.5238098186075107 -0.9560122600196698 -0.043091174762519335
Ni 8.58632303989815 1.1864820967826484 12.580463719122154 0.5913933220844396 1.6061637739799242 -0.6971474230938186
Ni 1.9328487133309487 2.1811251950261643 10.988323936583434 -0.5375320532896097 -0.10018843399614358 -0.40362925776015646
Ni 1.4960497969796587 1.3467857898606814 6.47184587301636 1.0729576017591778 -2.7695262479859206 -0.14081314949604135
Ni 6.2793733735108 2.618902311399143 4.986714651516881 -0.504521402691544 0.23765863516188104 1.5253318901335213
Ni 8.641279248735676 2.457350248769622 4.0936785869547485 1.6099841761672788 1.4236843550933482 -1.82097018713398
Ni 2.3372924994410575 3.2353919136392633 7.5781640122121035 0.09968449777653154 -0.07905216623816062 0.7118178806218
Ni 0.5908598300528141 8.585288942732364 12.354242387249274 0.7186045645263301 0.4053179583164891 0.03938801487931926
Ni 6.7337892064431655 7.71499835772216 4.024329795131446 0.4485235471696856 -0.3287073116402855 -0.7097216602144035
Ni 4.463331058960137 8.524947975680211 3.2392292525814868 0.2638170387248037 -0.824114410735387 0.6847109971026788
Ni 5.935307819215577 4.611700711773571 7.240052435382224 0.7078540108780454 0.6593396082174258 -0.5788332260312418
P 5.608281577679098 6.535512720142254 11.577910243369915 0.4310325894737738 -0.7614255163465984 0.39886268960944854
P 8.059874420606782 5.217066782338491 7.9556271784859085 -0.31921068500375993 -0.2702491675033926 -0.1395221985987597
P 2.830156251321121 5.855160630771901 13.566384068029413 -0.05113487100260226 0.049044821242792955 -0.5974446704848421
P 2.11135624300307 8.681310920099442 10.525886863473223 -0.9517555416258447 -1.4368352906530095 1.0627963449554598
P 7.761365038750193 8.963125688252548 8.682219248691009 -2.000297176434503 0.6550389239595428 1.131360210067787
P 5.438167935812132 1.8861932303917504 13.124875817287993 -0.49706571774444724 0.45042976305346294 -1.362037014595196
P 5.349291476698722 6.719759023274948 7.990219126110018 -1.1835695450814907 -2.268380446634829 -0.5878557412448263
P 7.345769772392836 9.17246049289388 5.439171289548664 2.2335108884511534 -0.4702807363411191 2.0540450595799205
Ni 3.5304263563711875 5.461737898239483 7.560466044772089 0.36380698355689606 0.7548782021463838 0.8737166471435468
Ni 4.597512153363747 1.52501383381232 3.2383162658945777 0.7456916505511093 0.48179825006241545 1.0751324979233097
Ni 5.71513828481021 5.117383542033094 4.763848079908858 0.7205781433129332 -1.4418656539880652 -1.0229663574427157
Ni 1.4071640216755668 4.111654176877109 1.076485833391451 2.1902155680976283 0.6616392028848799 1.0484069090030073
Ni 8.351452556595408 5.356204090185321 10.165781623679512 -0.5136984412051218 -0.38130591167260786 -0.5023531913956316
Ni 7.194418938560923 0.8760694180907131 3.6332594007464207 -0.8996598493718699 -0.844638755940984 -1.9511109445178396
Ni 4.529317637566036 3.153949774690686 8.570683018979954 0.49028366182560723 -0.9650568867204411 0.49455709238998047
Ni 1.3247716312773494 4.272982650930245 4.0673901600861715 -1.0300320060402455 0.018365132770749016 -0.8678488755088601
Ni 8.408719180722255 4.417169334127124 5.682136610935646 -3.936615793134517 1.0373930743910071 -1.1459188246082523
Ni 0.7929550229145831 4.995108539322036 6.9654940481519105 1.2582552068208392 0.8751657208852476 1.7482457628860602
Ni 8.225395180467153 8.924975887406697 1.0318240152583604 2.5347521334606866 0.819153467185686 0.4317095609361404
Ni 6.712473762161039 0.06221817947472788 13.144633594487964 -1.9503756090137119 -0.18538142302471944 -1.4202840711625475
Ni 8.44651496632216 1.7019003463056432 6.250451259536211 -2.600276183305425 -1.1934443809930415 0.7519815973248791
Ni 4.547325834155787 4.489947415740747 13.188565954890596 -0.9041237986804945 -0.3192952742977662 -2.6447354420600644
Ni 1.249394332463241 4.454667001625182 10.369437278480643 -2.039245789783559 -1.130542599262498 1.3010977559076624
Ni 1.7852336719628177 8.300670001183752 3.0853155346927505 0.6222149354509864 -0.013311629507241593 -0.03160220028631332
Ni 0.15535679582549405 0.911149534106598 9.508988317307692 -0.2425388460723178 0.6999049312342979 1.1038427213738087
Ni 9.24683164311425 9.1519835057732 7.290284403924529 0.6670660303274061 -2.023721468895715 -0.26728365711716545
Ni 6.8226004522217965 3.3672719089442342 9.367304894547265 0.4095538507747076 0.27026613678425715 1.2227714120919329
Ni 3.744624212548914 0.5098015181603663 9.827397082462628 0.10063066373988475 0.5999844061875603 -0.0943494587168633
Ni 5.50370733726526 8.720420288585615 7.972316202474982 0.34242491833669414 1.3040051593624447 0.07081589437129739
Ni 2.914197607470184 7.650958862968955 5.329503887688568 -0.7153042965085036 0.4420186561716323 -0.15919525154765485
Ni 6.2136569644347 3.3574805925366666 2.7825868500759445 0.5468862408110001 1.3107239661435168 -0.3375642478102832
Ni 4.451667188225337 9.79085059803328 1.0446766319242786 0.18007800853393502 -3.1663670220693336 -0.3609427746352235
P 1.2934319658205875 5.912548365377625 2.489062561853694 0.3559172963961741 1.0012353935235272 0.5373361352287197
P 3.1291873398559438 0.5475609706166094 4.749230976727628 -0.3072483704355612 -0.7493382461647611 -0.22438351531952969
P 4.536863752019062 2.992043696815221 6.34476557915114 0.5223237209802876 1.535384132163201 -0.498545130503451
P 7.433500340052267 3.8133124864528094 0.7932913373982302 -0.1777403615396939 0.024608285466983425 -0.24162661867069354
P 8.838288733103735 2.866685034988173 10.923311831522948 -0.26216099117861946 -0.06781181743765095 -1.7239794341395278
P 3.1524219194187157 4.224221708896745 9.806003382178769 -0.05440891376818372 0.6757784704997394 -0.8591924853854428
P 1.6318146437993353 6.9581882914185 7.032742970595322 -0.5187606862193775 -0.049023995307186534 -1.2108674615654953
P 0.5569246738718387 3.071930031919779 5.949318438383361 2.862185977705187 1.1425267682075677 -0.783796942063263
