# total energy = -381173.3421276979 ev
CRYSTAL
PRIMVEC
9.24629653672321 0.00000000000000 0.00000000000000
0.00000000000000 9.24629653672321 0.00000000000000
0.00000000000000 0.00000000000000 13.53288961146932
PRIMCOORD
 96 1
Ni 1.0665602929571991 4.621678052813345 11.418348544914792 -0.14929933259018158 -0.06092383206856605 0.5159067617103502
Ni 9.066104603104026 4.441060898390927 1.7931758745947808 0.4877994619511728 0.45395705948043114 -0.11647123031656716
Ni 4.576528387355955 8.972541329550198 4.994989874052293 0.4205949390802176 -0.7548401498195968 -0.038441848915966054
Ni 1.0656726485001216 1.3630612805103721 6.322010940346032 -0.3515266235276462 -0.030370384761741243 -0.4034811622180664
Ni 6.888758981375026 4.475041037763426 5.529944524813983 2.3531070375499477 -0.06699780617678784 -0.9445405119346442
Ni 5.617199050315061 2.84858051091173 7.447947250444575 -0.00656016971602096 -0.061203568092513955 -0.4279467514595985
Ni 0.24970455670197508 6.03277384326661 9.475810771712794 -1.5565615375717643 1.360801085305566 -0.36655343595378165
Ni 2.5074199116118443 8.514350356362499 6.132672679132828 -1.5544501476557162 -0.28056186228331037 -0.1892427057523386
Ni 1.6739402590089154 0.12625725309320554 3.7643901115382405 0.49414263056038127 -0.25603842322064935 0.47252376673902485
Ni 6.840798441803556 8.399030547313847 0.8223258452219644 -0.31147860646682485 0.2084550170147313 0.1404987035794161
Ni 1.5278950069303807 6.320500095509715 7.2838208657013 0.4657910760008817 -0.5516633504846692 -0.691693341957783
Ni 8.454434355509768 8.16247329950269 12.4589739010214 0.40218404067319763 0.0725974117517524 -0.696140321985543
Ni 5.695524427355723 6.788159276239575 12.610541965956314 0.39387834902097973 -0.05298426550651521 0.04538511300301861
Ni 4.822757261230686 4.561623357514195 5.937514798947909 -1.7796756992605673 0.3505658022762737 -0.5697065811396252
Ni 3.0601727583675817 0.13099320612357118 1.6293601654114829 -0.865128905474536 0.06359700802535499 -0.287077294804325
Ni 9.287534909959152 8.014994871477832 7.564776979699903 -0.5348869023572788 -0.3833766781587075 -2.5240296048368593
Ni 2.4482528607697716 5.413669573344329 5.267108377925117 0.4040594033190396 -0.2397034335060517 0.17993634074974818
Ni 3.3781806314120284 6.937801337628558 1.2256428229990597 0.6452324793920823 0.11683221320041169 0.8013858587896199
Ni 6.307028241614278 9.21675451080365 12.174404334378778 -1.874826056612171 -1.7456034401672067 0.6170719577974663
Ni 7.962910483699522 1.3799450177877006 13.592975755493992 -1.1868281612281044 1.8901565163216545 -1.2212030391635487
Ni 5.17435692919766 8.696483903399091 2.565714112071124 -0.2172366198621033 -0.6129041995730219 0.5779333399247918
Ni 0.14334810741051882 2.145455145349205 1.9876698706961773 0.06412177018057344 -0.18571540932537048 0.09021126817877367
Ni 0.7739741873115952 3.7847033001606736 6.326693264857116 -0.19062981590785233 1.3530805767328569 0.01738888490040876
Ni 5.072758624047996 1.24322003250848 0.6886031323928797 -0.814108962783243 -0.8713052094885768 1.5617837052026522
P 9.45295115305412 2.8215905716387164 11.968487463670366 -1.5876945115311432 -1.2022712352560523 1.0553997953810728
Ni 5.702255731155227 2.140452898981716 12.338787766162747 0.5516520376307595 2.5671264360263337 -1.5589696327926246
P 4.538821990523016 5.387243658153417 3.848008993283871 -0.4481972741785184 -0.4295230948077829 -0.005545355298261417
Ni 7.609701960154095 8.31207837570596 3.330282042026626 -0.40765920485515594 -0.297328797329004 -1.263173212947747
P 4.442771463230087 5.0131754898666685 11.756142567685282 1.036279272501538 -0.3334463689871677 -1.135616928461612
P 4.5345317089804755 8.5102727396378 -0.08915463941700828 -0.9199335120192415 -0.6156054005542688 0.0331165800483107
P 9.35808415170396 4.236800964002393 4.1190327356596335 -2.0701651050702345 0.8377911368915313 0.37238649769579096
Ni 8.86233472242617 1.8212984851802105 8.50008886875212 1.2973889395975076 -0.14147135190533056 -0.6469805724314407
Ni 0.9314441632564314 7.23895321228496 4.913860095305051 -0.44991297131804453 0.03826547123910184 -0.14563165393060726
Ni 5.71114142202243 2.5761938644424958 9.870456572699812 0.9147738221951729 2.188699131453102 0.4891225516379705
Ni 7.130373953332239 3.739516649517572 3.1378573670657914 0.22404772924666577 -0.04144181208455444 -0.12489544982452039
Ni 2.957316956903725 3.5651962229625473 6.8301846181339805 -0.10371187376836977 0.5347395781461372 1.625771778018839
Ni 3.151590891150138 3.1691403617702747 13.435561257327723 0.3149873909510317 0.494721900102619 -0.4635976678939887
Ni 4.778606195787507 5.0369939494649145 0.4166871224118255 0.6293988547939353 -1.3182475282140715 0.2359002577098776
Ni 2.734619907437976 2.7221004220746123 2.1377502065358436 -1.6125611928658357 -0.4493203320393681 -0.06534407262344875
Ni 1.2426560084263787 2.5346779934812664 4.253725384984004 -0.1887613952405459 -1.232641362907477 -0.537106792826733
Ni 9.409031245021637 9.19865026239784 0.791706734601004 0.37937681297069503 -2.927219718177068 2.2385656772662412
Ni 7.417452964825391 5.1041128152349735 0.3440435945261017 -1.1013731767873935 -0.4816267574815577 -0.6284694010011306
Ni 2.747573968733451 5.322390135008191 10.085832404653958 1.661469231420448 0.27836922550736576 0.12567218008954484
Ni 5.988040261148475 6.0532913750401 2.202031383932183 0.17599792492729044 0.47890858721944624 0.4892619054293122
Ni 7.964399137424413 3.7162067362228592 7.753073183305684 -0.6666788221913164 1.1276624495012257 -0.4694541266747656
Ni 7.874663830591733 6.775473357540507 5.694761607900421 0.9892663940871091 0.10330821057204786 0.9740624326531613
Ni 8.283081990108096 9.13652439669884 5.354436873797618 0.08132527854305349 0.798339101543496 2.0491843890535097
Ni 6.904135572334607 1.1467164366905842 2.34803780156572 1.1424797170197163 1.11082789444239 0.3816990333459684
Ni 5.034858054990072 0.5257203745191561 10.16433715984532 -2.44720684214985 -0.003250388616497628 1.9618936369556406
Ni 1.2942873276797207 4.362661550978842 8.632616960082721 0.23431131595620291 -2.582432470255785 -0.9308352465334099
Ni 2.0544808347951875 8.195907907385942 13.163711820680952 0.301171568113862 0.4310968670528059 -0.3919950159553378
Ni 7.890410273408431 1.0214198737962366 11.111165311098476 1.1415811164648468 2.407982349431588 -0.8466069354109484
Ni 3.610669508794914 2.246091835670368 8.794510364238661 -0.33526233914998393 -0.1537591681337481 -0.560224609791119
Ni 5.1421335861464605 4.9264729682623365 9.53360937068354 -0.6418792466491332 -0.5370746540372169 -0.19054779771700733
Ni 6.294924839590169 5.763161085725744 7.4468108806135875 -1.718843398464543 0.29836520901331837 0.13738561187173112
Ni 4.0269192813857 -0.0961032311825682 7.726928355526181 0.22440099882102646 0.7455438121193354 0.5890405055815469
P 7.196198337602394 8.299429442192608 10.3598463992945 0.15612843969687304 -0.06609817718065392 0.3468600712899123
Ni 2.7532881799258875 5.70255161264092 12.815808822025847 -0.5504688159559359 0.3675857338730379 -0.451201608222481
P 1.6883274962507133 0.3655384598320194 7.997341842337702 0.6109097948508125 -0.7198556633246119 1.1101082426675464
Ni 0.8730556505735869 0.754607819443378 11.725829509476085 0.15208512286543485 -1.9518269967482578 -1.1703970122552747
P 8.13353239168339 6.866900736619492 1.4413200842167542 0.8624685850335534 -0.10879905848329005 0.5584713745454382
P 1.8999844677815607 4.665487005288692 1.0489534952992097 0.6474300012640333 -0.5915689284303555 -1.3657365749339705
P 6.4650566938633585 2.9740250145489235 0.8365743880173439 0.3583477602145377 0.7348968739284505 0.5006241245196669
Ni 6.846836273370968 0.7716968245014056 9.005921384284527 1.1980870219713755 -0.7564974829173616 -1.6442024739202006
Ni 3.5798146176150425 3.0373898839692592 11.091691686191696 0.502163958202961 0.7548661179615257 -0.7036289170531043
Ni 3.472640795719361 1.4869431600512528 6.076714093151233 0.2473977168265159 0.3796231246535462 -0.2746912624351463
Ni 6.729056949472496 4.6693889423812625 11.522714266585325 -2.9030608615426776 -1.030824934255186 0.6652968542421251
Ni 1.310338898278539 2.550276495555118 10.215829784652245 0.6431468005076472 -0.4610540755365286 -1.3415599776877671
Ni 5.307207716273594 7.845713676476007 9.117310592721683 0.25293972969066764 -1.4242232583159535 -0.6728211876436284
Ni 4.969218596648475 2.6819530029847103 2.6779965127432157 0.8385989775048074 1.29753754936023 -1.3922379636586086
Ni 0.5338413966717726 6.270736528134807 0.036348115887681366 0.11156787947767882 0.19895376239251542 0.9000879380482241
Ni 5.986006075934339 6.898920661149277 4.5284023390784265 -1.2021563069447425 0.319778641692088 -0.279449603055738
Ni 8.311246209027452 2.567021538386028 5.489345886458401 -1.4562440341969245 -1.6867694007481338 -0.7704796561290665
Ni 6.194436090011853 8.267982788041351 6.750746911633042 0.2657278825942714 0.707569132647775 0.06128198673893316
Ni 3.340807101250494 3.2512659666428005 4.424686632046776 1.6928300051199165 0.9185291754725472 -0.11898756898051767
Ni 3.17406863776634 7.211094121147725 3.77939777527035 0.9419449832933262 -0.021074304171795965 0.16805347326923314
Ni 2.6271224651673184 0.4252029614219129 9.997693008584731 -0.6382560480742492 -0.4338325208164141 -0.13928848532139881
Ni 8.19561202590025 3.71918404367264 10.139056860781826 0.9553226901518128 -0.7529701864903935 0.08127565625204067
Ni 6.940778645078338 6.312548280581728 9.718414172758148 1.9094220494194856 -0.5889826557604179 0.3344524416541788
Ni 4.194425187473369 6.88448719242534 6.316963387126046 0.18731077883694838 0.4405459282808477 0.1622810895618302
Ni 1.214861641364139 7.403278392401434 2.423415459305171 -1.0437863795118605 0.7375808485185168 -1.0268009006974574
Ni 1.6998946130820047 5.2165940112802645 3.031759814074316 1.1919580262555018 0.14298213212290214 1.1448811273723574
Ni 2.863827653721321 7.412312024011484 9.022756116190788 -0.39590206431922786 0.08252469816779336 -0.8648424845823685
Ni 5.686592505006381 1.8676131839875152 4.680322687907243 1.0085584095475018 0.22914956924960536 1.48697540184251
Ni 3.8172964950689887 7.62871234560984 11.151953498530833 0.04079440830854265 0.15700518587487153 0.9243370404035759
Ni 8.45140157028142 5.959099353329177 11.7326366329063 -0.12533845089920995 0.4882064675816043 -0.7960086536381065
Ni 0.06949331469274138 8.96963799247184 9.480113998070333 0.24675134149176864 0.1931394697035835 2.7634029086970022
Ni 1.3808049233554944 6.992169560624555 11.136173769046993 0.09147008028653923 1.7431053563357013 0.971660765190204
P 3.724251014115124 5.513742239583391 7.872284758520837 -0.520766918016129 -0.7264230321294844 0.7000486559010137
Ni 1.4257049388093321 1.5539973017463165 0.09232057131391808 1.594220485575119 2.15136208556554 1.0246915676639385
P 8.340575461296721 5.884074904113271 7.560568065565927 1.6511040861360402 -0.12164557542865502 0.9377993365560687
Ni 3.4890437255824387 0.9962052234373784 12.193959326694124 -0.2397656542025548 -1.3133603753250995 0.6909706048591454
P 3.772544420357997 1.094336167426583 3.5268740227875113 -0.37818459243480673 0.09665111026684645 0.15503469241206203
P 8.90348998782671 0.8659184343608981 3.584239895085431 -0.7937928769337103 0.49368497419767227 -0.009475286480286907
P 6.897820351874358 1.1762768463705509 6.910028237048102 0.6311029819692356 0.08139701232125336 -1.538827353516795
Ni 8.431512786665026 6.164977389592592 3.544250587664446 -0.07984817977689475 -1.371805663946186 -0.4649251284561605
