# total energy = -340867.14452767227 ev
CRYSTAL
PRIMVEC
9.28071912917799 0.00000000000000 0.00000000000000
0.00000000000000 9.28071912917799 0.00000000000000
0.00000000000000 0.00000000000000 13.58327055501725
PRIMCOORD
 96 1
Ni 8.299774733068016 4.874038658640223 3.2104605193773845 1.8560310353928549 -0.06310258488743972 -0.01274495837049418
Ni 7.291888663121716 5.210028524112286 5.1711785068249725 0.18704621232165203 0.2832214113933445 3.5370100547114562
Ni 4.250355788727412 4.011535049888295 10.454377146628453 0.7174128582110743 -0.02842071723453815 0.2485665403236364
Ni 4.20447191460389 2.914851061735307 3.2722645386609974 0.0018830759553257889 -0.5123951490126659 -2.296841015968367
Ni 0.8751300267828859 8.529806631131452 8.788470474999594 0.05427573062442911 -0.7199222548964892 -0.15089804453586914
Ni 1.406595033583161 1.9168211152354426 13.227823463279691 -1.9544109554253501 1.0784895873210008 -0.899200393236948
Ni 6.605347484260965 6.71291101603516 3.4435355651602975 0.984909402669994 0.6560257133528444 1.1130156461223282
Ni 6.258239317575314 2.5651999780776014 1.3577004942562265 1.3895745578938328 -0.5363786564114569 0.24840121839036575
Ni 5.160051852964395 8.678251729554942 3.048642833125297 -0.6156246838279785 0.45988936580446604 0.029427818342813834
Ni 4.59204401558941 4.769741939910421 0.9343799922317917 2.727194577097245 1.7164013646819538 -0.050915555902944575
Ni 2.440160852659677 3.487313644170829 6.741159668150284 -0.14925330984359458 -0.5298583387944358 -0.36272969133231725
Ni 8.992125641945217 9.234092544483339 12.614796714780436 0.2685442689971439 -1.0096758109813968 0.0454272790948637
Ni 7.1762137830497945 8.883411301030383 1.500421245276928 0.4399705153933519 0.15668019843528502 -0.3623337414454792
Ni 1.6262046843487163 4.252555319101052 9.905056036710528 -0.8418840760139824 2.0951382300758046 -2.36948419335639
Ni 6.6844099283666045 -0.13197182241838304 10.34040063811086 -1.387895884639829 -0.13659242654647444 0.2728400681590204
Ni 3.160363198884105 0.21040039342478453 9.251647024237514 0.36400058762494086 -0.06322136985349112 1.168520364057852
Ni 2.0455446860471844 0.8663643878043934 7.295628792828791 -0.025337450323524104 0.7423250480717216 -0.7483697116039046
Ni 1.4551239125863766 5.439373648978887 13.77071953151968 -0.555617707146727 -0.4253154844843385 -0.19374419316711794
Ni 8.547607049935843 5.870973480312706 9.238185341507705 2.511782926259023 0.46657654801665455 -0.9220508154725605
Ni 2.9250969753745406 2.6169863894063337 9.044406715590048 0.20315623050963724 -1.4118063727088395 -0.4259276641470406
Ni 4.294337115481331 8.522382056030558 11.419672141508476 0.17417089902088068 1.5958490223174775 -0.2822917004902235
Ni 6.496837319161405 8.577528087592444 5.25539453412252 -0.06472495098221111 0.8405445312669525 0.28026695675071084
Ni 8.56642834781661 6.487194652249119 0.9139364246914813 -0.4086416233730833 1.0345674320167537 0.846644473517103
Ni 4.6191715568643 9.119355017017904 7.313354965882175 0.10305110025591929 -0.6776648888891749 -0.37686227407895745
P 8.19842928294082 6.438498720306134 6.962200405766538 -1.473874602794494 -0.9036275757703662 1.5806131792043294
P 6.79247461896011 7.251378325227465 12.909499446188317 2.38033270603512 1.202865160086309 2.1018446955617027
P 4.214847758307389 2.1782496852567808 1.162393333939671 -2.0042926707471413 -1.1774544333226882 1.2733105584920652
P 8.561982883474949 8.24981662335788 3.024301363657017 -0.7011220914708506 -0.8110694046259708 0.44386676512396456
P 4.811830000013612 7.282171750458422 9.588321806762632 1.0170741603279967 1.2214609208106253 -1.336817320796459
P 8.530354193545142 1.4006646542213224 1.1835580133366557 -0.10133128935133516 0.7989032015770822 -1.1902883518625629
P 3.9123891301347378 4.89914300320012 12.38208825739313 -0.1616920498275796 0.08183307141740745 1.0161825017516628
P 6.777755398822589 4.6131483703137 1.8332658751218742 -1.3313902362436167 1.4921170939444497 -1.229063929968864
Ni 4.434559496980581 5.3989932411489026 3.3734596411424014 0.8580737983999674 -0.07883182269723843 1.2222415077303916
Ni 8.160554669207386 7.355767851146029 11.028514898821111 -0.5719488402065828 -0.8555106656584816 1.2461789923825959
Ni 0.5612988056994408 6.415269080959213 3.037544949493236 0.8804303117182968 1.6741157165398652 -0.005528900238029188
Ni 2.81400677042742 0.7469428815221832 2.6007748296735325 2.9352744701607447 1.0607854851730183 -1.4113381748231693
Ni 2.756132207515955 3.8182083949799024 1.1904294575925327 -2.0499300089702825 -1.7475379381857583 0.3987120229641972
Ni 8.469120010400522 8.575309995781053 6.948779558199785 -0.6742165253292581 1.3205877463114741 0.6958790979043564
Ni 7.7023562975746165 1.7159399551618912 9.112635776551596 -0.5603616495896157 -0.9493646727961649 -1.0209321006215062
Ni 8.742585672804184 7.059842849062164 5.0725365301063885 0.6191869472579401 1.161676344552825 -1.6901257188148762
Ni 0.6818952509913672 5.2479866643156035 6.563273345236087 0.6374728900513216 0.03863596720464314 -0.18745013262829008
Ni 3.3143396057577617 6.292011853565504 10.740631639643402 -2.3802969677011783 -0.6981444968997654 -3.0144775601544733
Ni 4.847931996441707 3.0482613955794884 12.960735510887696 0.22643345587002292 -1.3384399440015464 -1.9340740436402108
Ni 8.155524519576531 4.134829400157509 7.59167630040182 -1.1773567314025595 -0.1843020739176116 -0.9919866212317496
Ni 8.718650698822678 3.8627094419908836 1.0715842839525294 0.7650767399459404 -0.9573572040833382 -0.9063778848219938
Ni 5.118362863772878 1.7593458773454902 9.907147910745204 0.35640940554124423 0.017227676732196138 0.37486889779801247
Ni 4.907402842999864 2.0801432060173486 7.122645473696847 -0.4054035760517599 1.4384594565199935 1.9704615811303097
Ni 3.83135917362736 4.825166393038591 8.205599566344508 -0.08284917138674763 0.3744184405241552 0.9534128747236097
Ni 2.187354070474252 3.6626264237406785 11.859145734736794 0.39141651774404845 -0.6974269020074506 2.051198334159745
Ni 8.046940108725963 2.20927512845964 3.115540110928123 1.3778194742404335 -0.4068989296503637 0.5655874167649291
Ni 6.479937130087997 3.7266819454236373 3.809455749007837 -3.210138510728329 -1.0714992720460965 -0.5212739395595345
Ni 3.0152034749427594 7.4799253082707216 8.001171315516505 0.46317215032079584 -1.0339022876289292 1.5875885820808981
Ni 8.49644244677181 3.6724268628738574 9.774113446015507 0.49555596596814006 0.5240653862617426 2.3780189703002788
Ni 5.406195078996769 6.757959625459832 7.198685187664536 -0.41830177217066666 -0.05702861077921791 -0.5391374501035165
Ni 5.709154865988731 4.3910050832949645 6.787315467336877 -0.6810608019446013 -0.3269152527368693 -0.14570827280481358
Ni 7.983608483115341 1.643466821458294 11.505790716175628 -1.1846851467431727 0.07783166356749822 0.7025498250563127
P 0.8570446899089968 2.749635704302673 8.309660554814856 -0.3264036032077733 0.33071997119494007 -0.07121570091287735
P 5.846676558295032 0.8925787063418733 12.166942632406988 0.2515986422817409 0.9813646227415294 -1.0496225265776633
P 3.6343573540440257 7.959385806848675 1.2570288243194354 -0.3884373805110665 -0.059900018789742 0.9723490495064803
P 4.9636161572325035 7.02457611733292 5.032071667734631 0.21099398138650113 -0.46169196623084363 -0.43025405943653644
P 9.214473104779227 3.7605658500403405 4.943020385902625 -0.32980465846952234 -0.494154200524607 0.8607773133740595
P 3.9131594298014556 3.802180593480849 5.128934530644663 0.34253727554484237 1.3467836879805515 1.5925708657868378
P 2.69925996224311 1.306845867102656 11.171451890591628 1.2041172873258554 -0.2069162117727017 0.5231413317855765
P 2.467501850468718 0.08027914635029923 5.252745816955276 -0.33431514474536617 0.30012512912721856 -0.7422358307920249
Ni 4.9572774262401165 0.16879400263126465 0.48597834744465085 0.5907299774688278 0.6593015558906388 -0.14423734468624191
Ni 0.15887105800892037 5.410148665237996 11.688051041896138 0.022222301733310117 -0.17911718728256248 -1.03517601213503
Ni 6.388837593600032 5.581544981442123 9.847355023242045 -0.5810186637183349 -0.9865623648923849 -0.010742583228484724
Ni 2.6087729532009702 0.1107096954731991 13.339477935934479 1.1619000305278568 -1.4683770700150323 -0.002325562809383092
Ni 3.9912659598628553 1.5482280843515819 5.099159200274418 0.128341756501908 -0.8858404269902744 -0.13580849719259835
Ni 1.2918111025233467 8.82407038453649 3.3822614749245106 -0.6490233138930822 -1.4198742373186386 2.068206952902599
Ni 1.4691377980893132 7.897576219133736 6.366858995157613 -1.1042060182504982 -0.6286378082581947 -0.2362206171637738
Ni 6.808493139740288 2.448058744423253 5.802990358401375 0.5636328641417196 -0.8818739861433587 -0.5977287773841642
Ni 1.7751045379971366 8.387690982981473 11.173136341067643 -0.816734316221232 -0.11096855533078306 0.09543549269219048
Ni 2.8896167871111453 7.239582531535921 4.476203938721493 0.00352523954443909 0.8332050601827456 -1.4827217687724787
Ni 8.810204990535572 0.42242862494044003 4.8555570350703245 -0.11614649998729673 0.16221346954868837 -0.600545935117985
Ni 2.663297176598157 6.167111938930722 2.115635459215283 0.8590880985970947 0.6734696198609047 -0.7060118154629841
Ni 3.237523095620141 6.865903666707948 12.853481955123963 -0.5556912406971397 1.02402668038643 2.8359838653885228
Ni 7.293067314418983 5.0646646243556654 13.085402479478688 -0.7720434010717606 0.4320738862540946 0.1639397082111757
Ni 8.754038079897313 1.844468630877235 6.930076125448746 0.6862667716255729 -0.5138863888462117 -0.6220305873543223
Ni 5.423884129174648 6.458535792359671 11.708262591464548 -0.2847219071982709 -1.3801170120253585 0.05781511123625527
Ni 6.760697437528286 3.4792951030618635 11.586488422947241 -1.3794485252034243 0.5246803941379221 -1.508075417045919
Ni 2.954544696368459 5.892560432418554 6.271504249064948 1.0019717574689195 -1.1922390478310305 -0.13493740744155472
Ni 0.5822240425494216 9.021480555750376 1.136016602821859 0.4281758367512691 -0.8413174048772349 0.8858288570260485
Ni 0.7413503203274352 1.7779258765354762 10.433214323375243 1.0048547354436694 0.2335268723816946 -0.5257368604268946
Ni 1.4638385076110505 2.213488574829397 4.35250123682173 0.1597848055025377 -0.021032909410899258 0.45383724607311515
Ni 1.1861872409942598 2.264430440740403 1.9000146614226823 -1.1930078076762551 -0.19013719254214995 1.4544141800770372
Ni 7.077652548585433 7.483275647784999 8.683717144901088 -0.5479740745585402 1.2234540399812543 -0.6892322820118001
Ni 5.936281899043941 6.718637219581724 1.3239576565664406 -0.6941842267004368 0.1624250713388622 -1.5553726594699857
P 9.001174342849431 3.4400562236536416 12.338648924621577 0.105581837097573 -0.5989153414930976 0.18347289314809695
P 5.910147394688797 3.692009179702464 8.97704725798719 -0.06056233496408924 -0.974289975282935 -0.5944521635154214
P 6.580642210612741 0.6707945831436438 7.609633563355219 0.6881727303990341 -0.4250684014705389 -0.7699962887347449
P 8.860692101221648 9.191995203661271 10.33345958846341 -0.02748740678699137 1.040092475600041 -0.07613319281915275
P 1.414279468812586 6.268021195270742 9.064537522904232 0.7091812143299012 0.529674504918404 -0.07355591901027977
P 0.5729062007978002 7.182255531038146 12.89995051453668 0.8075449364124802 1.231843035375898 -0.49428686944772937
P 1.4823999453632843 4.461018826496391 3.0089659037861214 -0.126516273257395 -1.4858549150848217 -1.07988363945505
P 6.206174484680298 1.3452216396553995 3.8852495239253084 -0.8555844563192103 -0.48323318273672905 0.4471053266659203
