# total energy = -340864.3188699521 ev
CRYSTAL
PRIMVEC
9.34555569065471 0.00000000000000 0.00000000000000
0.00000000000000 9.34555569065471 0.00000000000000
0.00000000000000 0.00000000000000 13.67816541651788
PRIMCOORD
 96 1
Ni 7.497649693589396 1.0285438329629688 2.6963900350245056 0.48807482709974653 -1.0999274454798025 -0.7880600882149912
Ni 6.328361790513464 5.757395059865957 6.939398526142135 0.14430316492717082 -0.6765683133908863 0.8996035422126378
Ni 2.777611325791089 8.502857673758735 11.36395658759412 1.012873749093404 -0.3679166348498954 1.2734293434581165
Ni 1.7419181426530594 6.895207131060053 1.486434011397209 0.3471228380329957 -0.87824975912721 0.26693732952134025
Ni 5.344994374212252 3.229730623528466 12.748351148159434 -0.2061176271308063 0.4741137369339641 -1.0988858915891655
Ni 6.555673743857261 3.422305146021674 10.44924349319622 -0.7407127092792792 0.4852090755161773 -0.06516229562994584
Ni 4.008000472585384 0.9903205098048005 12.160654938102285 -1.3093198867071385 0.09304822340693651 0.3436713891492856
Ni 7.80923986899685 8.718263389033215 11.928276758967767 0.49396753843509766 -0.16729808316044736 0.7496364941314702
Ni 8.35343158232207 1.3173495433680737 10.72082347517953 1.1967101962285067 0.9869742556188228 -0.27031601618558604
Ni 3.0614265094073283 3.6563832817533717 13.343570530623017 -1.004278294114909 0.23455994163189925 0.8481603959409973
Ni 4.9586584436412195 9.076571997806852 4.223161334298313 -1.019144412593464 -0.1350086269991223 -1.3602269579696509
Ni 5.280444620409448 6.532281817728926 2.317491297746693 -0.08392877760417158 -0.032829387825195074 0.02781702221226822
Ni 4.27091899346772 4.444624838832237 3.579179645418499 1.5669793904709788 -0.6867678796317075 -0.6289951915976134
Ni 1.1638020618304925 8.425569927421803 13.410949184161758 -1.010196459371557 -1.141679075495292 -1.6184814150050126
Ni 4.515744518351469 1.2426785526507718 6.22534385999094 -1.1882065296328699 -1.3487192144403677 1.3417463826669602
Ni 7.668953731117323 2.555542229242337 8.47008094051171 0.644234120034555 0.05100631584453796 -0.6779240560878325
Ni 3.7151107543024993 2.3640424456643343 4.4556348381018305 -0.8372712598323192 0.13125404505269653 0.08407404493278424
Ni 7.006494009340607 8.234350510517332 7.087067653091332 -0.06128507206272671 -0.37253022236250677 2.04401081527237
Ni 5.060422200577478 4.526847038623329 8.945697769157787 -0.28849782930093537 -0.9505558648907888 -1.1084725068363361
Ni 9.098683582792727 6.40844385802993 3.0281133412582797 0.4508982180494493 1.6649628463960036 -0.5972958036118036
Ni -0.05059029712765603 9.246651767527025 4.122065784600639 3.0446414853323627 -4.600202092443439 -1.6761324898595777
Ni 1.8616160211395683 2.583307875477769 11.356542758190363 1.671185687377264 -0.8387887249181102 -0.2007962149178929
Ni 2.0727321263090124 9.314659376970054 2.180655539062764 1.5158468334612216 -0.09750548784734175 0.4645638884619999
Ni 5.3002945808955 7.952011924715026 11.894998169375121 0.033830318285883676 0.5129325095733747 0.17163733396574957
P 7.576012178841533 8.180940659209524 3.1417244592624134 -0.47464132730266 -0.8568820920847113 0.014763274352103607
P 3.50106949017254 4.73076706583879 5.53688012924415 -0.5022002107575352 -0.6883491080758983 0.9997516098891491
P 7.5516763515789735 1.3476291441095078 6.619124460299821 -0.1682167383199748 -0.22541632745941825 0.7909371526524701
P 3.9692351071917207 6.436237540932715 9.52065972490312 -1.0999238459353766 -1.2489956358957843 1.1144297528610356
P 1.232968520190787 1.7271334734021493 3.523933392399058 0.8822280270486677 0.2918315216598587 1.060039351035613
P 1.944043823157917 -0.13072002697862228 7.560387344125606 -0.5671820149455586 1.3353546202080036 -0.008998089733552246
P 3.594020388004116 5.130915727859156 1.4465340955313204 -1.221345992499316 1.0171551500775773 -0.17496948366277607
P 8.196173915138086 0.3208123698554949 0.40471396602104226 -1.0288829800374668 -0.04989919882328826 -0.6794754597353523
Ni 6.088181006854557 1.851270490886245 4.684908423604772 0.8750507925739381 1.2579857552095366 -0.7010683554147797
Ni 7.466014987259225 3.495312627809354 0.6940243364385044 0.30499865516943603 -1.393151990832446 -0.4241631160474501
Ni 6.278961182637161 1.3105366332012511 -0.26024475737242064 1.3966083248121623 -0.6447198014217219 4.424622228890173
Ni 3.294813074010981 1.846233236318457 8.350424182470654 -0.7704488028911312 0.29975103361725147 -0.13067683239298786
Ni 8.726132347003674 3.058688261562501 2.904408088451423 0.1859655776629636 2.5284472742885806 0.0637996109544643
Ni 1.7924589083350582 1.8320093004146105 6.043218603420263 -0.025550337665278578 -0.7960770449821967 0.18496181898879757
Ni 0.8922155379581322 1.6823402245275525 9.190673757489666 0.6450216489328569 0.43281487818517717 -0.3472871315250019
Ni 2.156617835029726 7.713737634436137 9.29562621805956 2.8030408348035984 -0.2887878497375284 -3.5990536022067623
Ni 7.574012229903673 6.9160757571266025 13.345512537115017 0.32144394520965286 0.14056838047508693 0.26584949577380024
Ni 5.226632910202912 3.6728688421570412 1.5798148047948661 -0.0918770859169708 -0.3781516823143423 -0.7374494651469752
Ni 3.081837203240443 2.292427451688529 2.1747323258066156 -1.8497045789541953 1.044713262201504 0.4832941178816515
Ni 5.395273464332288 7.5742178321309295 8.592336697616409 1.0681704647831798 1.305997250091809 0.0030084478090206257
Ni 6.913655258178445 6.528487522080462 4.732070770870712 0.2380532994971384 0.08391515075741676 -0.6215657319027619
Ni 3.624234569855059 4.5956209836406785 11.052381365075922 0.31524115883305065 -0.3134205606845441 -0.5155465501574541
Ni 0.21140207917644616 3.4457718365962853 12.582886213885592 -0.6716539068084045 0.11496276409184071 2.276716991524982
Ni 5.904568872358582 6.03107031545613 10.605994631256692 0.16239678920408807 0.35285974051677294 -0.01789050712717564
Ni 6.059125673920879 1.22491265110464 11.375254429981876 0.8948326031865557 -0.21921148420028702 -3.6902125790107867
Ni 9.147476729543044 4.115259416322865 7.225792148599288 0.5950802840177235 0.15196993744380924 0.9882256115274208
Ni 5.100103430438011 5.466654819413484 12.966176427826491 -0.6024691202826269 1.6355406844801443 -0.9026112186907099
Ni 9.376769940713132 8.710132755500792 6.4888810566662025 0.4853327455782352 0.7008053315613801 -0.0032156787238202685
Ni 7.060062735096749 8.988574244541006 5.110313450132461 1.0550159296790926 1.0354061258679652 -1.6589958301792915
Ni 0.8983079057739781 3.892947335323718 4.767374542401837 -0.0628164211055886 -1.317368725153544 1.4450137126987437
Ni 8.966873864009644 4.066382159570488 10.126424632513817 -0.12939256636392554 -1.5431072118390714 -1.7457970442352513
Ni 2.692931244828702 8.571332560990983 5.233909359936639 -0.2239644255042401 1.137962031655021 1.6523320450058705
P 4.077550098732838 1.7430302637914024 0.4545407312411134 1.3942539656473731 0.2640890614392678 -0.36845219563839127
P 4.509211974858179 2.4699836660362164 10.438874599053435 -0.7650733975118308 0.4220049320538668 -1.0313772072142302
P 7.593778080387665 2.7732562967955623 12.152708412018816 -0.2563988918838616 0.3693896198509961 1.2090080397592533
P 4.405541724541904 8.61665850654529 2.210856637135609 -0.7336941118696009 -0.4013183502387927 -0.9345240082389068
P 0.8922267526250736 6.054191220466719 8.469383762050194 -0.4023326504359199 0.2791325860359515 -0.978107292146496
P 8.874259406186306 5.511934037188869 4.79753452002923 -0.3657553655325185 -1.1135494071386112 3.181095329418444
P 6.669614759980584 3.622253312028768 3.266646503432398 -0.8095110589999156 -1.1559322429801964 0.8828060110393249
P 1.665387386334663 7.34570964764673 3.867925544266584 -1.3028029115242272 -0.023536649669359463 -1.2869975690608546
Ni 3.5491897569063813 8.034019176723078 13.844082050767561 0.7676324164882586 0.6938420128696695 0.27745931209858665
Ni 0.6896590273316142 7.734148328269251 10.691688705021686 -3.705637912426921 -0.0846851961542219 2.565259558020924
Ni 8.534333505640571 6.415817501543816 6.853267080366431 1.3452024595363605 -0.19165440051762478 -1.281926068075218
Ni 5.332826460580972 3.455313649052151 6.534223824220922 -1.2742047881715604 0.7071688118855628 0.3493774383951273
Ni 3.604655630486755 6.51402060172622 4.195284475949046 0.5083207218329762 1.5418738536526024 0.9066591635078385
Ni 8.653853818567177 1.683087868990304 4.769207205891156 -0.8024747209784244 3.3800323796404115 2.6055888537675904
Ni 8.872446368364134 5.3036029076431745 1.048625563232473 0.5469518039416128 -0.2895093012845853 -0.6111843886684377
Ni 0.35739367886234547 1.6206408652389883 1.4611832542233567 -0.5594802754259268 -0.9078544693675203 -0.6522125102543412
Ni 5.299425444207551 1.3227886568345906 2.435985468648172 -0.9875743510966669 0.17762517611806827 -1.040910343515646
Ni 1.6594716495231423 6.172459228918216 6.08072418789419 -0.3753628067152955 0.487092151471503 -0.7703837539811507
Ni 1.2566034307695175 5.112224616290369 11.339896454227201 0.3753250114988245 1.0177753001600796 -0.6176936505418652
Ni 5.992790918963255 8.577762303370646 0.6022304184130369 0.1694999759077726 -0.8883439101384184 0.9002056945730109
Ni 7.829258049487022 5.176568767865917 11.732993894408244 0.0871251730542822 0.2385119843011118 1.154695542359618
Ni 1.9587724190741207 1.1885584391033501 13.57005353316874 1.0483614004770527 1.0230226646019478 -0.5943444342929635
Ni 8.1570627641804 6.837797381876524 9.106347873091508 -0.2375959002447456 0.22611875284308153 1.0976160237378065
Ni 7.546769934792167 3.5742265008527707 5.7376488350491135 -0.29935662639231025 0.8583759030214185 -1.0585475969814349
Ni 2.174682794360958 4.324403609221802 7.450934063889949 0.6433121224409178 -0.9674454415572756 0.4721211319839676
Ni 9.31196785690415 8.46627916841862 1.7235989842044919 -1.4093357996811597 -0.5198387497749046 0.472533794041354
Ni 4.380084430585217 0.23877895029124777 9.805165545091826 -0.4556974392103055 -0.9659287478024333 0.615207908005534
Ni 2.7115943197301355 6.028425523169147 12.8482289719384 0.1422766214154453 0.8355843590481998 0.9309360337773323
Ni 4.014177884958868 6.036350554474312 7.267770516071625 -0.5147142840641458 0.5888384168730698 -0.6289990482523554
Ni 8.600341166145741 0.043577392067047326 8.753807341347997 -0.9270914632202614 -0.7928240852625378 -0.46131684227961195
Ni 5.631136601218805 1.3928149063270494 8.288503333509999 1.1922341627350241 0.18277560997075618 -0.3290667518622333
Ni 1.983612906349038 4.952864199054896 3.0747149551771567 -0.20451917229543484 0.4898234343597371 -1.6343353513181336
P 7.317420650287372 4.807737063279053 8.900505465051197 -0.9288948349775874 0.2936192096879008 -0.9035681832873407
P 4.885613579630401 8.42784089747741 6.168976140277373 0.009471944046177235 -1.4968870045292673 1.9362990763159877
P 0.9842552441007292 3.6255336021090896 1.0680474972635992 0.3387397561756231 0.40692772600577015 0.014714423392039174
P 6.677726702401437 8.988032202305511 10.118039799864059 0.11009592291784265 -1.3751419274082703 -1.917924173353226
P 1.739488298149117 3.8026692664464794 9.595998922859007 0.4359971325679008 -0.5397465444424252 -1.3183629707460134
P 0.4381149823944638 6.248821765232494 12.960759743693858 -0.41273713359869557 0.9067656071787157 0.19171147900780533
P 6.475526257450305 5.442926453276909 0.8224397493606953 1.700773942557342 0.32127245262879506 0.6181402511609806
P 1.1106819227520013 0.5308724272213022 11.47990689821109 -0.6852493861046521 -0.1414816363179757 -0.19450781080601984
