# total energy = -340890.4013724149 ev
CRYSTAL
PRIMVEC
9.09438006855449 0.00000000000000 0.00000000000000

0.00000000000000 9.09438006855449 0.00000000000000

0.00000000000000 0.00000000000000 13.31054450435419

PRIMCOORD
 96 1
Ni 6.809035236923956 1.8683585698415062 11.299707418974355 -1.6877592754652289 0.10354603761446683 1.4015312160350766
Ni 4.5794569785317965 0.24363298986527543 5.700400274832844 -0.4485250898315824 0.7047830852622056 -0.08134636158897604
Ni 2.631140617664903 1.6789317239284278 4.595785028805565 0.18549815110824183 -0.560758370807402 0.41168478107478135
Ni 3.035167553981309 4.487703776341722 5.001237963942807 0.19927566450830841 -2.5318187618639754 -0.08270776071287692
Ni 5.3707135308707175 4.806161689027797 2.690873416485859 -0.17785374718910657 -0.29368117327408777 0.28064259492257476
Ni 7.2689016678827505 6.433964807275525 2.856948622269742 0.8243699783896189 -1.3826400355575283 -0.23678240320451477
Ni 5.189662609153997 4.688989694081132 11.334487966744769 -0.6259754309346832 0.3542550782024028 1.4926855648534099
Ni 5.865466004410651 7.819866505654703 12.57376642922453 -1.2799913129463503 0.11630950792772227 -1.0749892874772262
Ni 1.8174846068073824 6.333071752949359 0.2401198307805271 0.920580401574621 1.3899108581873287 0.5706661168394171
Ni 3.017251624918523 1.6873985919271353 0.510152897029742 0.17449100136446077 0.0828003204266832 0.553510173885421
Ni 0.46842242388380356 0.07805888443233636 4.804348269608956 0.3765190318069257 0.8135374065504892 -0.2910591622702084
Ni 8.56738818344391 2.2023496839688192 1.3265444974619254 0.9676701559735721 1.1161554773028906 -0.12811909896814067
Ni 6.784407655247802 0.5279014894962053 4.555546943456177 -0.0849829299002988 0.7630602237365439 0.0928906147831497
Ni 0.8460274573037062 7.503072864551617 2.487701324285728 0.314110130552401 -1.5971232610442105 0.12620002756855686
Ni 7.649874350303643 4.13020368930715 3.9315487757697016 0.24753064285995433 -0.34975024835351376 -0.47297628089541116
Ni 7.672146487498953 3.911265579531767 12.73632756648564 -0.16041806821116245 -0.21664809434848495 -0.21325835194064563
Ni 7.937211293825833 -0.1596654865943137 6.612918564910073 -0.17190087203978138 0.4407451887758474 1.6165615722744804
Ni 6.887774380997864 0.4389702734930261 0.36888443221264117 0.48014091696465044 1.718326092508492 0.27932439033178347
Ni 1.7073243790218375 6.720137670127645 9.10149749688847 0.8690706637311033 -0.14311557237697287 1.1484045671445833
Ni 0.22127081830563894 4.945051063975445 1.2266336362011314 -1.0918791212540293 -0.874834305687758 1.1004336956922598
Ni 6.438866678222144 1.9443239279437647 6.863063131023549 0.16549496851343753 0.5201400830654074 0.4293729423831638
Ni 3.503609985501629 4.373205529184122 0.3321922457168465 -0.9600679181462819 0.08290830675945722 -0.1734867284696625
Ni 6.076837589830584 5.7311965746223414 4.9723533028786875 -0.8533488821204723 0.49613060752468746 -0.617807036191278
Ni 5.383591173283358 2.8635656933286673 9.396525557775329 0.33696132411896157 1.0478500080582729 0.5488647046936095
P 0.0807280850312844 5.651256972357425 12.336239406248977 0.8557199534558102 -0.568090385692441 -0.20404428954154535
P 3.884509912880642 6.266655494093763 12.544909051301115 -0.12320700637850396 -0.5532648906438342 0.3762891751843068
P 2.4494712780922088 8.661942454746338 1.2973415330895848 0.3843539544703123 -0.5452075675569965 0.275648484142093
P 6.211143397139833 7.835608877841344 5.733331025663477 1.4007449726883552 0.06367028446545163 -0.027162419347404834
P 4.895959599467364 1.4290636269740935 12.646308662606366 0.5322165546139672 -1.341798318950818 -0.2527029310895132
P 3.8725689916321966 6.288100042687697 8.342104015140603 0.5060794912072833 0.21482081133175907 -0.865555194378677
P 4.67725794357809 1.3198128372120401 3.7203772667149373 0.4127314771717408 -0.12289616000630448 -0.07348058568765409
P 0.20647335222540608 5.7321060126458345 3.6982815604961843 0.4239121763789086 -0.6638027861951019 -1.1826454906053245
Ni 1.212471867299319 0.7461638868201338 2.5770017721264447 0.05719007605774667 1.81252051370473 -0.18565910216613832
Ni 1.896960395680319 6.660160232478371 4.884610722372212 0.14860847717074405 -0.2117401155239063 0.04715711730177685
Ni 6.039978066738466 5.439230591560579 9.311777756680213 -0.10232604916443667 1.7183158080958472 -0.6498702352744097
Ni 8.879034405334034 2.230942415427397 10.416166552639641 0.9941337494817395 0.9970491233563216 -0.692055353282892
Ni 2.466013955739522 5.232469856919749 7.058129402120299 -0.7214713445511639 0.27358003164883854 1.211314833515559
Ni 0.3924125033183939 9.112568995386457 9.535248505564677 0.9943116698205007 0.045156284821664165 -0.3957362281653249
Ni 1.6463920314478961 0.9953981054720943 12.015282357874346 0.4885445676473134 0.029945381409180686 -1.459394664010764
Ni 4.0348400181638135 6.930545251242677 1.5910627315366868 -0.6090930533570478 -0.18524926832222935 -0.11753129614996533
Ni 5.546225975024373 7.7985947502852335 8.052493476559683 0.3620900008657893 0.6956788089680922 0.8942402210181953
Ni 5.272648828797611 3.1324319505937424 5.010488767517764 -0.03574476169977715 -0.024178397018416425 -0.746734747103643
Ni 0.7633195256952805 7.446369403786912 7.13640837055432 0.04195886093028902 0.6483152320824641 -0.9776095265744713
Ni 4.987967444304016 4.403926345617671 7.255511102424858 0.18495539123089438 0.2557401752539402 -0.34387064964428515
Ni 8.102092407484871 7.138433689032635 9.052501523372856 0.06646173116765973 0.5689545334649492 1.2427853933200144
Ni 4.696592595957522 0.38245233808511325 10.58553028631647 0.09237510859931188 0.3699884297772596 -0.20039332305251942
Ni 8.497388738775756 7.218982614773292 5.0175832935390225 -1.5003880757039902 -0.7382069121382899 -0.3695742250579764
Ni 7.245492733158074 6.407800275339669 7.081409196645638 0.39097814465504926 -1.669454820729086 -0.85317636109835
Ni 2.3523432971832987 5.288272974041198 2.6802775540741575 -1.5732713941272776 -0.3772623377308535 -1.0021373365125064
Ni 2.2354714167843857 5.4809647024586114 11.275256268274758 -0.13951088574485004 -1.455037929703965 0.2474774210245157
Ni 0.8846403769051152 3.09883731000596 3.7034326174612406 0.3018148581248157 1.030526943398793 -0.44217652190573525
Ni 3.7265496225803756 3.0898520623338626 2.648226229812241 -0.5176687387067794 -0.6027596549398522 0.37833217375626454
Ni 1.1155803402765174 3.344694785276696 8.301467595936925 -0.18481398055702364 -0.44190321363969054 -0.398579611151391
Ni 3.6977750035170995 2.1664268820408985 6.782148611197448 -0.4179461886034608 0.9244206012563175 0.691969478437305
Ni 4.278724012923574 7.036203760811938 6.160040255723788 -1.806091984470567 -1.6433840917839633 -0.5319856695500838
Ni 0.9422596417594765 7.4548999324472645 11.444073429699468 -0.2557288624000305 0.9846031842834849 -0.40153689400750203
P 0.17427560844170725 5.500499431203212 7.90742174192834 0.14351923557329477 0.8751299825513057 -0.6928768207429228
P 8.53792239148278 1.7199110012669623 8.16337034150774 0.07993174062963654 -0.9711671133832371 -0.4938400117182979
P 1.8553354173451055 3.244802112776372 10.450295033347214 0.020038920928746134 0.6291435442500197 0.06337795003601343
P 3.936457012782486 5.939430598861228 3.894212707153275 1.500521773068377 2.553468736033583 -0.08900156414138866
P 7.060858625628797 3.9544002249859767 10.559561283555666 0.448334313977015 -0.19437668454479426 -0.21574152337381555
P 6.318084214322217 7.847395194625796 10.257625131442364 0.15687483094459434 -1.2916162987797883 0.3617791544935898
P 2.3607192213796573 8.607157908211201 5.729510476526789 0.7339129127486264 0.3294462466888391 0.8726527246554068
P 7.05886695635735 4.148583431761916 1.4985810694897963 0.6517638527526969 -0.3221569121162774 0.9848206996109298
Ni 5.338792256246159 2.9801192704193586 0.7227785974840691 0.35376425460891336 -0.11511908716404691 -0.40505493446308954
Ni 1.3386563930587874 0.8707186996415048 7.1513959091814625 -0.171356312390221 1.1233273124609813 0.16011210693496944
Ni 6.969769313195872 0.512006331721618 9.175224728014916 0.2556715267995338 0.5472209984425995 -0.2569200544946543
Ni 2.898633623514506 1.6720836556115355 9.228533256637927 -0.04620400935988817 -0.29364569205046204 -0.2101329189377865
Ni 6.589378671110014 2.11500725619268 2.5751774394513203 -1.36960248564728 0.20069645611523498 0.7954101008221591
Ni 4.1678635178599395 7.040305326297886 10.483651401172839 -0.07162913430121212 0.32271047062690233 -0.35962328449285164
Ni 8.01613232550444 6.938320946343531 0.40684892250330057 0.4473554950035134 0.47877488985505934 0.780497702486701
Ni 7.5188607086394335 3.826724220867982 8.342290449935419 0.7962099710156353 -0.4043116285391618 -0.7026020184504868
Ni 3.5992373936717774 8.441367356528671 12.793017385679994 -1.089141410607892 0.8154019705630539 -0.6286858878873108
Ni 0.1273795273223362 4.962048460634504 9.8669869417078 -0.5030234779897789 -0.6880588305289892 2.854601994710342
Ni 8.548471872555284 2.2918656686211034 5.8276624846501495 0.5894991903855202 0.592917986259082 -0.36385146364158627
Ni 3.831116806521447 2.854789616401973 11.278197390842731 -0.9144048688915285 -1.0688512929002882 1.0826964263134966
Ni 0.9200238820851054 3.34865993505912 12.502701123192844 0.9262658819951723 0.4036935353391886 0.29452038134593145
Ni 3.1829057608975297 8.426534422365522 8.053319246285012 -0.3002925079430183 0.7351735246286049 0.04852880083832287
Ni 5.363256139078085 7.867639285028721 3.555046890672294 0.38551994975395537 -0.9674464699985403 1.107506029158009
Ni 3.0053652699514872 8.302678057946192 3.5182301111672816 0.17657925135205718 0.5840114277980717 -0.1752088533670918
Ni 3.599792150866108 4.554556565448594 9.511728619401136 -0.6991130314606219 -0.5900087830320871 -0.8053096193240582
Ni 7.132977060891686 6.138115523853451 11.703988997937339 0.996404033573155 -0.8589901395666496 -2.563933383010333
Ni 0.44981805023723465 8.733569793476542 0.34099924353633976 0.051141812981137735 0.15232320701816993 0.055448153665975476
Ni 4.941313273698894 0.21452733536144825 1.7775566398240048 -1.1356992037627733 1.6215970778158588 -0.5559900028844812
Ni 5.6946826379791515 5.538723111330567 0.332304106593736 0.6903360565989402 0.02941033484131709 0.1419385213497362
Ni 7.885118683840231 8.77624062553877 11.53246898670681 0.9167067775518277 -0.40719537784486004 -0.22412074857644626
Ni 0.3101720228540429 4.931545909326593 5.787358010325046 -1.0407378224935238 -0.3832414381324239 -0.02643788247655447
Ni 7.961256835166952 8.667962934461853 2.5111802857382117 -0.6849429106078269 1.2340863228841197 -0.13116071400794185
P 8.426370723521293 1.601584020030462 3.5456232938728736 0.19288184516682264 -0.27717340542705166 0.44968979956364485
P 1.8156475419999294 3.361392067388003 1.465104655845068 0.1296555902173251 -0.31997790218708766 0.27484321463197825
P 5.07812912995298 1.1910636962263255 8.298432801252533 -2.145481201304731 -2.1256592814827973 -0.8985015673977107
P 8.74792072548724 1.4578473404176047 12.63108103234102 -1.4450399379509888 -0.03115482833624957 -0.6217827330095743
P 6.166417235144512 7.554137809570674 1.3669262740190258 0.39991812745715644 0.2893776608027274 1.2350772260424794
P 1.523463293812528 3.1658447035768256 6.086166605075561 1.7768215176412239 -1.4550487283372424 -0.3377588803195925
P 7.0196883663053296 4.215472598389728 6.123117071970028 -0.47839359525624053 -1.0977605197354707 0.1785338039752667
P 2.487049257222884 8.869585344269955 10.39010478720044 0.10450454487299421 -0.9440879977782578 -0.6553415428016262
