# total energy = -340861.42145009834 ev
CRYSTAL
PRIMVEC
9.32610439534383 0.00000000000000 0.00000000000000

0.00000000000000 9.32610439534383 0.00000000000000

0.00000000000000 0.00000000000000 13.64969647966739

PRIMCOORD
 96 1
Ni 8.774073523519647 1.2760628714919757 4.622292405491111 1.6437921258556594 -0.5057635026287612 0.7108346907729242
Ni 5.880397863175447 4.367200137938038 6.235126498505871 -0.6768403361053504 0.9807871529715044 0.3685892354368878
Ni 2.3936938833297483 0.502563242681527 1.8975264829693215 0.8145560776229906 -0.04113276548456787 -0.9785762613631147
Ni 6.832294675701068 6.786690025729968 11.880804968946626 0.08835261770348009 1.0887007235260475 -0.3358107554542862
Ni 4.442237973043861 8.693234851546334 7.9483411824202115 0.5382337073423247 -1.6633535929273549 -0.14835059552366708
Ni 1.7276421672487559 2.569863993340809 13.078920260794744 1.3456655152157082 -0.23216855858158725 0.1442589419527967
Ni 2.950975245093165 6.612040070717943 8.378811773730245 0.2741176493198634 2.6510256459441504 -0.08882647201610509
Ni 6.628705819081614 -0.03577680127180686 11.786881772656448 1.4665978666274226 1.139881617275237 -1.0539028991205721
Ni 0.06758814300011434 1.0687995297828272 12.452768416691535 -0.24499244981913287 -1.190404308615137 -0.8346680178815173
Ni 5.765360366775954 1.343891627982735 8.614377976734342 0.19621450908448143 -2.2900638451455335 -0.5746166168467329
Ni 1.3512126198492616 0.004337571104613255 4.2021542051223815 3.4510796732962246 -0.18543027398478387 0.2312797282187307
Ni 1.1483232210514516 6.479115106292975 11.850093174913939 -0.3766352456698159 0.7964804510682024 0.5651793826932332
Ni 3.6227065586858953 3.508713585966721 7.192339190475975 0.6243852036294278 1.5747515782172299 -0.03823590355274705
Ni 5.382253328705844 3.4708962330765756 8.837045244896919 -0.3952952839731644 2.7065362774169452 0.6069281844952451
Ni 8.10524262836066 7.0395859957230815 3.741409214070796 1.0135059833607643 0.013128824072474165 -0.23759410047253274
Ni 6.111694575636237 1.1592813935905197 1.3197594005256352 -2.131000234079736 1.5667323074571793 0.6240607304104737
Ni 6.170766120200031 3.3088924754798503 3.171165499956698 -1.191752080892283 -1.082861234026135 0.3659469127180343
Ni 3.0415130655265887 7.667783054496774 3.4563353864508337 -1.3877529313040617 1.945130558564689 -0.46528225468526324
Ni 8.075958660894557 0.964692227609536 6.940310548181698 -1.7938640749458072 1.3734933360612538 -0.14995470678599337
Ni 0.9449861692477904 5.112290587864649 10.026206544017585 0.36963541731321503 0.775297132122368 -2.107385937094906
Ni 5.403358302710875 8.37009466405172 13.289590428400507 -1.721001068237494 -0.996630290651348 1.5279243334510462
Ni 7.695472258129534 7.005666954425557 0.9400424013644202 -0.2325061444266641 -0.7231834421462642 -1.783675821558896
Ni 5.961768123093209 2.2169175765399305 10.935959623873591 -0.46279471237671915 -0.7732582473154683 -2.698159623317476
Ni 8.135384597421314 2.667452348616391 2.3981834699342652 1.174908526972383 -0.013216755800590143 2.341910140392864
P 8.425911398218803 0.9577163016016866 9.54579186641098 -1.1004236683899307 -1.0466567590811198 -0.39820705830332065
P 1.0670555482808648 6.207026013673985 2.9689727611492445 -0.9335320766392825 0.04699873734704164 -0.3099446863208017
P 5.837087434859335 7.2440421800413715 6.168515731235199 -1.3895817569826843 -0.5325004044029732 0.9560657389654245
P 3.9708966622996043 1.4784393345539144 10.009649911074089 0.3571938491157526 0.08842717969515738 0.2620902858416841
P 2.1524648698016327 9.02716534170282 8.41599308630791 0.5075172520950744 -1.4103652693869386 -0.33338491962161293
P 3.575842884635838 0.44168709693789543 5.258995803986406 0.08848991461229277 0.1331821153133448 -0.8044662974871565
P 0.3420283465102514 8.311834490561033 5.539469996971246 -1.9489555887377337 -1.737494695017143 2.233956974849636
P 8.173351167980078 5.167221342124318 10.636266195170869 -1.6405093413393295 0.4052981608221472 1.1808542030328566
Ni 4.653045234382666 3.1940974577918597 4.76884933655468 -1.5951877345843948 -0.987878769710963 0.35958651771764527
Ni 7.414085039534842 8.44893754970728 5.579900524283049 1.228112621799188 0.47498919756038194 0.09848276415894652
Ni 3.8411145950198833 2.4670809979764945 0.998675619026651 0.29727531838324933 0.5691969884930584 0.8902033319446604
Ni 5.602675803566163 7.8109760597434565 4.045851495077258 -0.4396429568506041 2.5919216406931427 1.05796549922572
Ni 1.7429742826991628 3.157063497661954 8.780112176046496 -0.0959168032039832 -1.1311604353521552 -0.4113399961408528
Ni 2.3251097123916145 2.2282208149376754 5.628820604328736 1.4096582160175852 0.03885991028999114 -1.23745343958414
Ni 8.149756124129999 2.3309851580934127 13.902625106821844 -3.6842553329860874 2.832971818035076 -3.300225851734729
Ni 1.6559990341039719 6.437613942208844 5.07858791218662 -1.3094669538079642 -1.431161894417316 -0.4189239791356979
Ni 2.1406860000851706 0.845655697691104 11.26338795412009 -0.09453380681352752 0.05241785148008392 -0.23647104261168309
Ni 8.660770682517827 7.345258389885206 10.56199869627928 -0.20416333161791292 0.3333959753652065 -1.1106240059617003
Ni 1.2394206077421897 1.9554788950184867 3.2066000332011146 -0.24716477488010338 2.258055667670053 -0.14549024325673654
Ni 5.604569002736743 0.9171057804771146 5.815985258685591 -0.35053237793517694 0.2269870143806478 0.9856341966511607
Ni 2.8018788158318184 7.909245220632104 6.086249232695306 1.313305610827764 1.935231554283422 1.7306776720953099
Ni 9.235687707490927 9.152480205028318 2.437699106415359 -1.0071720707229366 0.2767795124227427 0.3902456373643989
Ni 1.1606896353380936 8.265278577952499 0.6581599666320055 -0.5955646798533097 -1.0367006763096727 -0.9544996800298851
Ni 4.119890504413776 5.9679886346536835 4.30286214228249 1.8312247749824526 -0.5084721598091759 -0.6344950383699202
Ni 4.126027081035654 1.2267371059097363 12.539675584725419 1.0281509869674486 0.3432852094544604 0.15101065885433348
Ni 3.217366087991838 6.677714497118043 13.04015537570888 0.8393479398556899 0.2666460235331666 0.4918942008458367
Ni 3.367059387927653 1.4191159851743294 7.841149737558691 0.1388367424959609 -0.621660091388781 0.11643292087946401
Ni 0.12231092513414833 3.936735142290577 11.914546814262666 0.2814326949240379 -0.7868241589253611 0.24803175086608897
Ni 4.480530957252723 1.1585912618731655 3.1968272085171234 -0.7832557248478124 -0.13824744565139416 0.7923067793064871
Ni 8.002944590419352 3.15565525591438 9.678917342078151 -0.278727637288049 0.23147410361772391 0.1136558723549591
Ni 6.803682187743739 0.8927273438667963 3.834159186441469 -0.9527485016667335 -0.27172883737271264 -1.8553592061368112
Ni 7.660415432108804 4.897855471957591 12.929279187042944 -0.44425140215689296 -0.5836586724443432 0.6605284863192044
P 6.0011149570866795 2.6633208844165552 12.822552182174995 0.36198715673933785 0.3360827781687502 4.060447320470898
P 6.97509598456763 8.405300707741068 2.2619048384071276 -0.8705449342837847 1.6696090869187634 2.133885011826699
P 3.3842007676100416 4.762962699527734 9.151029063201015 0.5257826260631654 -2.4448416843517826 -1.0812807769128927
P 4.380461858236382 4.490444606111471 2.501539088101898 -0.5577236977461363 -0.6609208366616165 -0.2784301606522882
P 2.858963900182147 8.8605078580661 13.165896442000363 1.1564060972928214 0.5052505675480847 -0.33497154738244245
P 8.881071918022394 8.213556003568097 12.663450708232872 -0.060774193864579204 -0.9102342824536066 -0.5621627073540963
P 1.9789993300342568 4.7707966271301325 12.845592322819904 1.2816692148694055 -0.5523696325230745 1.0466518739851136
P 0.3994948685259822 1.686971026446308 1.2040112549793525 3.298419137543293 -1.8482956144218103 0.8104114593269978
Ni 8.90697050963175 6.178133742588001 6.3751178521502885 0.28571795256295307 1.5854555948982956 -0.9584789763926074
Ni 1.6425321395112789 5.044676331772526 7.478777427153355 -1.1783967426312996 0.01802806114630444 -1.6167780591606609
Ni 3.534677460306096 6.108122677693715 10.748712899798997 -1.9748751368169732 -0.422891191313562 0.8375126864191641
Ni 0.43306604613354266 5.943311762706131 0.37382569908212604 0.9492636284419264 -0.4267324194365232 -0.15430115668014716
Ni 7.718768866642379 0.03450751847813267 14.148183297960712 1.9873089917049518 -1.0331651523525884 -1.8787130503714031
Ni 8.886443754092609 8.575959090117584 8.126291645739961 1.1485688606365896 -1.4511097982941523 0.7255552848125504
Ni 2.5102235564154127 3.9348792475371517 3.8317427928203007 1.4849306034983394 0.2500099576383823 -1.2661289531419615
Ni 5.889649358629707 6.2016541776037695 2.654088041170872 1.8515711998492885 -2.356296233911207 -0.5226430519929193
Ni 3.937994166369534 8.563368849328016 10.864202712256487 0.17359060103737844 0.7451828292354907 0.27324296002439397
Ni 5.459659994300964 5.9982984735915315 7.947713535601591 -0.06925317786986783 0.8792033812897311 0.7677247190917488
Ni 5.702800859208236 4.8130905100787915 10.96542918081504 1.1161529061997295 0.2022046652296453 -1.0435122999148674
Ni 6.803225208633599 8.69202245798882 9.45715097558985 -0.7348423665414312 -0.844025033616385 0.0545418398016222
Ni 1.5189332793748793 8.032760145829906 10.192186952482954 1.193393730260764 0.43608686406822955 -0.7587885929443835
Ni 4.390580681389479 4.176061630543825 12.706939265140896 -0.8245517553831219 0.38522170178724624 1.2914931429383627
Ni 8.56660500751615 5.150536941552068 2.1185281089059607 0.004650097177501669 -0.5843323014726001 1.1897119105338028
Ni 4.312539840702737 7.212277468834507 1.6144857460842665 1.6099111568374984 2.8086214142151693 -1.7957929165374038
Ni 9.7469913751117 4.569072991368394 4.285963241311603 -2.51855521198585 -0.855003644115076 0.728955568743351
Ni 2.6637685374224063 5.9553051328212305 1.6414577722972357 -1.4565543663484914 -2.1931340272960034 0.06558678476187414
Ni 6.534297665368435 4.374530455908853 1.2632851760062078 -1.0401816928797376 -0.12014507962372857 -2.080609183221694
Ni 0.986179571890398 1.1244390679684273 7.252684680885587 0.42879727238535187 -0.5115610831471449 0.675235967732708
Ni 7.572852638943434 3.1593763715255183 5.226509252307606 0.50047448631568 0.1885413088099398 0.20478373881073117
Ni 7.742037496842356 4.699852951806991 7.638561571929402 -0.18450467684672095 -0.10507790087796097 0.4893732341961959
Ni 1.179379148332385 3.7299660841087228 1.396459147415681 -0.035044650308959 0.8388566020415682 0.6060933472987755
Ni 2.730804575048637 3.6004171694362164 10.914720353966805 0.4023478199445716 -0.4825893785051431 0.7324818367290545
P 0.713856394053766 2.3895437669213346 10.537264935095568 0.21328791962700044 -0.7654312950718818 0.3705021361888845
P 5.768773720945569 6.1074791764978045 -0.07596951292425094 -1.3212585471262535 -0.5201778782818783 0.9005059994222491
P 5.300342154739346 7.008921764822269 10.3198529266996 2.3754589228825864 0.7506703347126232 -1.665359310503474
P 7.068291744723296 2.732063599127594 7.6161891803515545 -0.8053664407039227 -0.18626999627725985 -0.9308414171809969
P 3.2011946231554598 4.917505573693605 5.694912840200964 -1.5413048685230102 -1.405454719459199 1.748525241799692
P 8.724020321802898 6.323024098815202 8.521696084924976 1.0820461943240074 1.0452033144640451 0.4406120056320928
P 0.3718224518809415 2.7660572492594264 6.02463445949202 -1.544029980763657 1.0355884170821001 -0.565975139121651
P 7.25812459751711 5.02048441724798 3.974204631490759 0.6744551237026255 -0.795843588815152 0.780321839030469
