# total energy = -340894.5973192346 ev
CRYSTAL
PRIMVEC
9.01412156710172 0.00000000000000 0.00000000000000

0.00000000000000 9.01412156710172 0.00000000000000

0.00000000000000 0.00000000000000 13.19307807483010

PRIMCOORD
 96 1
Ni 6.4600693392457895 2.370046913520533 11.516858100306692 -0.7348734768896827 -1.3926683663278079 0.2822762738712558
Ni 4.608190186908305 0.4721867273337215 6.021373678989855 0.311588906792444 -0.5348930730048659 0.01922465255756689
Ni 2.6197110371286136 1.4575744348955852 4.706682985644765 -0.17374306745484272 -0.6199387378223 0.6767169231536087
Ni 3.28637743615401 4.048214930137494 4.867718463690533 -1.2269062601959126 1.7104230356113317 -0.7694393877900103
Ni 4.8707985890122965 4.321252670834636 2.665436971339059 0.5254733223528627 -0.1298849326193118 -0.12948512607773183
Ni 7.35408089700749 6.015880473338457 2.53456184247119 -0.5918311809528065 0.6709265417240767 0.5283817542489094
Ni 5.007074078079955 4.528334084404642 11.496382523284785 0.14676602464536662 1.2566636939640035 -0.03840431080981128
Ni 5.8144779563230635 7.7343776696146795 12.202805705253224 -2.362853832524066 1.21403634621178 1.275405236237565
Ni 1.769859660670158 6.644894886794624 0.2546642568125938 1.143071070746812 0.37076361738038727 0.725824479313537
Ni 2.824638075656472 1.5504649571103113 0.3722390493847005 -0.9017203314453245 0.27036512425596665 0.4280115432592628
Ni 0.44584746426613975 8.984311815406313 4.6552042390832815 0.5160818538356337 0.11629690952223196 0.9583514496758074
Ni 8.721820596882022 2.4645509634864897 1.4621887636992452 -0.7585800764780032 -0.7853074651705185 -0.6319280489736924
Ni 6.830297338120436 0.6477601805592965 4.7239396198735735 -0.6950779421592996 -0.05796757765371952 0.21015991552097998
Ni 0.9125445915970697 7.3482487603871185 2.558230221333801 -0.7233233101582381 -0.11384099178257168 -0.05065176071859664
Ni 7.397619103926183 3.6852883696902055 3.7063579773199677 0.9843355324443951 -0.7997809761963451 0.0938645486606448
Ni 7.642523771374208 4.010112238492502 12.77221874725051 0.6714803573450178 0.19460731249836163 -0.14763968549957154
Ni 8.037991310491575 8.812646885269753 6.891232799563575 -0.5329894282242498 0.37972828277284276 -0.13414062257187218
Ni 6.704252876972594 0.7139869313318917 0.2725032032912879 0.15189614678308033 -0.4629461503529188 0.6642457872697914
Ni 2.0043169612819995 6.6369444316181685 9.045187783647453 -0.10870829854169665 -0.6002422878346372 -0.21934955244004806
Ni 0.14114762174665593 4.844738763711687 1.568274156988005 -0.0798180978699077 0.21516276805221007 -1.4164413003776897
Ni 6.52647637244869 1.9788340397583672 7.1283123081242055 -0.5162384340181561 -0.9423571311300803 -0.6348876458226484
Ni 3.369063972813465 4.4337669355880776 0.4191503405744023 0.02337878393525651 0.153179127260562 -0.5917802731102131
Ni 6.32658822784786 5.5358424461649465 4.606640659419833 -1.7384143786179351 0.7815623963057894 1.2672031600427467
Ni 5.4877430937595335 2.8847532520417225 9.261764672821629 -0.3800267878498681 1.341082009610084 0.44987466188094133
P 0.20687138453869974 5.761916613767599 12.352257135739734 -0.7561897218689557 -1.7111750832860078 -0.037169667071761794
P 3.9097039389340504 6.352017064642401 12.475889417970095 0.07345178933224769 -0.48610587629883384 0.05007017718351377
P 2.395592933894772 8.49175317344811 1.5193680407069767 1.899690938174651 -0.6711574267879603 -1.8125117719539816
P 6.351458189108455 7.725300449248815 5.862343842981232 -0.21553454956933205 0.17336768639329497 -0.4913807515445279
P 4.774681011295107 0.9810158586269638 12.502275554469557 0.24361742384847718 0.6192339984457916 0.36024292035472155
P 4.088408897974026 6.054109362684664 8.13291271428369 -0.9684815961312739 -0.007022196954104035 -0.4791605553292522
P 4.704208609288826 1.0737080701683543 3.7477841755676358 0.5808104043622707 -1.3185524610490003 0.6311209796913647
P 0.2711006059835139 5.630003959513324 3.6187163780635765 0.11770433139271987 -1.56693413905534 0.06828515752964369
Ni 1.3711560519288137 0.8490130631575364 2.642032706236845 -0.3714986957741989 1.7299672762918465 -0.025713602716020235
Ni 1.854159725080844 6.379419994048782 4.920028312255722 0.6261875469454893 -0.5066813864573402 -0.029453015153794435
Ni 5.94380355770246 5.7495041684410895 9.11418727819814 0.5045561125842214 -1.1296121170284288 0.05287807894595409
Ni 8.450171030898229 2.442971156578964 10.245638909381082 1.6678447959294889 1.0204677593905778 0.43640156709517103
Ni 2.409168200896749 4.959614728302126 7.112005762303105 -0.12251357985590515 0.4198642315617801 -0.1647658036568969
Ni 0.5822230100826186 -0.14654978477074962 8.844969722199163 0.47803621191682183 -0.6895238451102899 1.146650303457638
Ni 1.197489986815867 0.9218832214868762 11.356139919338261 0.4089840943141666 0.9271338864224226 -0.5403062736006372
Ni 3.9804557787073045 6.690506341661827 1.614225444236332 0.45849737055294587 1.0317142788386746 -0.2805456643333943
Ni 5.675885838025983 7.902878643099384 7.9986329517195065 -0.6233163960452813 0.9309887413921385 0.00023885548368345963
Ni 5.050260734259553 2.801129246744681 5.02474175624986 1.9558019222356058 -0.8063102926744308 -0.16443181735624585
Ni 0.7751486472250638 7.268014064779814 6.901298869059663 -0.12256525902944698 -0.4264308290357043 0.3395460541270023
Ni 5.177477031204379 4.247210676708313 7.151783277725632 -0.9655834486478725 0.42538644693159 0.26763358425741646
Ni 8.156175457678113 7.0152671116135155 9.347216741961965 1.1637681940848474 0.270100043520038 -1.1657895953902504
Ni 4.77093113674476 0.5531587780809745 10.342370348773457 -0.06543688944757117 -1.245203515843204 0.1143230736253128
Ni 8.247975271189492 7.057912920502198 4.841332327191072 -0.7927433526232734 0.3249555579073371 -0.03797622213345718
Ni 7.172978181644457 5.9872065527984235 6.951195637295219 0.29872362079400167 0.44142730244453654 0.20697380448351452
Ni 2.3510000747587942 5.188618485397236 2.5221998762251663 0.3435986269298212 0.027878214467506823 1.2038702043120557
Ni 2.3171881049550644 5.422174373857553 11.227032459699535 -0.30028710862637964 0.07446583241905884 1.4546774610407527
Ni 0.9206032162317096 3.3474210670553326 3.513237635152793 0.19516292789151551 -0.31466857415903227 1.2446247605215983
Ni 3.4156399386827996 2.4489475191435797 2.7677364335914105 -0.434334143043181 1.02864566721568 -1.3871631202388628
Ni 1.0753666685271617 3.294868738621383 8.361773146846707 0.03224111942189286 -0.1282895631077339 -0.33842711003121073
Ni 3.35959013110093 2.4961634876404974 6.902433746958434 0.9088646557995895 0.7889751438300929 0.20348018950795924
Ni 4.095322729176228 6.982681062335861 6.111152526457515 0.3598374573861867 -0.5555811974818367 -0.8688752598908455
Ni 0.8098485079980466 7.442121821847008 11.20006581377449 0.6284187502688532 0.07544105184813459 -0.4749184922234466
P 0.2954098888858597 5.4812529262685485 8.13541954147708 0.075559836814186 0.07468386196713589 -1.0794285541955022
P 8.610991972851933 1.5596142904482975 8.141290438819969 -0.21171877536766764 1.7004096172393877 -1.1322415842314757
P 1.7372826255140184 3.095611582526621 10.46538245944357 -0.07221251760850789 0.5797827344287048 -0.18362304557271603
P 4.268763441251293 5.968655490720025 3.8612972049849676 -1.3465993398838874 0.5372183787039329 0.36361235104758666
P 6.88683390826413 4.176260526261723 10.356197109765711 0.5839808316704523 -0.9113920502071337 -0.2895028735266821
P 6.393256670574703 7.754398033500065 10.129394601144625 -0.8900994593769445 1.436114610436901 -0.276954090327394
P 2.3008364885263872 8.424715151739143 5.81364865714366 0.5805460949572905 0.29275454769476034 -0.49961676630107504
P 6.820913637623054 4.093961596827425 1.6559031364742756 0.10633157077940399 -1.2487410966828172 -0.8859404429032484
Ni 5.189150318566637 2.9219725597782205 0.3711834957552638 0.2677757662622356 0.07758843720844057 0.5562463418696614
Ni 1.4165691961226798 1.1496159874483358 6.934492470127447 -0.9489031597787142 0.06433594307390855 -0.366160314280421
Ni 7.034593388142227 0.9019079282090661 9.314023140894182 -1.4037205103769115 -2.2713189604378625 0.3411360243219415
Ni 3.0197487358542157 1.9497544837501473 9.239402440166577 -0.9912546281617316 -1.2938043075700427 0.11275984290325097
Ni 6.246678040615105 1.9215312692858768 2.3841215628544554 0.9168047365822727 0.3490498798523795 0.860316314577241
Ni 4.145504343651666 7.01069695200528 10.194119599272778 0.04820561317094924 0.42885306532395173 0.5867655935044411
Ni 8.103794397552953 7.075202005568461 0.48734036701302047 0.35469782216677626 0.2199383350639825 -0.8074120103790418
Ni 7.743031226269326 3.8630738883356246 8.021892990877477 -0.09126619180584927 -0.006946863631478359 0.9334256329684053
Ni 3.1443689658026472 8.549218198107875 12.19015348429441 0.09235274000180868 -0.9396255911315302 0.18633658784913715
Ni 0.05055029204541124 4.9117407289345945 10.244319241991247 0.1788755035854016 -0.46009171162325924 0.6038863123451277
Ni 8.445267348793928 2.3417245437195944 5.647284030458072 1.0202204192664623 -0.10485035824818716 0.034088199932960646
Ni 3.743645792379981 2.68179129200419 11.5281771326934 -0.9911900934723833 -0.42806450798438533 -0.2962556188694833
Ni 1.16114504886635 3.4871038940557595 12.432471098867554 -0.8306254723810276 -0.011147274866071123 1.0172040010376415
Ni 3.1073569828610013 8.64483098502021 7.910701097750324 0.3615318143694741 -0.21360750774994824 0.39073620384757224
Ni 5.694085349365288 7.801064140584552 3.518607347339432 -0.7677486303511487 0.27802006969806314 0.4663983705675775
Ni 3.0611686242168226 7.914867424714676 3.6269093131087935 1.0160212935834503 1.1662891607344883 0.26626807136845754
Ni 3.3770594985974984 4.345122064607038 9.537011774702162 0.9108179228712184 0.0012559838942881596 -1.4219090083604802
Ni 7.002692412099732 6.050215262190073 11.323354657975118 1.7599522526897111 -0.8016967051618192 0.9727473133861634
Ni 0.5781648525764497 0.06956828561830103 0.37039205588622426 -0.03403729209036719 -0.511215526882268 0.39061330511646275
Ni 4.589170390511113 0.41558345269081504 1.5857291018901492 -0.35248127413143165 -1.4790152664551688 0.14199071474391028
Ni 5.8725288988813205 5.612985298092519 0.4233103576536935 -0.3953693317442094 0.4857019559921957 -0.14687298253687608
Ni 7.958847323587616 8.65868568978916 11.58178140910818 -0.5833218579302147 0.7940219622253809 -0.6872797862711195
Ni 0.09890113844109971 4.901049980817499 5.759675703158906 -0.2848923713378642 -0.9909280980602483 0.3412926045044638
Ni 7.900607084477539 8.58650060469498 2.4503771588158996 -0.3036621957461996 0.8207524362416898 0.318534999092974
P 8.412338762898694 1.4841751074871092 3.4774182204876154 -0.43154732432666326 0.9216965174569351 -0.15107802175715918
P 1.7632342813564439 3.280644454870307 1.4410794939348157 0.885153942446211 -0.22975120738934626 0.049012425342960755
P 4.723588970546629 1.2400997392184883 8.238562725503261 1.225799143174663 -1.3612651694261781 -1.982715201686682
P 8.445195235821807 1.625011742041489 12.532553087227154 -0.2855613723804308 0.9171742041065495 -0.7598324608278656
P 6.192890777533564 7.674172352014277 1.3609051929416631 -0.32851987821982775 0.15750835076353517 0.03983667238096365
P 1.5278304979855004 3.181813626577026 5.890247957543862 0.3268111230588372 -0.13539403536299907 -0.2547749831271935
P 6.873844559160644 3.840060836107173 5.940961405188699 0.24745068155163835 0.626572955309366 -0.4473596087685715
P 2.412097790389208 8.556177099917655 10.05135754836274 0.42956140424488604 0.4873978556373799 0.39792757938968887
