# total energy = -340861.3264486265 ev
CRYSTAL
PRIMVEC
9.27201875622871 0.00000000000000 0.00000000000000
0.00000000000000 9.27201875622871 0.00000000000000
0.00000000000000 0.00000000000000 13.57053667976123
PRIMCOORD
 96 1
Ni 4.327733259956208 2.602729817838568 2.6195205164546524 1.9579197399095571 -0.7262129730012074 -0.2588404114458187
Ni 8.97235630212122 0.2744313542984965 10.202601119006259 0.5189144381884224 0.913298523201227 0.8194676559919951
Ni 1.9587324888426163 1.503652540321966 9.276113197080686 -0.5208353093602192 -0.7294425356820986 -0.33526105359840325
Ni 5.230253013610434 4.906437033452426 7.613844233308857 0.3057427324243121 -1.3882782076799123 0.9051506972831121
Ni 2.1084663184031385 5.121158441896452 12.152456577170735 2.24328570844973 -0.7662090537781707 -1.3377254344330252
Ni 6.136861727499734 5.428321876516613 5.632790286711334 2.3993763529301324 0.8888691865142692 0.20411499487848073
Ni 4.215263673445023 1.217110075231968 10.034095160439094 0.3216329212920073 0.40527219268021825 0.41290322686291475
Ni 8.474059474562758 2.0529825586601103 5.149828450837196 0.3312701872714553 -1.691150817645281 0.5989657351150588
Ni 0.4100207193723893 2.2361605595764313 7.0704399621050324 1.3470379700832025 -1.3295421272912844 1.3663824360480856
Ni 2.414285310315622 5.796448833915919 2.828100139729263 0.512699310516646 1.4122863976690514 0.21292050898525267
Ni 6.132429702573735 3.2685627508109287 1.2039846055975711 1.6184384775822191 1.1461846766751291 0.723161073548761
Ni 4.115719280964884 6.01863421739222 4.765673881958644 -1.4794742083694583 0.7808296319048229 -0.2776274622453348
Ni 4.854782617421609 7.044314195088333 7.632395688271065 0.03966569402073814 -1.8463863132142395 -0.5557400916572042
Ni 4.081032659106818 1.4974681038666517 4.601226285964932 -2.3495625147317987 -0.46416202503789095 0.22305785452957072
Ni 5.502841090596613 6.664977367112602 12.157558969046837 0.8417295527139891 1.0410566392855232 -3.150349563595155
Ni 7.07573706637328 3.0917453547047202 7.042049968128231 -0.044740537440484236 1.216833192230627 -0.9365677781418127
Ni 5.463926428223369 8.655976480939467 6.167334216870633 1.8612658014292334 -0.038774806775352576 -0.7576989594246305
Ni 6.082935666893875 1.5114132199517978 5.3905291284028785 1.5203010125778331 1.0569830807077925 -1.9806161530658084
Ni 4.653301651643533 3.667370818001292 5.61266537018021 1.170129874636817 -0.6537703416597644 0.8680301382817308
Ni 5.273080467863951 0.06989989437679509 2.7847423260076134 -0.010013932592576302 1.519472860249583 0.4593319506390992
Ni 0.9385786342759904 7.880056870255045 9.088948228134702 3.1843315769675544 1.3523030751368839 2.2151861220000364
Ni 7.1903021291047065 0.8374477994007925 0.8081268947491584 1.0696377933573256 1.505426409458846 1.310616236921059
Ni 7.8330940956730855 6.6150660905924275 13.409576340181305 -1.1147154024222543 -2.2053776205500473 0.1473110985155592
Ni 1.5743609547271018 8.709921085582671 12.759222115182709 2.3225947278937027 -0.8985470759236655 -3.3994156692630293
P 0.9273224036061982 8.597275330716688 7.15271800141113 -0.0038581974038256134 0.5930033468840369 -1.6258252569645937
P 3.089770414727236 2.6722792299094995 6.650486129127578 -1.1247010528800565 -1.0869809126214633 -0.02251489327306445
P 7.724435308836764 5.292718603414709 7.400339313714812 -1.481162908925791 0.06852401301332715 -1.1659173792173663
P 7.3523121113891206 1.747654983737329 3.3521666887873556 -1.2013500089933633 -1.2512954876735547 -1.0723333379116178
P 2.845610346994421 6.335718711993171 6.818420931344445 0.6212052632395496 -0.1362432707371718 1.130174160179486
P 3.0929321730949457 3.0186262154444394 0.09197842524245334 0.6173213548041111 1.1123577008233554 0.09649324453274348
P 5.453959008149211 4.674923999190448 3.551368592375452 -2.052398268005117 -0.7022050401223842 0.5154395922659446
P 5.726713981471515 5.818914935162136 0.3480122400887245 0.05947167300307177 -1.6629453017453426 3.4836072136102842
Ni 3.8528019194553065 4.4747411160266815 1.4974133989564773 1.441287155776776 1.7548941214405132 -1.2100043422342517
Ni 2.809848170970213 1.4955766120572302 12.016044784040492 0.09207686063260272 0.6594738198024449 -0.6158529977887007
Ni 4.2760232118133485 8.70662951895353 11.971438956605372 -0.19568049095788234 1.2386608296286796 1.752940597258568
Ni 3.1108271691350597 3.757902808330658 4.030964685471059 -1.916491040451125 0.7724483498196633 -0.28154119547744416
Ni 8.049883164281333 8.157318044652733 8.69333993458861 -0.3495913541781463 -1.627615516095797 -0.38522350155945917
Ni 7.262753683020486 5.339987354612898 10.195965135241538 0.26219235863718715 0.6008714367782039 0.003372773126974837
Ni 3.379604446446374 6.438267238523567 13.398502768279382 0.982659430293553 1.1377419452244146 0.6179394480040842
Ni 0.2866852541775718 6.364601050161542 7.594424917398798 -0.07764397303672435 0.2835669676582213 -1.996165413654317
Ni 8.109530060408822 7.05285372428675 5.675795763723384 -1.8645074482949824 -2.3675862050027288 0.725412331476783
Ni 3.2992994927140264 0.3347467629723557 6.634445536822191 -2.218224394605728 1.0525343009078196 -1.3341834827180377
Ni 9.271907409410327 4.131203552149853 5.947138608601693 -2.3982098434258567 0.8313682640843232 -0.533173776320914
Ni 1.1365176889207378 2.4911874331947454 13.271414917127347 -3.1436022175689926 -0.13077016343774253 0.019316698050740926
Ni 6.840505952623175 4.280742669318228 12.5138260873607 2.0318096452204877 -0.3879609550952803 0.12346694490810996
Ni 3.3212000008211513 7.1178134871142325 10.668138050187034 -0.767875128626684 -0.3450921807562121 0.5568304965079055
Ni 9.284257738283607 0.47092397403015696 2.9066600995472327 -0.40527502089369555 -0.9057474503268464 -0.002863437590724101
Ni 7.562295518290919 0.7243866580982293 6.915884682834221 1.0581783865674745 -1.227394512686241 1.0226776225577032
Ni 4.640237377332382 4.481732218106602 12.366490929031045 -2.3757060058963857 -1.1599480490078087 0.18396963027885735
Ni 1.5086223423310339 0.17635472237439384 1.05181687113522 -2.1030366589872753 1.2057550800395944 2.9757171515568235
Ni 3.530534366415795 3.402385796327494 8.661082581623036 0.1980219946068654 -2.779457133946387 0.055854902186090905
Ni 2.729441225032456 9.12631817219692 3.0570346255981025 -0.1718859596414459 -0.7779777642783248 1.7200441036408636
Ni 6.894839982050672 7.855087323966947 1.8503833874299942 -0.6898457472260829 0.3023805008202986 -2.8636185963866554
Ni 1.5802765026408807 3.8317173489914618 1.8115169395538535 -0.11650773998145743 0.424390658677224 -1.588822197377683
Ni 0.7098564776347768 6.916184169037379 4.103730560819875 0.37691163925965415 1.6287144055869307 0.9214568906423034
Ni 0.9407204705896 5.714678901233137 9.695646080410357 0.6980902466230623 -1.6447740301529543 1.152712450491318
P 5.088493120109238 4.9608545110479865 10.19703698060021 -0.5427621913402976 1.1413759424325762 0.5340440947410093
P 6.186884268243991 8.70063052287169 8.15745341612537 -1.746959697084785 0.41434098775070577 0.009090649447358537
P 4.038093940629216 8.517239265525873 4.718937344632324 -0.7525636950805942 -0.48936115001133784 -1.3539210703562812
P 5.506475721916677 2.61038850526299 11.222181962818853 0.7074161520096784 -0.7138199986534931 0.7357198840503781
P 2.4877753303228483 7.526403534005281 1.454042604408685 -0.7897423610134205 0.23629620759671563 0.13439001957851693
P 7.7196973072945365 7.487767032192246 11.207336533720497 -0.8742663489994298 -0.05820309070329331 -0.35953972364010983
P 8.748399963078255 1.1646211775205235 12.157640562811165 0.1106602800617449 2.0452948241911164 0.9237060916877963
P 1.599107972567032 3.1195706827442975 10.619908717854257 -0.2022242056136711 1.3898838616041354 0.5433928829457609
Ni 9.33720096491006 4.57599155994277 11.731321489014261 -2.8820102115199653 -1.812276516014724 -1.3387772727363072
Ni 9.027061212295662 8.887470971164095 5.2165007555136995 1.2050673099439504 2.546444739307266 0.5627710303620567
Ni 0.08243288201794673 2.746001050383567 3.091504282219206 -1.156487344152718 1.4956523607912178 0.020314028967003725
Ni 6.5323040519115665 0.403861317367494 12.116508033571188 -0.018268973512516922 0.15909703540689374 -0.7267428773627483
Ni 5.827092855632281 8.076781290453544 10.227204420556745 0.16412996984511088 -0.5767665733102002 -0.35176393634943287
Ni 4.589806867766485 7.027012608243331 2.0867818483311096 -0.6101297221516784 -0.5972891187435843 -0.9515786497283483
Ni 3.3153957171314556 5.504955110854201 9.104201626054698 -0.15392089052259297 1.8441890484526047 -0.7945079007228639
Ni 5.282778999396573 1.4308022896032204 7.581954052282759 -1.1500019935386903 0.7883231120683908 0.4184087300621762
Ni 5.949353693862825 7.374305339682981 3.9643470857047305 0.9641706274607461 -0.4123918344441349 1.8087289078727817
Ni 1.4618450081225483 1.3549200887781965 5.03745065731088 1.1090440630690899 0.27791953956445686 -0.5014854440786976
Ni 8.603997544255071 8.588670897387553 12.993029046864544 -0.2086900158436729 0.8831531099660984 0.8959757156520634
Ni 0.5459512947334718 7.097173973546723 11.578951624544825 -0.3086563065266813 -1.197772833165066 -0.5157607230507891
Ni 1.8097404207759848 5.172868490039311 5.389728953191344 0.9591374359122126 0.725032836650177 -0.2120926137673186
Ni 7.3032909486616155 3.718719257415879 4.252585403010135 -0.6332632228453481 1.296847979492373 -0.3835967645893135
Ni 0.026359421887275265 7.340768448140445 1.8429064315715753 1.9647401052655002 -0.7427562220718692 -2.842173282028686
Ni 6.527473330182604 1.0466718279732203 9.664773039832758 -0.25295952718500947 -1.6856928798545034 -0.4008136426882323
Ni 3.54988506938767 0.9965565670422264 1.2444467678874445 -0.2927666318796184 -0.21334936899255513 -0.6150670115522956
Ni 8.824105995548479 3.9411271693403473 8.70313767672104 -0.019724732122436996 1.2611659527097312 0.8709920491235322
Ni 4.911230667106695 1.9501836876255252 13.362961266299608 1.565432614809149 0.32536539175124607 -2.0952693563370306
Ni 5.9531181334443195 3.3137360257888755 9.151046645999502 0.4782727534076602 -0.40096173823032233 0.5604755494596605
Ni 3.883473757227689 8.716800923438507 8.498561711109705 -1.2759863055520153 0.7363269215067577 2.966204584080698
Ni 6.950889334932792 5.514644370368149 2.4579769167095225 0.8336362341828933 0.4360992053634038 -1.3416983030378442
Ni 7.921576969875579 2.5158231868105925 10.60609341003054 0.5763891353661235 2.203805390966921 2.8660894265246513
Ni 1.5957793178631974 4.4536843616188575 7.716763640586199 1.795156568504986 -0.97807515335698 -0.7063213762836029
P 8.159571145190426 7.857043719907083 3.4169799537197947 -0.842043227299666 0.4414435003944527 3.4050962645875744
P 0.5506596258159434 4.989755393253705 3.5469857091484243 -0.7284063811081004 -2.33526178183841 0.056967675634295445
P 8.344102860833098 3.1762690769335715 0.9261374396197076 0.31242811486428773 -0.6316241445800284 -0.6491881216057207
P 2.1389248997460273 2.0547998743201425 2.9499900972128605 0.4673558493848402 -1.54916678776959 0.30922632009753837
P 2.3474618717347386 9.068405143561398 10.708348013568983 -0.014775358536961651 -0.4376619218648333 -1.0297424998242846
P 5.315750297800017 9.121784155065512 0.5114352780190004 -0.0992900905515903 -0.4977462887512396 -0.4420448814238774
P 0.5261017571569553 5.69792436348988 -0.10338857142222785 0.12051300448610858 0.3711066025421028 1.127378856822536
P 8.198105654798052 1.9790474817565493 8.633018962703547 0.3940436709542504 -1.6626411402413623 -0.9730306489545372
