# total energy = -381167.45477649616 ev
CRYSTAL
PRIMVEC
9.24819608111132 0.00000000000000 0.00000000000000

0.00000000000000 9.24819608111132 0.00000000000000

0.00000000000000 0.00000000000000 13.53566978669372

PRIMCOORD
 96 1
Ni 2.8404724765111276 8.906965479834135 12.25918874127659 -0.29816851962148 0.2110999108367461 0.2940388137238226
Ni 9.365925711364643 3.2352502265936 1.1162693008651243 0.5147088847475072 -0.9510441173811169 -1.822477624917442
Ni 0.6743877132092673 5.916783203657182 4.493680024587657 -0.6575544912925451 -0.8312605348618652 0.9296419975562571
Ni 2.9086501787063623 2.352389675228475 6.838125499302607 -1.3772458611251506 0.028508906072970255 0.06317380444500734
Ni 7.446943501637726 5.495953284952358 4.072666066778969 0.4085441785632706 0.057205759787030505 -1.811984695805918
Ni 2.571479442592164 6.938523916968297 10.084763954664956 0.27829003552999815 -1.4370576910764605 1.3416653929173796
Ni 0.14537886939750852 2.7855381912371593 12.085295833435193 -0.8828888005611182 1.8382405441786538 -0.23639185263431545
Ni -0.004363298954925636 4.729666246361369 10.935196630965326 -0.1042525767631882 0.6447043748027542 -0.3673576770226319
Ni 4.929519765682994 5.145816577802115 12.493125562778129 -0.9181036578993542 -0.9485015534649214 0.7707946162663242
Ni 5.986070689393305 0.11817622517110268 10.434701825597454 -0.19936051091263085 0.7620469519806812 0.3380005640167534
Ni 2.6629441027537033 8.169708529033548 8.191029320493245 -0.11676356474600535 -0.0601977525358189 -2.352114334619375
Ni 1.4206986480642672 4.909469676377614 2.24757061979158 1.620529041562661 -0.41448342686584105 -1.0989416845277653
Ni 2.4951725759599226 3.8342189000033366 11.635410856810296 0.6044758663000106 0.2855186920679535 0.8749674888315125
Ni 4.999778312017396 3.1239759302272048 0.909941119402033 -0.5960899562291605 0.12764627309678017 -1.0440851416992016
Ni 8.084967307490556 1.2464533839486378 0.2150464559963858 2.308186008667541 0.9500169616681832 -0.8127038549056004
Ni 5.937378936536833 5.511564240094185 1.1349645294310042 3.4919046777323857 -0.8427939894227614 -0.551554849931263
Ni 4.204599908578616 8.321101500403053 6.197536243831092 -0.04506141111501272 0.7420656237627478 1.4360881280743396
Ni 7.734525409866568 7.6798408258893005 10.784586056992145 0.7931138485888147 -0.7119207247482513 -1.8943049912723895
Ni 3.3699409556727375 0.7413326308544987 1.1583957592576248 -0.05517664517214369 -0.6572428735893971 -0.0652995925387585
Ni 8.017344497065766 0.6706301711037431 4.656730347234577 0.02536573245829825 -0.9956422157064659 0.3247838082161632
Ni 8.369478814589607 5.40581111684371 1.4705695459329329 -0.3770332524391829 0.19241956081842346 -0.05522909567663392
Ni 3.9002140279014914 5.391235959673377 1.3190045581145897 -4.179667831397828 0.617359150020582 0.33185177080653816
Ni 4.675693773489504 7.769788781878293 0.7831409512986113 0.4837582020022636 0.14800478214847412 -0.08940085646233635
Ni 7.137101185217902 7.4779804479979015 5.3538038856588335 0.4510591691073457 0.5404823941671852 -0.20907079622185928
P 1.9913585929851791 0.9173720450278973 8.217924924606672 -0.680418540374912 0.408934986243786 0.6315806929366027
Ni 5.041894597394104 0.3158055533128648 8.15964001785884 0.4459874110113932 -2.4947717364130066 0.8486103389942223
P 3.2417054675231 7.5703514313845 2.4588225408977453 0.24390153074779927 -0.16869856305239977 0.8365683202280239
Ni 9.131770632433398 0.5961109807919494 11.519802855716733 0.6807376142772276 -1.6026557608266658 -0.22280640064039692
P 5.183105304775959 7.420484412383716 9.609378001909683 0.05075614750694484 -0.037369184677077574 -0.7046514447803477
P 7.408165815079856 1.9627076812379143 11.656161034566056 -1.0592795900514531 0.00446214953641167 -0.7554626138949441
P 8.955268808451295 3.5629785544140744 5.72975693242899 0.2054537682945623 0.29982431005734816 -0.4065963108082804
Ni 0.6723013201523973 7.0055363464455995 2.5344191460638177 1.474436903055867 0.15005832224339316 -2.1534613912967298
Ni 2.187771783330051 7.453972130730019 0.5467367110578312 -0.7744149866277308 0.17902128513464652 0.5857294389304428
Ni 6.13185000568515 4.467637104161479 5.61907637025697 -0.17101949787609255 -0.7169336045818104 1.0875480979788432
Ni 9.250785668997489 3.597363347789262 3.2617305866988113 -2.1466202000051804 0.372876549958332 2.377238126270196
Ni 3.3353804465702424 9.22051632291976 10.023664821821352 1.8475016577656052 -0.21401219938753466 0.014411290329323567
Ni 3.6945803859710726 4.456604006125815 5.896773806414966 1.5224975060085197 0.007796613226283346 -0.28683329711431893
Ni 4.072766872117266 0.9523607456132516 5.077338309231223 -1.0009435733147214 2.2233406327863707 -0.15234480428472472
Ni 1.8905347582954817 0.23296021198555694 5.83966711985971 -0.3750547885565734 -0.017811574260124162 1.3186614758230388
Ni 0.6552263755562142 8.261015969860129 9.735341208259351 -0.38841475480324716 0.3061906185950081 -0.5489158696465191
Ni 2.124218179221851 4.182413485957025 9.304744269575092 -0.7929487837658602 0.24888330023310684 0.26209439960674213
Ni 1.4812465884158952 4.662468852960585 6.918541339494987 0.5512347475876829 -0.40819502275396796 -1.031818408516707
Ni 1.1200582868376403 7.054681260914601 6.7018218848107125 -0.12039319107879265 -0.21579937319494447 0.4403510386612222
Ni 4.239983507140603 2.343085989877362 9.706509956686691 0.1493471551089815 -2.956583001830534 -0.3249581290104984
Ni 5.049246913352489 6.555824311089158 5.1542342859597525 -0.9773866119303877 -1.4296994509391765 -0.8339167415377897
Ni 2.9554922923280205 5.611777693836395 3.818939955104158 1.5376341045396422 -0.7240933555550433 -1.5625686629977928
Ni 1.251317935136198 5.2685956302090515 13.316947479407235 0.40539380585974694 -1.6735014799946342 0.3942961532846887
Ni 8.701248604138149 8.721317189835878 6.613812350739804 1.8032336890861655 0.4572030772215545 -0.03657239980739508
Ni 5.169482711811557 4.515810958032203 3.386922493487562 0.9522612776176695 1.0585751077852608 -0.38645840240782475
Ni 2.6393334579213064 7.321223522847435 5.036230077237487 -0.5497224247082145 1.1388665457471612 0.06378701254897402
Ni 1.7831077115374991 1.818315594372179 13.12409114531091 0.8806167166974899 -0.5820501903066427 1.4093106028701794
Ni 3.2896296200971245 5.870643952944753 7.717958191240341 0.7098694986461774 0.525543770579482 0.5443182229735077
Ni 5.5922362553205875 6.907052305387942 7.312537617000751 1.0549118000010609 0.4019464707410949 1.9402338925940197
Ni 7.271357249076858 3.1866787002873913 9.563383947877186 -0.08662072261403791 0.04557151798221184 -0.058424205575163896
Ni 5.962450796364734 4.80206112601198 8.208341943731101 -0.3370124890718712 -1.3730215386311577 -0.9351976372671635
Ni 0.37997416246664084 8.295641216335842 4.2500242737267895 0.6502577005208157 0.5216272091338952 2.517870784324315
P 6.786030410254077 3.6086091543369294 2.1496534931593922 1.4270044206055166 -0.07002965102457616 -0.22136246910501875
Ni 5.352023607895325 7.275879617005977 11.90753163067533 -0.15566358424531257 0.9035463289104696 -1.0117751167125866
P 3.959781659458668 3.6978080064358227 8.283261580937234 0.503125807895598 2.502977926372883 -2.4589130748431844
Ni 5.768414392436597 9.051598019800396 4.250876957414039 0.555157993901489 -1.2553786566039928 -0.6424914263118354
P 3.7079070366579057 1.8766624640343785 12.099453896958076 0.2521691700732302 0.0579835184933195 -0.7915315917033593
P 3.169569537365364 6.640325079531625 12.306116863122668 0.10011541466636305 -0.7305159712519355 -0.2055843803351556
P 6.873333382137287 0.41636303995274915 6.523123614237269 -2.030939841021025 0.7904285884471677 0.6221347170323543
Ni 7.955733014154119 8.088305906309394 2.650229682653594 -1.9657022120684535 0.11818949855925451 -0.06752822475896111
Ni 7.141558815773802 8.735855354221515 12.552628456962086 0.5434373630304512 -0.4565335619583557 1.8058788400184964
Ni 7.884706867537271 0.03715092885085157 8.806238751204264 -1.2807693287629554 -0.33530836189657093 -0.351916145656581
Ni 7.402922087849159 5.6626242764014245 12.42639427846452 0.42290121861589103 1.1181966761026356 0.9038852003071272
Ni 0.7991357065816631 1.647871338884092 4.1933772225213835 -0.4488580476909689 -0.4029502294152609 1.2044291621393193
Ni 2.1333369006494824 1.8211177978129218 10.409702101699711 -2.3581592552618744 0.024568433367983495 0.3754065154690373
Ni 5.493511761162403 3.5139816110838584 10.92175622746555 1.6919789699735313 0.04176577108287646 2.593903447009862
Ni 7.269877537689006 2.64341191243407 7.020261324393951 1.922267023702954 0.6288162428175881 0.02738944775654638
Ni 1.8211825351861402 3.7371960739411816 4.788608699857179 -0.2230321434979578 -0.7123927792886635 -0.6117184067950369
Ni 8.198100491287938 6.959535818675781 7.973538566248053 -0.08887815118964693 -0.03464664353959194 2.4039614011976536
Ni 8.214432805731343 5.584597245280807 6.265363439391329 0.22619074373159756 -0.9435516656588137 -1.0690132723994492
Ni 6.523187426790869 0.3588670043385637 1.366642016607218 -1.2844881723754393 -2.776934881745166 0.2656047267528458
Ni 5.193860956926402 2.073362348460647 6.99446255634677 -1.1406701746148034 2.0878632936809463 -0.597518461145571
Ni 7.234013032925968 3.502375124885402 13.281497293832794 -0.38327846201794635 -0.003814745760399882 0.4270270678588065
Ni 4.325649548301002 5.305079764115752 10.117385117029748 -0.17212635778702612 0.8437866923533339 -0.4337541021699949
Ni 8.930372664350703 4.467285672706865 8.141922323628558 -1.6653384845678674 -0.9231224512701843 2.0630372357762017
Ni 9.01719473003286 1.822893451478343 9.470353568103377 1.6499735720760227 0.6305969888670947 0.4692540948488176
Ni 5.732161463434247 6.940854462404163 3.0028069887741737 -0.165051967438748 0.7595948908957627 -0.5272895496259952
Ni 6.916457720896969 5.59260618316755 10.141925205577639 -0.17139076517258225 -0.1706063215980739 -0.08971607370991001
Ni 6.1982613024111375 2.0225250140917908 4.745335465139094 -0.2605496808274416 1.71563389038831 0.2740232898338442
Ni 5.176391114353586 0.5388211799524457 12.982750963182616 -1.091602470553875 0.8915086810196452 -0.7261193848461366
Ni 0.3042453080952789 2.0309778653948896 7.216678214017293 1.0771829526944352 -0.32070398171983483 -0.8267659894256212
Ni 5.186249691475143 1.5470937451752647 2.597494618429819 -0.8781952517401908 0.7014424509247468 1.3842971115449771
Ni 0.5876886485362249 0.3012470428956458 2.194023563943722 0.08836470188833814 -0.10647786654928115 -2.2891333629114636
Ni 2.517812160194043 2.375408435505732 2.7635774246022153 -0.9244221439182144 1.2457920413568222 -1.8744391055863976
P 2.7384278799264528 3.6005262308807935 0.8841395768959986 -0.9685852115886737 -0.26067772176487364 -0.7248580016352096
Ni 7.948445435568953 1.6164367200884322 2.6129936703979406 -0.8211743542704566 1.6156737703528883 -0.13239355797377844
P 7.062052073265334 7.286709254725811 0.7147237208224682 -0.31347044008587305 0.1498613757412387 0.3306996594799659
Ni 2.487515069527794 0.2464181870580618 3.4739563428621056 1.3579708149456227 -2.568263120733938 0.04074067225247177
P 0.627218213443047 6.025421764113967 9.352173643653803 0.08066424792028688 0.8441034522628044 -0.3840456792012741
P 0.37264034290060427 8.737520029532847 13.39699709103112 0.5000623384789259 1.7848693276463645 0.9979744633840685
P 4.039020204278089 2.9503595434514125 4.02376253023011 -0.27881891145027465 -0.7025457112912546 2.372347373836798
Ni 0.4622831084158527 7.046228409611502 12.21500825851383 -0.20575278759221982 0.2865517613181581 -1.6898382694814444
