# total energy = -381167.30334473675 ev
CRYSTAL
PRIMVEC
9.23660047848846 0.00000000000000 0.00000000000000

0.00000000000000 9.23660047848846 0.00000000000000

0.00000000000000 0.00000000000000 13.51869845014905

PRIMCOORD
 96 1
Ni 3.3991982279203667 4.041151186336877 2.199775799518484 -0.549701341662292 0.6802118236807446 1.1847064868994113
Ni 3.236615589195062 2.5769191215755467 9.472051416163808 -1.0274380200608242 0.28515642363252824 1.2363213828622257
Ni 0.6373762229609712 7.478773671563076 10.139537108828037 -0.9473175604591492 0.4035153578901115 -0.05220933501370363
Ni 4.301392400181068 2.8231853591448037 7.469716261295264 0.7061627392185517 0.8427927038711808 -0.5567309948155638
Ni 7.395496483132934 7.461316496969801 0.9670739001856125 -1.7243324466035723 2.575423128817487 -0.7446729794786078
Ni 4.331928600818829 1.6689243643177147 1.7745725987081267 1.4728016814452893 0.641874875773759 0.2799640807983114
Ni 7.212704162920812 5.499407170695111 13.145852847756453 -0.17143318837474347 -0.19038993198290435 -0.17572487377156187
Ni 8.446205951840868 4.715986441870878 8.70919135963832 0.04835910802967801 1.6682294329624174 0.8301395338835446
Ni 6.397685024422718 6.533527705239277 3.091374667559109 -0.09289575698947226 -0.33187413940404137 0.3060196402347827
Ni 4.954410805773633 8.637394341738327 2.9558229396524385 3.5479308153890186 -2.158897731820953 -3.1723803181429493
Ni 7.354689182946116 0.7919553475142798 5.773538384091349 0.3014420481664293 -4.786689861158459 -0.20640199114044452
Ni 8.017895558684913 3.2380103158424616 1.3104131124138556 0.4953281662280501 0.46191153844081734 0.8356668914596769
Ni 2.7206590956604906 4.755934738228505 4.241829259396839 0.30962047021216355 0.06423335605777324 2.002928957630396
Ni 2.4041485127040074 1.4960613894430368 6.936187135663494 -0.21193037715784147 -1.5244687708022777 0.002701200981246961
Ni 2.0312946678327215 2.0432930116404804 1.8744895226037626 0.04256178462161057 -0.29921495860812336 0.11317841849790831
Ni 8.869473161225432 7.41875424272334 3.423313144019902 -0.7258555896617886 0.27982061324191165 -0.6934933712809992
Ni 4.436311420966236 2.6187332111965813 11.873134301223631 -0.032895465176440125 1.6553818875757875 -2.1398373727553923
Ni 1.1042540407276238 3.184308721617435 8.399247999505022 -0.3926958986771043 -0.5848544925246572 -0.2749401452211588
Ni 5.043904226215029 9.306336646272058 -0.0015702220533633567 0.7803609197985205 -1.8487296166354357 0.7443811592698019
Ni 6.401619816156441 2.5783138482229453 5.701808793373649 -2.705883217213979 4.170717564183075 -2.406192347410701
Ni 3.4065597983705467 9.199737042049316 4.137167493919951 -3.4456636444869755 1.895176081023433 2.5964087299302183
Ni 5.1980907952549975 6.017257167294033 8.00350216441576 -0.6484237326358704 0.030167010501683536 -1.3046949863406176
Ni 6.724217318719786 0.636554165533034 1.6649360003021716 0.6357147697096341 0.5531692456062344 0.7633551292691434
Ni 1.098462692330807 1.5196054836431732 11.177394771859207 1.5668086692210692 1.511816886366222 1.7690868680011276
P 1.2319869864685757 0.3892303372278344 0.5188697172735759 -0.47806835070633796 -0.17180368434028476 0.2918965705698392
Ni 5.744158605812889 7.701985354748834 9.49041008294772 -0.8446606103178549 1.5269941083272929 0.8312224825350782
P 7.011872762295639 8.461326266554726 3.877054668820123 -0.11622646129561275 1.1650830562415289 0.4166902047091727
Ni 0.8837329792133053 6.040856681096052 5.224003153775619 0.18123294807398463 0.03667190149973684 -0.7918604357976878
P 4.598672381284008 4.6342702388937855 6.215194741040861 0.10600375512634001 -0.05868260144287313 -0.5182791185972687
P 7.949184488949796 7.283216369717141 9.16331158505141 -0.3970469765569485 -1.9913901037528605 1.3760330717639722
P 5.377530229553174 6.866544092956703 0.15570137149144767 0.3338999115848185 0.10361622873076995 0.39934477145218966
Ni 3.125037457403125 4.8505359986434895 7.946980636114899 0.09832052754946938 -0.5128659180014973 1.154957537771753
Ni 6.444763976222678 5.6669221539880406 9.824335352136034 -0.06081815972863719 -2.2385381664624155 1.3323222611395829
Ni 1.3855177568862564 5.024867592968078 9.707912623479455 -0.028292676297106113 1.519332478016977 -0.8482406143596296
Ni 8.72784836861237 2.7892870359927833 6.0527266361594485 0.4486546734309112 1.1844036109470117 -0.09123893811233964
Ni 5.648365823957411 3.0058668401531596 9.661867247254623 -0.4147659911032663 0.4952687737450245 -0.7646332246506187
Ni 0.942705901237476 5.5171322066974895 7.477178510688865 0.43258245045939697 0.3658872631246925 -0.2603979857409257
Ni 4.720198331614017 7.467311050573524 11.734649029057266 0.02577068120620078 0.4402973026051514 -0.44510475129612376
Ni 8.191469751783762 7.5526018178720955 5.7124068685738205 0.7665744075373895 0.5898442324297648 -0.49035873803791674
Ni 8.64802566869963 2.9871442513168804 12.523627420290376 -0.058472542314596074 -0.7442202082119054 1.713047360608056
Ni 8.481240376831499 5.488812790135067 11.050684317773005 0.7574043110023472 0.13205160125332743 0.742587814814805
Ni 4.114923913044013 0.2480535197299978 8.90855136983349 0.17369653048762343 1.2451415522570168 0.23212176450405186
Ni 6.3302763153318615 0.683607254852114 9.652039504520628 -0.9388486037561896 0.5348005132910597 -1.076432961902288
Ni 5.3136591383825404 1.2741613035018526 4.0345747269133785 1.890247276263248 1.5264197238810615 -0.37743203053949836
Ni 6.315562411031815 6.035046859498609 5.641217618974482 -0.5017019309648778 -1.3201953959690618 0.03360174721484535
Ni 3.377409087779872 3.3138428044195978 0.15375060150515155 -0.3613603217886163 0.29260310971856063 0.029923269921993626
Ni 5.254110776158814 8.090855464564426 5.3841593375984615 0.43578604499835916 -0.3179881254505685 -0.7879199630927011
Ni 7.652403284263808 7.893441606055396 11.770879593788548 0.17874437732417606 -0.6908194239932619 -0.4830791736573681
Ni 2.1770020377845274 5.232423238621772 13.399787310906312 -0.6656503809268021 1.8206475136872386 -0.9903927943820686
Ni 0.22701439153499162 0.8541740108887558 2.7619919584051713 1.6534677012722105 -2.1131143549382507 -0.9022160401348205
Ni 6.812851735331991 7.713013855523633 7.430633434387049 -1.0659809133310285 0.3384605343723074 -0.424284729226979
Ni 1.0858916793035862 8.51106535924509 4.957495830278475 0.3139306675517432 1.1998924506112303 1.3674586998313996
Ni 5.332400200419449 4.947834346350134 1.299790098392837 0.7467905400422429 0.0006191216412376434 0.8359540836827926
Ni 1.8800638108932026 3.893965960334847 11.45823268074337 1.4952916350176892 -1.368044911352173 1.7752037795321427
Ni 3.8331983668696847 6.717502310291579 3.5224994528307088 0.9970192985596507 -1.0226341709142774 1.3513527954084725
Ni 2.50432867970859 8.025663539548905 12.867651064601878 0.323841498907552 0.3357801593266669 0.4549309933579262
P 6.110907057876687 3.0626811686839717 2.3706926227070233 -0.08037474170432608 -1.0397929420817513 0.020122481781487924
Ni 0.8577236363893883 7.87919876837136 7.691706865919524 0.5330287661026175 -0.266974867627495 -0.5496103246103825
P 3.978268411399831 4.924465747555963 10.45819981965766 -0.04471714040171654 -0.6555582867981226 -0.6620744906500855
Ni 4.583533593369522 0.810639142629241 6.306189109033268 0.32208157879365173 -0.576468068233175 0.8700361129681661
P 1.7670355328519827 1.665109648388073 4.320981382126792 -0.5107298454951011 -0.27890195808238416 0.16717724131186693
P 4.451995168299242 0.7072455623754522 11.37460542516133 -1.3101087011570212 -3.42718538317713 -1.8942674531662342
P -0.10790011754694154 3.3757280265227414 10.613637948040163 0.1426232061215866 0.19907614690299263 -2.5076424217280877
Ni 8.390906425761537 0.9358523438045605 10.604756033178312 -0.7148299279752464 0.015677044415624612 0.8743370543363652
Ni 6.6128423921347546 3.6847939096262197 11.647751093304075 1.0653990726856295 0.5570464691734536 -1.410769703914209
Ni 8.469814702243202 5.837522161785812 1.741086227930106 0.15868051669476543 -3.343950546316189 0.6521232929746447
Ni 0.42871865088982863 3.441834374969339 3.218220899669926 1.2227806680633133 -0.39618360011538867 0.2005301057406998
Ni 1.8236743659768304 3.562944678285223 6.257332111672882 -0.28179110670472113 1.103878973928383 -1.5302293274351388
Ni 8.378621747344047 0.3186460849490574 13.323015460077253 0.5655635055055291 0.634954751615158 0.4818327028447766
Ni 3.653426414960208 2.7463553177337663 4.891660114221076 -0.18731746370516772 -1.0748057107115103 0.426996214620871
Ni 4.8343719480941605 4.819694990195371 12.533711940513093 -0.6743882750204322 1.8688788378898007 -0.6172987290962917
Ni 3.0932820255239295 1.1463637015587034 13.154423489187723 -1.7097949151090293 -0.05040570614606158 -0.9223187244219664
Ni 1.1113292765680727 0.9484048836311536 8.882609454191863 0.7067134695156989 -0.6773123906457627 0.08473301867302181
Ni 7.922906361056745 2.543464155238593 8.753735788312145 0.7140645105641314 -1.3905981140623405 0.4264259439396978
Ni 2.4054139269470123 9.082570767067466 10.659736896546814 1.8978610840547636 -0.4354366320787404 0.2487424037798684
Ni 2.5185345709913713 6.534229686863133 11.154318049634954 1.0039476502483677 -1.638512622624275 0.7777041989019639
Ni 6.134460388677137 2.5260808734478295 -0.04221218709456397 -0.1023497033135205 0.43822499345715493 2.7977618457928464
Ni 5.1719327431660265 4.339077729461789 3.908268835920924 0.6766467320373056 0.6275214352655645 0.24847526616141077
Ni 3.315283714068566 6.611734000097086 1.3143866978688965 0.9654780334182599 -0.6763808799704286 -0.47784055096624806
Ni 6.457076364441109 0.9275486401223626 11.910851958605452 1.3652755761371518 0.15121634710723636 0.0743043671405301
Ni 0.8198960634638336 7.343586789368805 0.936059243651592 -0.388982197270943 0.7376268712651038 0.048715462927832236
Ni 2.8847380636366475 7.322712072659386 9.035356960902925 0.25091652861305175 -2.6404327009196527 1.4964997963931777
Ni 1.2624770041047666 5.728853559092753 2.8944069368452405 0.0483285119020587 -0.9911458704980091 -1.5730430801665554
Ni 6.728918748279562 4.085357555439212 7.392173154339992 -1.0600334374983422 1.0570309032265925 -0.10426029007267205
Ni 1.9275029901054037 7.835602014889742 3.060322140963801 -0.6236946053203065 0.1495937239021488 -0.7384457676219733
Ni 7.8044377254306365 4.592917979288447 4.117538794592878 -0.02328031068417926 0.2245256973243488 0.29597254041142573
Ni 8.274377476201346 9.233635365201335 8.562553864034903 -0.3124648816394941 0.530688548005215 -0.8527585568346411
Ni 3.360265957597269 6.506612251924566 6.17858547569671 -0.5262492812869389 0.6534085874449715 -0.44696211621983667
P 6.212066304514542 1.7727806982472296 7.5897486533545155 -0.06403383845245746 -1.1101951459543977 1.8439113693111857
Ni 3.1814176657191835 8.85779809842866 1.5270178553950797 -0.7972378980595173 1.0798234756410758 -0.5837705154318591
P 8.33668758191893 5.301780870378862 6.259657887631922 -0.3498415225157394 -0.8026752670250047 -0.19628855685552646
Ni 7.90047989549459 1.9136942726361201 3.6666901730109713 -2.9305145868782563 1.5094399014936135 0.8742984877889459
P 3.0817547483321794 8.3869623974275 7.437014077883894 -0.001961494601745009 2.012006237341316 -3.986534018121199
P 1.2021804772556137 3.9461342789077656 1.1502504629707933 -1.3519410638117748 -0.6601991280042436 0.9515876485894127
P 0.6313715090969034 6.899398680273253 12.328174492027987 -0.9518804972394833 -0.4632834790876796 -0.4111235092546726
Ni 0.17670262962516686 0.5932806930624026 6.64821210571678 0.7011377752001344 0.7477827287521832 -0.4214084361204485
