# total energy = -340854.7426645045 ev
CRYSTAL
PRIMVEC
9.41669069049276 0.00000000000000 0.00000000000000

0.00000000000000 9.41669069049276 0.00000000000000

0.00000000000000 0.00000000000000 13.78227867921260

PRIMCOORD
 96 1
Ni 0.5526872197614411 3.3628319864426386 11.057315204240115 0.58857076503398 -0.9868981509652487 -0.7842512559918623
Ni 3.7454509520198416 3.161851562581784 6.71460218663642 0.24191123979064788 -0.36828738792575283 -0.8343602568331114
Ni 0.1727651943235694 6.846630778157101 3.841548277864382 0.5012455601537498 -0.8582144377428897 0.20046737082356442
Ni 2.9212362886984238 3.6980379157016388 11.28078080151122 0.7313088994668759 0.6307867362803974 1.8585034081927478
Ni 7.4017352623520845 0.6793285226867604 5.284690928112438 -0.6427842749619058 0.09316829392456857 1.2254155345829993
Ni 4.483681815019212 4.141281534271213 1.936369119954351 0.384463483464983 -2.958834516868872 -1.0145243973229496
Ni 7.709482122315378 5.955199778541874 2.5730551016950636 -0.24704161903867777 0.14994853613840628 -0.6891888303683744
Ni 5.932684471722246 9.372799236529033 7.143258410059912 -3.2998460997978074 -2.737815032925569 -2.3977786694257093
Ni 1.971798476030539 4.521772327811094 7.1006846109540085 0.3040879704297086 -2.2750198063282174 2.253553666034642
Ni 2.9753916753649547 0.9128257202736102 5.758842008013413 0.18151936896615192 0.16169513515137315 1.1799777139651741
Ni 4.424177748188085 3.923012066779729 8.91087667082127 -0.0703950047837949 -2.0476949489921767 -0.5181665042788044
Ni 4.674294462715947 1.4580897629685887 12.363117307895575 0.9332623679176636 -0.07414958673022069 -0.6178391749807939
Ni 4.289198907555489 7.7514617282551095 8.822808015237882 -0.12124499755612668 -0.9325825682418197 -0.46751217245704646
Ni 8.30592587750081 3.9122487896175233 12.419004423932298 0.23697909259635314 -0.2945378648474282 2.0908673706145926
Ni 3.0488230273429777 2.3172120977163377 3.8349744862747617 -0.05268036111285121 1.0536892404478693 1.4068595702265254
Ni 8.838232554163246 8.432542697031009 0.9747527015525372 0.1615105299443928 -0.20854731961822148 -0.23173352792669769
Ni 9.290054777715122 7.311033700124293 8.281040389699795 0.6427889029475963 -2.277926438452051 0.8815399998427077
Ni 2.472559239750378 5.369613467422954 1.6943102674279757 0.4890328201376416 1.9375799999109402 -0.6623359718415882
Ni 3.1998761585406528 2.541931998152801 13.678635552737353 -0.6397794266973111 -0.16367617013714394 1.899323270422587
Ni 6.514748940620112 0.4323824078268902 2.1453772724073144 3.244724476233315 0.06492344014626238 0.024120804307603622
Ni 0.8406637381656357 5.718765515209711 10.669343791822145 1.2061266044464 1.1438015211549333 0.17283443959764427
Ni 6.103559736276389 5.2163944974262355 6.467444196241861 0.8514058994614885 -0.10294362814377754 1.5074174717469457
Ni 3.393445647032604 5.9815853451284875 6.424788471929211 2.447778398382604 2.284859161016142 -0.5571351722325179
Ni 3.2582125557583814 8.82654644133884 1.736181581427755 1.5555204979017598 -1.072631842988643 -1.011024354589491
P 7.153869136837141 8.097261434248564 3.7637475815265486 2.229366784375793 -1.0810303514649835 1.060642788947567
P 7.6609390831455 7.052178296876809 -0.3783955799190672 0.3122159988534816 -0.11061914241116431 -0.7880842565847073
P 1.2751799680441058 7.428120828938699 1.7700581252519327 0.34750516107307894 -0.8828114103559636 0.046044086743256184
P 1.262853520270416 6.268888570166893 6.402557549160589 -1.9672574723707148 1.9779897711865546 -0.7384565662552507
P 5.278262153555449 5.6226022725321565 9.355534676293525 1.154984020134314 3.2499397018856677 0.5530939122836087
P 7.4474156276310515 0.5486662929475637 11.00156557188368 -1.303684285687916 0.5830938010798087 -0.3580572255573124
P 5.404643555824883 1.339486546994852 4.779018418663984 -0.2375514201600554 -0.37427523007807156 2.3856816290518594
P 7.867776688454204 8.5881817564684 7.3216971603679335 0.5909680616215629 -0.1336485134268021 0.2896535401719334
Ni 8.853600592946028 5.154103090227642 0.5868340226009777 0.2921513668931227 1.1414751870146018 -0.08077969045222862
Ni 2.3117975007187277 8.305087792052484 11.489072343822412 -0.7249623884235579 -1.3251720232480468 -0.7862932261225555
Ni 2.956727794931454 7.466616259419098 13.783656134433954 0.05410372382293908 -1.495931068373901 -1.0419020180049539
Ni 7.424118735505682 1.0992385240382863 8.134755870536189 4.613151453515256 1.964150037089985 1.878829264234293
Ni 1.8193328412682706 1.8656535414965205 7.41403911006874 -1.6706244155571552 0.4381396328322003 0.10221523461818526
Ni 7.441257112089422 2.788517453769179 3.907716536513263 0.38726958545521045 -0.30254402298135635 0.887751013749426
Ni 1.5579631816758102 0.16137288224059784 13.309959880680779 -0.3826508557362765 0.32816917974862836 0.7631286150806341
Ni 0.9057735608101143 2.0846104273894404 3.4426064210947316 -2.8982148463042856 0.26982467837146434 0.03150321281460381
Ni 0.451012388174841 -0.039362707669060505 7.736572057346204 0.4558195666104666 1.6301771061753858 -1.100542453355982
Ni 4.929420856552902 1.9455164930386613 2.8921970987484587 1.8097066984050185 1.4531453406669423 -0.6566782593351788
Ni 5.877031831277246 2.144500578528223 7.0071448582304265 -1.1276961309526385 2.7816471996191705 -1.698760254561423
Ni 0.49504765763557823 4.710200303327925 2.6535988799553385 -0.2645122650196154 -0.5769192968379807 1.575847896605202
Ni 3.629748076698738 -0.07191149814251992 3.9102524512462304 0.4332326824488862 2.342695098188004 0.34968417100226873
Ni 6.966985498550935 4.294359253911472 8.4726276648561 -1.4462920651905349 0.25654364499184207 0.06213276477500267
Ni 4.1629775890233764 9.349700094902708 10.602183014001877 0.41640352670668934 -0.3786383921427737 0.0002545392129673036
Ni 6.9836812906844346 3.1124892713444416 10.818495693221877 0.7002576865880262 0.44354409167722325 1.165335024351335
Ni 6.65066945029577 5.024190429046724 13.655150326803371 -0.6823178142801539 0.18506286334303612 0.8646439954183174
Ni 3.3093075180349594 7.21895730109363 3.8559369808423787 0.48722636305652217 -2.731368248858961 -1.497280383312944
Ni 1.0408456266779733 1.2191129932201574 9.75012131373901 -0.1617516994209214 0.5469502612797161 0.1511494984250429
Ni 6.901341749559039 7.0504456258375745 8.664422107201878 -0.15618089020136328 -2.7082085229130453 -2.220589295293479
Ni 6.2029811538429405 9.290676279283543 13.568418841261133 0.3208081113978668 -0.18480678146817206 -0.5929483252763852
Ni 2.0023556364779207 8.093701925265787 5.3162377827240785 -1.6971224618476837 0.5790049757224157 1.5798385058218338
Ni 5.339470641354519 8.209037549660097 2.9993684525394158 -2.273431635905491 -2.400098061587505 -1.0558119432178268
Ni 5.275211145855926 7.605672527008155 5.588176735655874 -3.258589921361498 0.7199063140568892 -0.16477377407669686
P 4.576690466402506 0.8830595618224009 1.1729872184838213 0.1870025035679102 -0.3062186436194662 -3.0108219656797566
P 2.115384171716727 3.121293876897077 1.9716788840620698 0.5659527705241479 1.147479998447785 -0.2775171619197156
P 3.55188146352789 8.363763190125717 6.908436284129473 0.9120381684315647 0.7251853030676414 -0.6003502741674113
P 3.7180201327954276 1.9950765347750468 10.112306061081753 -0.013384134616389853 -0.46417333789180054 0.7298567404013817
P 2.508691080932691 5.856738863399246 12.09568612467292 0.6513319074216007 1.3943339269556891 -1.345517162563302
P 1.244519224001987 2.290562863797666 12.884735099250207 -1.1735936648157013 0.10118885023619992 -0.7637366809782782
P 8.667837540821067 4.753469995856652 4.899668823137339 0.32987382114456093 -0.37697334573552493 -0.5568076136897702
P 5.776640494596339 3.3106729381474005 12.769997434698244 -0.5688249498656204 0.4280652793153337 -2.3531245210514444
Ni 1.4266380169302972 9.450213848559212 2.590999546979665 -1.528575850992116 -0.6793551321074042 0.28381456489265317
Ni 1.0453750547751044 3.2912368890985877 5.493491913375927 0.024134174044042306 0.48497022003249374 -0.9212589156988843
Ni 5.831558633187752 1.8233349347012864 9.661500840096386 -1.9509337955100272 -0.8448688696739192 -0.8747132067288612
Ni 5.65482618718576 7.038797179774889 0.6978520944328451 -0.7105156168706085 0.44685644387990786 0.04158939340601225
Ni 8.32216025180321 2.800410733783059 6.580348431166984 -0.2856541892045532 0.46318423450565394 -1.079366076388683
Ni 8.267166779688353 5.027806438172084 10.389701986118098 -1.6137446716509758 0.374835987677548 -1.0905102659309607
Ni 4.0186479747931685 4.724570172925061 13.30902197831389 0.13197806770291462 0.6708982595893026 1.6319493675844605
Ni 8.672282218704321 1.3559280884867253 13.483933236386598 0.21913126578165487 0.08291370607609591 0.2630264245027083
Ni 9.016434003872417 9.065108876708324 4.114836642534885 1.1228647710022663 0.8794921161747434 -0.2449356284392685
Ni 6.411353679691836 2.4024425628039356 0.7861712339816882 -0.7602538646360003 -1.2661742045576 -1.2535200061286993
Ni 6.9425962703356126 7.050125458362933 10.875541062181567 0.07095036306663265 0.26880780707117574 2.162816607259385
Ni 6.187961532606092 8.978870825744648 9.331222664939734 0.7689670761392821 0.8073695871768806 2.8515652647665473
Ni 8.93841672365468 8.75512084442254 11.843167212416205 0.12601747924410553 -0.16228520332688823 -0.03699406072584597
Ni 8.608691308226303 3.0563940464492014 1.5939895559252997 1.041136086373207 -0.8603335409684216 -0.11390475514097156
Ni 7.339613355581243 7.172278766629016 5.859797404451114 2.9263560846251924 -0.4265174752122396 -0.4007095130102002
Ni 3.96077299540654 1.015910230417675 8.105840039230864 -0.4851136875888936 -0.535075107108685 0.4642306734922973
Ni 1.606176636680616 4.681799564989156 -0.24675778105125767 -1.5228088666013515 -2.329310192240666 -0.6317902378442474
Ni 2.276456661532588 3.2317516556483223 9.224726487852653 -1.8044655046107374 0.34537911586901165 -1.633410268400703
Ni 2.9539592879448495 4.78155998341121 3.825780971407341 0.2804394777728331 -0.7465552841029852 1.8935958810205067
Ni 5.99980664111175 5.8630386292973355 4.169552322282039 -0.1696305879483659 -0.4691962450276887 -0.6205357479763506
Ni 2.7771420917289817 5.891863118705482 9.454326117270266 1.1611356415580067 -0.49745292588053686 -0.1500385247490513
Ni 9.295120957166798 4.983095992007471 7.694108433518338 -1.6872116304918747 -0.026290044044780532 0.485236586320003
Ni 0.557061272466467 6.804246254528853 12.87394357201671 -0.28860992939876745 0.36549002768627376 0.7576213121091597
Ni 5.2242856840071 5.294637778214308 11.530942716153149 1.014937316490652 0.37194041129730787 -1.4043676570426071
P 4.635365864475738 6.034422395134731 2.431442202654092 -0.5666505679221209 3.0177485175962606 0.06753053875180627
P 4.639367957908754 4.506187705148409 5.2862616320762665 -1.6452576546575925 -0.5084119959952018 -1.0218566693183047
P 8.628833609057413 3.0376830825635475 8.678631893061693 1.53246335897198 -0.5807592394093611 1.6890502263625105
P 8.815688997272328 0.9027338531391081 2.15416963626239 -0.2587591645859221 0.5867169996546927 -0.5538163922719301
P 0.6970545007533712 8.558792265634416 9.922578582285498 0.194142199936485 -0.9193565564698489 0.48153265510585463
P 4.6940600959298315 7.971501533547552 12.42158177210316 0.07029010377481443 0.5473840063830251 -0.10811745903523315
P 6.734703995698679 3.8099458647792 2.2234124443368706 -0.4976760976349364 2.6177828247306207 1.060143737823961
P 0.3069398495933896 1.2491334023129936 5.612323013258085 0.21972673327380868 -0.4947967192046124 0.302659208402982
