# total energy = -381173.3465756707 ev
CRYSTAL
PRIMVEC
9.22764872442319 0.00000000000000 0.00000000000000
0.00000000000000 9.22764872442319 0.00000000000000
0.00000000000000 0.00000000000000 13.50559665322149
PRIMCOORD
 96 1
Ni 0.6193524021317223 3.862546125309968 12.636538750243535 -0.45731903397412854 0.6261731487677861 -1.5063442932874251
Ni 6.904929601871596 4.251639162597156 6.0783426640619425 0.0130113246580034 0.49553231181905627 0.7033862049146788
Ni 9.283568303684198 2.9452901563904996 6.212979595946457 -0.949652636350229 -0.02803016666433882 0.2596150848283142
Ni 0.03533820366159971 9.053329239666919 0.5330960326552313 0.02837366604668662 0.1056869952168696 0.06996640188680854
Ni 9.211269675710355 0.7079304480342782 5.151223261391198 -1.1066948461106232 0.9310373352418869 -1.026182293276852
Ni 0.8394945728842949 6.799116153629597 12.858448938497038 -0.8703693279378687 0.2336294593978299 -0.193748306932176
Ni 2.892203493118831 3.3138239922576846 3.816586897934534 1.421254919716249 1.0484097372164847 1.0177655299680666
Ni 2.86585855593117 2.5036456594592735 12.417437458270214 -0.39963119234435696 0.7268187249060063 -0.9119558931304036
Ni 3.2248694582860367 4.330203364073775 6.937541035326907 0.8116029085319376 -0.3676189011038185 1.0052015772601268
Ni 1.7466185834737977 0.19987548579801562 12.12539252567527 0.28687700586806075 -0.45203027477136337 0.8051604953407036
Ni 0.48042184528278786 6.879258283042849 4.302451210451396 0.9446472127158375 -1.0914893420147782 -0.10326193071514474
Ni 6.989611734470954 8.137282092733995 1.9321782949975794 -1.0166836097577976 1.118367654462861 -0.7632527993633242
Ni 5.155367398445833 6.077523248852743 13.363085979635468 -0.5605699089456798 -1.707450326136253 -0.41382316757402277
Ni 3.3230331857124256 8.658293596583285 8.14907410507449 -0.21302361022202024 0.4454850174536779 0.388160472700596
Ni 2.4676762846230202 2.20065581267929 5.974389509808395 -1.988035842568647 1.2286270995417616 0.11363556063998495
Ni 7.899734730904937 8.819648262665051 8.526515390282217 -0.2179873819851988 0.30051516547678564 0.38870066147478216
Ni 2.897878497101462 6.811979495990227 3.7021677444661893 -1.7658889298891198 0.971051156630663 0.4899643308129755
Ni 5.924215092482934 6.833018535145346 5.623486942412127 -0.9507420127596659 -0.5258661869159073 -0.6393248556583958
Ni 3.4059989756438656 1.933413877165505 8.626389001022396 -1.2856104589053408 1.0303240833593676 0.46571754245046887
Ni 4.099364502887599 5.322517027944009 4.954838595116158 -0.19198967236985645 0.2529736682523966 0.40546296853478553
Ni 4.634568130517843 6.440105251274729 7.543266968546188 1.043366261255306 -0.7327973110869445 0.5250830288929795
Ni 8.290304191992483 2.084082925992171 8.637693793508772 -1.2327133537959931 0.8015151852786325 0.18135044748845544
Ni 7.105529458096663 4.8324181474147405 13.129479746588494 0.8885056325272632 -0.06859471835026251 -0.8822660793754548
Ni 2.546535770859711 6.8153014495410345 6.763332254533263 -0.897236584642358 -1.3440264369503885 -1.6384069502843461
P 8.035556492889238 3.5923882527904745 11.17960835787336 -0.9452053992121529 0.6874710763463192 -0.5204527292098198
Ni 7.201044850331157 6.309783167946765 7.481978771063524 -0.13690275869804167 0.7506631356237717 -0.6177288746551749
P 3.8136672698693235 8.17408195595795 5.393392752480257 1.3118488237765793 -0.4340292102082525 -0.3550562339474595
Ni 0.7130176507913911 2.179626001172922 0.7762399634525265 1.1202995813782513 -0.42475729798802325 0.6922016490527692
P 2.046895501520621 7.321068877651616 11.049766112280512 0.21260734862020803 0.23691147258321132 -0.3336916522287543
P 1.832112749163353 2.680899564341159 10.506408934212782 0.6136156238177497 -0.31598369342603 0.38282929029566976
P 5.3754375935381375 2.200065243159146 3.2065119738583197 0.04244839897219787 -0.7073960974050204 0.5827814120457124
Ni 1.0714499795694923 5.071801811345496 7.920343761628201 -0.32985788030496094 1.0792874006319477 -1.0780674121819174
Ni 1.2789336617637344 8.920220406415776 3.280454968839814 -1.6373137172201673 0.7097540561142358 2.9763702117597903
Ni 5.099936912391093 8.311721564746446 13.388652103268441 3.1161940007593687 -0.019176315818134716 -0.23314120690750167
Ni 8.324511085917058 5.941673803922184 11.271608938698124 -0.7309700280702185 -0.5095741346241031 -0.27386439565847676
Ni 4.572309184386443 9.094392276614412 2.1520085712223262 -0.7021957841510035 -0.5307176014709376 0.6592689028804904
Ni 4.453567800242546 6.613566592519442 10.770213570566357 -0.7448897234751042 1.5860112102914492 1.2567742513999387
Ni 6.253171542851738 1.2094771496055818 1.1847064492950536 0.1999528930809911 -1.2914617754797952 -0.8145056840010295
Ni 6.34329798821492 8.633388172600974 4.201915054530805 -0.9300598018199661 2.2615526250797178 0.4113448812368593
Ni 5.328201259575391 0.9376675279594356 8.821598987611276 1.697077210432045 -0.233433798447256 -0.23938050294899416
Ni 2.4213258049404907 4.236911835188572 0.6124399704514151 1.5651875886778785 -0.6836419324082161 0.032930946400065865
Ni 6.666228783948507 1.9082869896131405 6.699141038753141 0.14629294166369 0.573395085734806 0.3581248455704542
Ni 8.45050540198022 4.540427657947434 4.274980500115961 0.298942164562711 -0.4375508502082658 -0.49465685119263836
Ni 0.5088190115529484 0.9436193614046341 7.525426232448597 0.9147581384658892 -0.9549043716674716 -1.4104349462826096
Ni 7.796117463065971 2.712974871403965 13.36662386016708 -0.5895696386121394 -1.7561783874695756 0.11887983975805978
Ni 6.206036713025267 2.99825686022839 9.537733738151175 -0.2973629930010492 0.894957301689878 0.1622008711431981
Ni 7.438352293292657 2.2721885458066975 4.317347403832146 -1.014555507671201 0.8457438160797047 0.8693115760973158
Ni 8.75434419244541 8.625258614050246 11.632991346782315 -0.26303850868756634 -1.0507173023037386 -0.4386798216063864
Ni 8.005465130308167 4.514027354867259 8.821248336958691 0.8206161677741417 -1.0354624330271975 0.7669384757450275
Ni 1.3125961244119264 4.996273506308366 2.7948342662500107 0.41385607769448723 -0.0058433461546544534 0.6438970484101104
Ni 3.735979695024168 4.2778364574047805 9.91682215866118 -0.5067153250190692 -1.1578621130130573 -1.358491977556415
Ni 7.474155570451369 7.290709913256728 13.190227203854278 -0.353707690339365 0.06640285290526629 -0.009104019183797224
Ni 8.465306550578822 3.9707403069300478 1.862287160583196 -0.5057347062733548 -0.3012967808378166 0.3733668593311893
Ni 3.6822470963398417 9.020635680137714 10.68701893494586 -0.6223275497694508 -0.8064807568140239 -0.6763238014802482
Ni 4.946148918286168 3.229261819092106 5.188296263018221 -0.22127325182532215 -2.0682825433355414 0.7764073344674113
Ni 6.6702797217507435 7.764079066598174 10.68701893494586 -0.3562787935006509 0.8671137971150487 -0.15844063276981746
P 9.849407725171899 5.203009748953676 0.7946232852967502 -0.9309535172788288 0.7530365209519547 0.16807481342547184
Ni 3.773139436549461 0.7276231732364454 -0.04502354379195669 -1.3892138321203042 0.7177998092368477 0.5862498302102872
P 5.408712494938736 8.109783699452302 8.753828366880159 0.8026174172038758 -1.6765610927565642 0.5636791439986228
Ni 8.915911094448477 6.717746746932295 9.002615004889453 0.9603078020712299 0.5801894829488201 0.7838936155421274
P 2.0910867113951257 0.7418660490855364 1.7634793432739009 0.9982871095284808 1.2434857618211488 -1.8769320472115805
P 8.386327104908352 8.4307028677579 3.643202146174465 0.21235126674534396 2.084737346457455 -0.4049194373264898
P 4.713316884969507 3.5136025877438013 13.185932656124981 -1.077160584096932 0.28641703551250675 -1.1533117746382138
Ni 1.9556063724146557 7.744147345293324 1.6137570512092152 0.442270110060806 -0.8987069985402975 -1.8692166808451935
Ni 2.8684422975817987 5.180789570758269 11.941419046972 0.45834644679737835 0.1333222404356349 0.6846590608188209
Ni 2.8463882170639314 6.413335842244464 9.171380395684148 -1.7450951330722204 0.057335343386359316 -0.017308666481776643
Ni 3.096439042952283 7.4444333138203875 12.987197707712745 -0.0758799391577661 0.021389778529685745 -1.0180226402841952
Ni 1.8854762418975894 8.961744825800881 5.948594540486368 0.6494058940434817 0.4124031472980446 -0.6799817099478096
Ni 8.825332494296434 7.865878487632948 6.3221316075070195 -1.1054339771203285 0.9818880993451671 0.054186513344732484
Ni 3.8086843395431105 4.88053110800895 2.360534977725572 0.8855128684475266 0.524190084765065 0.12878038670122335
Ni 5.509469191664504 4.698008215689532 11.316393486387396 0.5002747116000481 -2.0852788207832216 2.4919291247578887
Ni 7.366238218293858 6.590239096473765 3.7567705104278524 0.27151312181748083 -1.7265605646031426 0.6434396491577177
Ni 1.1130851307396243 4.923947195388265 10.424335457915685 -0.22980854298984293 -0.3667853494589296 -0.9978495077704299
Ni 5.091991906815409 1.4279878720587573 11.267273789314318 0.4586318392482811 0.9505571504423695 1.0585380838997382
Ni 8.285505814641317 1.4506325220967682 2.427063556934637 0.5669930388632042 -1.158590763648966 -0.6523210108077476
Ni 1.2928305007846164 2.9335525871776436 8.508579609402476 -0.13749565508703418 -0.18080923027300475 -0.608035815737127
Ni 6.067834217662885 4.3910320246485774 3.4412799678832013 0.19096868730450983 -0.15165523441686785 2.282136105658024
Ni 3.1946581362711846 0.9214148702121056 3.978303287847388 0.7118932139444255 -0.08588770110275531 0.28184895652585007
Ni 6.093210251731561 5.76824937327248 9.517353553116967 0.8572479600645623 -0.20201620336792306 -1.9007147514534748
Ni 6.396163187916535 8.861126543806396 6.6859455010374305 -0.6284385477631951 -0.25778188827431736 0.6149338284085409
Ni 3.648695365476677 2.3830402902674237 1.80325420045558 -0.0887295414269246 -0.6076815177215019 -0.6844268902033568
Ni 1.3852084924433468 4.680069666515167 5.328214178283646 0.999789147995304 0.5497908160523047 0.12266733182495003
Ni 5.865287327551094 3.4140362577070715 1.397437895334698 0.541771545292254 0.8208185135929348 -0.6112031577215151
Ni 8.8919653459364 6.893828740422644 1.7956902967733643 0.6810163218599111 -0.8773164486796634 -0.19276074620792608
Ni 6.693127380061304 5.596522829993189 1.7200318818888276 0.0796355495454564 1.9735286500914073 -0.6941659718679916
Ni 1.0302300725932112 0.4327296654716818 9.788478483225695 0.2075042230656878 -0.03789497527356054 -0.011013320391368129
Ni 4.186408913567532 1.0051677785821123 6.53905886543431 1.7622029963971007 -1.1735116466248565 -0.657758379773235
Ni 5.069457988562426 6.789002650597135 3.2350226402081326 1.5636593249588104 0.35832230629324097 0.08597846104434871
P 5.40462464654149 4.201616078711233 7.794053238040094 -0.14779780834399062 0.24715449046745822 -0.15622717005826645
Ni -0.08525978341124836 1.6541114047325356 11.75285389024961 1.4996026036882173 1.5165055500911433 -0.010002619738666644
P 3.922082915059457 6.891641787668363 1.4372247484597553 0.15839820956765624 0.276868215481807 0.4234552913471482
Ni 0.8566644589175981 2.6899703430646165 3.689134613368518 -1.9076667572912755 -0.8193329301863438 0.11211706711292949
P 8.786327223020693 5.792425813003363 6.036043122181648 -0.05786524774790035 -2.0282998322950165 0.3958701826400279
P 1.0784722202699513 8.070437005172728 7.810691611505267 0.3465227425551516 0.06875721207005578 2.077150278138816
P 6.704154420320236 0.30214182585965255 12.563676312930928 0.7339663916943812 0.09863163103198497 -0.2615058740931238
Ni 7.380771765078644 1.0147737609332 10.481490591522219 -0.9383796345395711 -0.1552144125230359 0.10587777107143702
