# total energy = -340875.3060434774 ev
CRYSTAL
PRIMVEC
9.21196310990382 0.00000000000000 0.00000000000000
0.00000000000000 9.21196310990382 0.00000000000000
0.00000000000000 0.00000000000000 13.48263917084339
PRIMCOORD
 96 1
Ni 0.16880829860601876 7.785785212057481 4.283191497763419 1.1819379230153386 0.3963414658494916 0.639915180944227
Ni 2.702080588271327 3.3722324639700014 5.985294170132864 0.45441702983598514 -1.6175655880589626 -0.01771412945031143
Ni 8.182314154288875 4.365189942959942 0.2701030424502843 1.407030805697067 0.7650602848857082 1.6866824974612824
Ni 6.976108946556582 8.407758521886247 7.734396277123392 -1.0015179577609525 -1.3167064089791969 -1.3875426150654684
Ni 2.7987140788975857 0.5169873324579102 12.142963510899438 0.07230584865326257 -1.7809872189831393 -1.5805221621524197
Ni 4.8010723906208295 2.342961427301442 7.348672046155634 0.23728813919633973 -0.6259620611982446 0.27130949044710695
Ni 5.819915485307603 4.209728857372835 2.0967394774249914 0.5626723000006633 -1.0368449151970207 -0.6094337245259182
Ni 8.147511358522811 4.951236597551111 9.745885486454716 0.005147862749526618 1.3013782632625588 1.3178495214447046
Ni 2.441068831988731 6.983091614420711 1.2081037932821563 -1.2242289704740656 1.0499511135616755 -1.2244649977442719
Ni 8.73669929245655 0.5200668916491742 8.251833153369915 -0.10660436482481639 1.386027978193155 -0.612472768462558
Ni 0.6153867563685406 7.918308510069813 12.464146887527283 -0.07630288562779762 0.2956843197470456 -0.30197992294777026
Ni 1.1280232787575488 3.822071035396264 4.402000946634159 -1.2401968066572318 0.2566588304134677 -0.8943348376145307
Ni 6.934176091520287 3.5881424499850887 5.818311682569946 0.33659854146290413 1.41308678208316 0.04823800907078144
Ni 7.565020521603877 7.626058987656269 0.09185432428337038 0.09638577242060174 0.4084472479740901 0.17672477579098597
Ni 3.175759719634744 2.7075064344084923 12.054611574903591 0.7850974060422414 2.069730074415345 -0.19148239371613476
Ni 4.774882780148908 8.27526285976256 5.837767348175538 1.095280176515778 -0.034529144125121175 -0.1005041654643495
Ni 1.192553078742005 1.154194465303707 9.996136748895506 0.16675583750373216 0.3129806449336481 -1.0631233892775753
Ni 2.162093748087336 1.5931076487525866 7.698182208643893 -1.07204563146787 -0.22757014057762745 -0.35170428675609106
Ni 8.739177310471655 4.7752512586641656 7.270513147088093 0.29637260406332183 0.6825535844400439 -0.719834066058057
Ni 3.3713757514220286 1.8839661647710333 9.850065417073445 1.8287549732857216 0.13510812869146407 -0.6724470921336613
Ni 8.702237339317099 6.263922884229917 2.4701003330095754 1.065861099923713 -2.5955373830688586 -0.38967639512449015
Ni 2.3593034494531087 8.207260149771802 5.690253422966245 -1.6185192102214836 1.3342475031867536 -0.22069963871003928
Ni 2.0871267941582134 8.165741833065173 10.3125068749178 -0.5596065165911459 -0.5121130989958728 0.6877731809677704
Ni 5.3030875198075424 7.926691396291919 3.3209494666090498 0.15724378424823887 -1.2780825259594117 0.9516372708804256
P 4.216610193645268 3.9983235212067703 10.211292275150603 -0.5731834839446323 -0.9801860290523956 -0.44368884478520365
P 8.436462998224801 5.185948199807207 5.019694378508211 0.10632514302150076 0.30661047974124617 0.22490442082000622
P 7.491177427146289 2.6533769405171768 1.5733028497537882 -0.05479380791142822 -0.948325175788057 -1.124773815099521
P 3.553321230293262 0.8734064671072459 6.00634074172808 -1.2226276874252169 1.1523668942264413 -2.1967448845757134
P 1.304579759343143 8.606230262166777 8.363954717188735 0.8257231499834037 1.3787101043755028 -0.4454685623934457
P 7.069969636355529 6.053844070718778 8.247856348994 -0.18723287441116143 1.668728741196339 -0.8606508150985243
P 2.036866324677101 6.327872330552842 3.2258829308689227 -0.6696489605632338 -0.46413939933007164 1.1274716736466583
P 1.4655680226591112 3.7506598991393747 7.95752107246722 0.1132835766172049 0.16039929915808504 -1.7251634271452998
Ni 7.998452587138303 3.7401398375287758 3.325695469885565 0.46769960587750425 0.7220475287696081 0.4857811459695633
Ni 5.955395823404876 5.2635497751204205 4.246101371613896 0.3335322438327546 0.40916715685925015 -0.7567486796962193
Ni 4.693697751274817 7.217001775906122 8.420582495413493 0.450357772164947 -1.4148040218845825 -0.6654747745808861
Ni 8.695742905485686 7.4754986663220855 9.214628823493461 1.7322169915579717 -0.7526559976840844 0.9612683662122864
Ni 3.7777614939365582 4.475604530056828 0.42539094313522 -0.1365731432727648 -0.37538131865805674 -0.24574218350096388
Ni 1.857454135598262 6.530102551688997 8.492444096655284 0.9015647797040666 -1.4049587536593866 0.17371118577564276
Ni 3.5970688420171997 4.276552436114769 7.950253754950055 0.45412186719306946 1.5898205567352104 1.402515691435533
Ni 3.0131225149629985 8.404221128139776 3.155746730274825 -1.5092799788769813 0.5518811229224301 0.12338132717283913
Ni 3.648849285373749 6.493512635123936 4.657793204748133 0.9313047299706607 -1.1210174333808824 -0.4784730423439244
Ni 1.982257808715951 4.269219713661147 9.98584882874952 0.38426576563188014 -0.5268717453622861 -0.5606719817411828
Ni 8.086242593398383 1.3357991015483281 10.593606237459655 0.7172688764340421 -0.9057937301837498 -0.8094526949581544
Ni 1.3389772287424235 1.3224878151846537 4.887672211276628 1.2300103530425333 -1.0364564215093504 1.2016639406893563
Ni 6.321691103459399 4.077749065170508 8.12250824887002 0.0706287180611558 -0.15175705010205476 -0.2476386291927284
Ni 2.3704959843540534 0.5453776808622065 0.928766679239521 -0.6800228475983902 -0.10788657397134968 1.3764531900205264
Ni 6.490500323261706 0.6152872671694211 0.7217361042458499 1.0848196433040866 0.5672990001393973 1.5791173113850934
Ni 7.955607747776745 6.035162209995227 11.931542514396474 0.9562693703357982 0.3082791256929207 -0.50875215294344
Ni 8.626745303503734 1.4402535486609263 3.8502909624872537 -2.8614177320805947 -1.3667961265467363 -0.24487623595624278
Ni 1.5420549504636705 4.6767845874245 1.7088034541694004 -0.4790875359994716 1.619616299940404 0.8555865132017393
Ni 0.3567516865093554 3.2866809646901096 11.464678393172743 0.38745316222092624 1.381497694422969 -1.2007465710814094
Ni 8.82717919187801 0.5026839176919052 0.9248359346780125 1.1781959394744033 0.7099510026163902 -0.8503944274778387
Ni 4.219475114101394 5.887577352671748 2.343606264703143 0.06343605696745849 1.085666050464782 -0.28335639430931203
Ni 5.976325403071498 5.313635217306786 13.3437944594867 -0.418960231690272 1.4445511712400283 1.1904508455823564
Ni 1.3748854600542593 2.9881028237770195 0.12758107992644196 -0.010883479681723192 -1.0271968505842952 -0.37877208950716057
Ni 3.348659050956408 1.9457415878539401 3.93496179811568 -0.4195101906564711 -1.5304558416236482 0.658112420678544
P 3.0333427734877496 3.0178206160325307 1.7723061202925765 -0.14660841602157978 -1.7696208861277263 0.9100813018155102
P 0.41402522333210484 6.192235389086585 0.31094612227770524 -0.8472929057343795 -0.22492807496909006 0.20599087174495492
P 8.615589616454315 0.18235080523801717 5.898344294887569 1.4821450703334023 -1.2376254463856298 -0.2374352062971653
P 0.7777577353130122 9.135024567449824 2.6093898177583217 0.6943408068829591 0.7523562070554785 0.5165066000778783
P 6.4104115179705055 0.41657233106882174 3.4461216182419965 0.17663992938666354 0.8576547085846777 0.15464439895217882
P 3.7623683039616798 6.472444876014093 13.125201028684252 1.5139694139328508 0.09793434785464424 -1.3479509688157751
P 4.536237669742438 0.8599210746451122 13.422331049032382 -0.9303693626405848 -0.132020748015392 -0.24592473182541516
P 7.688488460103758 8.502393016567236 11.377729439123739 -0.3295686311993163 -0.3413280857280896 0.8618911152635286
Ni 4.486216711296243 1.0093455609560142 2.1823941506891558 0.5634294898816619 -0.030827784014134003 -0.33166125206228686
Ni 4.111050310986897 0.21196542350925626 7.860270380327904 0.3175757205034982 -1.1875195308681743 2.286206933293289
Ni 7.056989980655587 7.47944138643534 5.197408802828002 0.699845281640956 0.3093304497755705 -0.05833061742009309
Ni 5.440990604142632 7.731324087502433 12.027646317157052 -0.6062630401074205 0.03695343729589765 -0.5712451292713387
Ni 5.494723983630046 2.921739843179158 13.437418401839595 0.44454836457202146 -0.4969579885219893 0.24488909147204924
Ni 7.769774820569546 8.225297173093654 2.4753585214222986 -1.301960875238906 1.9266414986215659 0.49225929749473935
Ni 6.7036282964866 1.0269864698739635 5.952705930243497 -1.0697257250854415 -0.5516422674387468 -0.2927542905844442
Ni 5.757357045379774 5.7910083457856585 6.474943160347538 -1.0678074250168061 0.49028289049465884 0.7371540453937433
Ni 2.081995730833254 5.039330598586279 12.19067871503641 -0.4129114543930308 0.826827438791176 1.1563271644257698
Ni 6.213597931008634 1.1255821085939683 11.953572923627428 -1.5320843783660065 -1.0201152611471656 -0.9651484179929828
Ni 5.97563450585539 2.365033290365362 4.038630464794492 -0.6553209739763358 0.771916131465277 -1.1212403480249657
Ni 6.340584839329224 2.8984243651262442 10.099467336536568 -0.646385619159919 0.4506627049998755 0.922713902977856
Ni 6.570469373035449 7.317983313012419 9.918638347566564 -1.3736555726707311 -0.009461402523215963 1.0354482919598103
Ni 3.7368235308914586 4.079563821858151 3.714373056153112 -0.20540491733449787 1.18343610482742 0.5076872020140353
Ni 3.63473655823939 6.267884028268934 10.529118812504452 -0.7891690050084538 0.24851768936357202 0.30510047085462294
Ni 5.106006785922109 7.879609054004902 0.9116619065612714 -0.7037775268158266 -0.36746283514192846 0.18980346335181505
Ni 1.759411214651143 5.526284168461844 5.918743265492221 -1.0083527212945989 0.8937391130120608 0.6864503483912888
Ni 5.630609648094103 5.282968592874488 11.102481515404172 1.2716791935362295 -0.2974318985657716 -0.7928695937884925
Ni 8.982363918578674 3.061789314865623 9.037291168455521 -0.09447749965429535 -2.3308312568708827 -0.9578341437197568
Ni 8.09219352141979 2.2130451147845562 12.739731969088309 -0.2626916668711089 -1.101192428235155 2.760977587084961
Ni 8.782491959940165 2.4919465029828993 6.125728701867772 1.895168881934581 -1.1179452222134618 0.9542891066809759
Ni 0.861780048754586 2.488252505867444 2.482450811644716 0.9925000705330586 -0.8659616857884762 -0.7673439387135623
Ni 0.25009834385695884 7.29032900044235 6.958025863420325 -1.337557284286277 0.9717474113667395 -1.882343705145455
Ni 6.0316524521374 0.5464213962566732 9.566444740290942 -0.7465653114053142 -0.38711609059648167 -0.3438503379293111
P 0.7362615273172974 1.2018663732151365 12.013880881023322 -0.1189870547598854 -0.2881476450503683 2.2028728518503224
P 3.3492578285437014 6.7692635320168275 6.806035845446942 1.2188705343756299 -1.3563646468007673 0.7295268678657888
P 4.886301471199871 3.60149979616317 5.663895233573594 -1.5586677852814899 1.6498187916657137 -1.1523260136861766
P 0.9380818161052288 6.124020803949555 10.563215971913797 -0.44052767344840266 0.4301735839075882 0.5516384107840048
P 6.930030708223642 1.9252265465169833 7.948730096289466 0.3886834350836016 0.3173142393119954 1.0319940148626225
P 6.464734463082331 6.321847706828383 2.2214261586140864 0.1593466895238546 -0.05444233810928044 -0.6204727559488992
P 4.217126063566628 8.435891856526151 10.13816218662004 0.831778097928232 0.7654024987164754 0.5450820977227259
P 7.248644868403854 3.9440650598351152 11.861728732503227 -0.4797711923300576 0.46496600899642504 -1.0758246388943278
