# total energy = -340871.5214065208 ev
CRYSTAL
PRIMVEC
9.19701887757606 0.00000000000000 0.00000000000000
0.00000000000000 9.19701887757606 0.00000000000000
0.00000000000000 0.00000000000000 13.46076677625059
PRIMCOORD
 96 1
Ni 8.336913707947128 4.100077018325136 0.7563242082605224 1.704946842988109 -0.04923636842830875 -1.0564948282174642
Ni 3.596411474350623 1.1453599478564374 10.814662340953788 -0.017554463943995575 -1.985382721216516 1.4388425508910252
Ni 4.585155387068247 1.9283021682667487 5.745930458331589 -0.5700076573198118 -1.1530050420310722 -0.9833253460123259
Ni 0.9344355160123158 1.6724043139181466 7.68784789340317 -0.7652158366269659 -0.8381552050991694 0.837514486191377
Ni 1.822849149363605 8.3022593406676 0.5416004879017585 0.1796632895940196 0.9328779879950514 -0.14213983872726488
Ni 0.9685656532135688 6.253908484476316 0.9554865726116011 -1.2916687492842787 -1.5767243856728845 0.3683154129502108
Ni 8.976014552494437 6.752478879970772 12.023708885705272 -0.031153799894985058 -0.4685074464907802 0.8461593063505685
Ni 0.9287149702458972 9.206491846556254 3.41225036755518 1.0139613257306277 -0.23025745760180344 0.7343214610409546
Ni 5.976434423748264 4.029407124966357 0.7322546900526542 -1.0207950608230096 -0.6086770488655517 0.8357841337638315
Ni 3.2715451751429003 1.122698493244773 7.55599943020803 0.7049995721483858 -0.7636438641541559 1.141029614836751
Ni 5.428006988704364 3.5520542521135865 11.362583020255357 -3.4103212604319393 0.34794250572081364 3.1157111475856794
Ni 2.3277654879108396 2.9426505816495 11.742149509174256 -0.8255544856160234 0.6636865723322118 0.9854534480989221
Ni 3.089223472130872 1.3960706835358112 3.7477603767556293 1.0702039502734406 -1.2573872023935893 0.6507130428906793
Ni 7.57139064136575 1.5597132411272674 3.931755017508674 0.03937207403971929 -0.45549586472246073 -0.5047515164244791
Ni 2.363817802065761 1.5741985459216554 1.5579354573705977 -1.7857319327569763 -0.3426378056784486 0.47277933439325676
Ni 4.153787608800835 7.717365725617511 9.710960290282227 -0.9460638905577062 0.538146546945157 0.4519726820605507
Ni 5.392184600022369 2.721646217072268 3.379056486879685 -0.6762988617795836 -0.6615337876552672 -1.1878733146631673
Ni 1.0736323973221955 3.82660366082601 6.872663683775281 0.7849837632825126 1.5847122889743677 -0.9780604980689608
Ni 4.366808960958048 4.899932556523941 3.14020806619955 0.7702333444462155 0.6883809897550983 -1.367854906828554
Ni 7.369322938738768 0.8662589344819552 7.6300740599699095 0.15627833501117602 1.6189951214166374 1.0071414745953173
Ni 5.597158560627145 0.8964978129793951 9.59580349671968 -0.02134966932036968 0.0009698201124370393 0.18457641062492083
Ni 1.5730581155759384 0.31851575764548457 5.662002142501959 -2.8031164252365404 0.8127678753743165 0.7875342976185082
Ni 3.7641926904547613 4.489110918517268 13.140131333241035 -0.029378967382749404 0.15896590914566813 0.17085880392851222
Ni 0.5470432836968815 1.473436006666218 13.357078892773947 1.3432970149835317 0.28632473290901655 -1.5974114817085907
P 8.745849957075801 7.806448050848267 10.188952355949734 -0.0972306369194003 0.3077389369187345 -0.2277215785538272
P 6.095425454497337 0.6084425819872519 11.859096962319956 -0.8727082604836905 0.7285758168064291 -1.259398062176031
P 2.1209981086172345 0.0843982834962916 9.340345259875315 1.3065487517199046 -0.6492457143165334 -1.4218370174719641
P 1.4036674211613125 7.3648072024504865 5.46711731164921 -0.11347743779556586 -1.3536580465028816 -0.36252811684447245
P 2.573528227412829 0.9667354464490715 13.019132593262366 1.2711811708538883 -0.21792618972996014 -2.860357666247196
P 7.219144816841904 6.3219204393680615 7.607042885197779 1.086888095797341 -1.81652320710622 -1.273350667701381
P 8.796019695268429 2.4355729436567537 9.36760338454173 1.0165319146712815 1.2757893590498608 -2.0497682865814375
P 8.841029905848577 7.873062058864617 0.3433973726237303 -0.639995399362859 0.7251745044343639 0.32171545370348464
Ni 9.562324508457756 6.3542847489372365 7.659741803592599 0.09717844352522617 -2.8994515469248645 -1.2138702529475611
Ni 1.5343110748783155 6.918724193915759 9.639982296789727 0.24627285919345332 -1.3586896953895182 -0.8240064244026132
Ni 4.644981995123798 1.8840920983323854 -0.2804318220117825 0.4704889956971833 1.573319987977026 -2.0259565288738206
Ni 8.45885698176858 9.078496934287367 2.0381486031065776 -0.8160159499979688 -0.7659979662086291 -1.369934415065402
Ni 8.164773104876296 5.70618921988903 10.140117105201975 -0.6766217923366412 -0.17148949553397563 -0.9476888277556388
Ni 2.373741385477281 7.95524661990757 7.497673775639746 0.3302736276861409 -0.3801499436912937 0.6452275942960759
Ni 0.9231967588956542 4.391640912034142 9.540211196173548 1.1883086024283727 -0.2691747034922912 -0.09236482418666674
Ni 5.754915026111676 5.654069713685985 10.193784469688763 -0.372446661509765 -0.14415018428907433 -0.892807602336727
Ni 5.247423522267661 0.2595518299643547 4.147868407425807 0.6774838832266203 -0.34170886610627604 -0.5746037613309265
Ni 0.8781580375568625 1.176372295644803 10.596544920614626 0.4651914947436698 1.5936777256977714 0.8854264793813074
Ni 4.3604538208863515 0.5383640569448409 1.3940243468267628 -0.8423998393081362 -2.033028348118937 1.3565528515521732
Ni 2.838779450000093 2.640307781769686 9.403247351056736 -0.3608712979673398 1.5999445325430899 -1.311248214078103
Ni 6.612426675901604 8.615224697396634 6.1586503610427465 -2.6203063624834226 -1.3375320874752965 0.14539048445407865
Ni 2.148432816046859 6.3332879547495615 12.251626649402466 1.3311593511797333 -0.6476850546976328 0.8317058499293999
Ni 5.697994676033919 2.6007146153316927 7.598387570694922 1.2558815643823402 0.20549259195229772 1.3798974398153847
Ni 5.483897272663408 6.4661572870444965 0.4900419998526547 0.9878330040746922 -1.1218476425916615 -1.6272614751904877
Ni 8.30129365368131 7.103381939732723 5.6728380701900525 1.2958740456148778 -0.5004919698171767 1.0794084995908444
Ni 8.211613522220944 4.214681071050766 8.185169333728686 -0.76724315146964 -0.07312114546570632 -1.07805661354864
Ni 3.457941157535192 8.592894335465983 5.3682879857701415 2.3491423964752447 -1.742998912664824 -0.16682140063434495
Ni 6.330942714925708 8.684588614069188 0.16150241128945367 0.5897714702103004 0.12503300384364918 1.5146684968824042
Ni 3.9064153909883577 8.33046659768626 12.688616565333886 0.97322836678764 0.21594001253786682 -0.14650505767449606
Ni 9.155724302134018 8.45254782679147 8.001901257470092 -0.25317010053391886 1.6528362383357984 0.27151132204526784
Ni 3.91199798147102 3.9733145065911373 7.108577335718978 -2.0649159408561535 -2.302723185780757 1.3070100076270394
Ni 7.867562241552209 3.888030550173131 3.1785577956799558 0.05284979681117994 0.2741076220175344 0.3020670833449378
P 9.559749343160975 2.31724409826971 1.7944956597441646 -1.8314726293272008 0.8044025341287566 1.5774900601943156
P 7.041605563666753 2.881931862758993 12.573082693995739 0.17062123399640938 0.5097194019527157 0.7123531842999796
P 4.929381411096405 8.946308181392297 7.859135932820388 0.28192943205479837 -3.933787836767419e-05 -0.8506692784057801
P 4.695197718411009 3.847995926827118 9.341314625669176 0.5730449014842389 -0.5740625441154759 -1.7602870103213102
P 0.2928956220481981 4.5018671837552455 4.50763371461625 0.4366108548924997 0.9823059036088759 0.7546925684981389
P 6.2217557063422335 0.4523820467910296 2.196890989019018 2.3834645667958823 0.010394712970762743 1.4981429884235553
P 6.281536329303199 3.040332119567718 5.276553240283701 1.954550052106376 0.14062083097957717 0.38068293337662823
P 0.8098628144824718 4.686782446101889 12.459986032670619 0.6325942218027815 0.15730703338600652 1.0162758327964176
Ni 4.757571900706589 5.94636017188944 7.794860726714648 1.123394161143175 1.1175875817637266 1.0366181438981954
Ni 6.423050859380181 7.754374529739808 8.842606274890963 0.8740120668967787 0.42071346693595285 0.305640402518493
Ni 8.33869792961704 0.11728590344184818 12.190998980999238 -0.6720493424746103 -0.9407687035970378 -0.31518896543887653
Ni 7.694787044176101 1.6455214276235461 0.8450671634932387 -2.320673085390958 1.1812900050186945 0.24901134117053889
Ni 3.1796393651046033 3.6832589239845306 4.6242307613412095 -0.6370085488203933 0.870327933176972 0.32187331943758757
Ni 8.305680631704751 2.576250545012282 6.0671446213273414 0.13683565290553207 -0.3330779299041554 0.1851317689077586
Ni 2.0522044071175385 5.6863328560470725 3.3429545088226114 0.22314604336800278 -0.3207618315409637 0.6359497685385758
Ni 5.105412353169157 4.839600112427951 5.450897449087062 1.4663415276422425 0.6558858453408704 -0.509693948031419
Ni 1.1588703686456159 2.6783926371052797 3.8040801614981015 -1.6830171327945531 -0.15871394103586214 -0.166377628228707
Ni 3.2573909630295272 5.073507894545836 10.511486291160088 -0.1881510153500566 -0.6565124231812759 -0.8913868107298004
Ni 7.5922678743075025 4.793375895350749 5.812991441467308 0.568094499457499 0.41189689708558747 0.5121375244759051
Ni 3.1546694587447535 5.894019937232385 6.012506971344803 -1.7724424147369218 1.9772032707295173 -1.2569516575180675
Ni 8.822626670995517 3.304102622109334 11.344787708352717 -0.24901031272927437 0.015127856780373946 1.2530538651255583
Ni 5.181710822105184 7.577267536453759 2.373510540302463 0.11447656848404157 0.643662306691485 2.2052169266024664
Ni 7.459131828463973 8.339792374868171 3.975839088283873 -0.38076777978095067 0.7476811701773123 -0.5982512255465374
Ni 6.8111190725860205 3.081111701446014 9.871426197539726 1.4654596392579216 -0.4854276192848866 -2.2397884939297494
Ni 6.86294427418372 5.354081350648941 12.3271148609719 0.6845065944013566 -0.4527614965104331 -0.23688550444128237
Ni 6.4117109350554315 7.739659299472493 11.329833355593559 0.02781213711626178 -0.5240265626040073 -0.2974810066361522
Ni 3.434194454691313 6.2391012840198306 1.388128137999028 -1.6515481156519942 0.6683659800857521 0.08148031606367903
Ni 6.665962523017878 6.08165751717848 4.096784485552824 0.7073179358689173 -0.6790198602551725 -2.3721828232344757
Ni 9.11373071375867 6.531428530298954 3.363644122578456 -1.2533533986438479 -0.06009028042367716 -0.13577815817529518
Ni 1.760888832919293 3.980488181346453 1.3950875222135761 -0.5894444258881848 0.8292563599476428 -0.4759068242786449
Ni 7.97848748671101 0.5900421062398666 9.874428104514259 -1.7668980878799248 -0.8737724400821468 0.32156041618285913
Ni 1.7401127671856285 8.327063700686944 11.304997725709898 0.24497316654542325 1.9678891924174429 1.7010601063391928
P 8.582041853143838 0.39782165176739365 5.802411190905109 -0.38352297392858464 0.0752145376596253 -0.5361161467786897
P 5.161035923579607 7.12698149027393 4.983996988233544 -1.37576490570425 1.0918151007853132 0.29085064580382813
P 2.435729292978344 2.206686733867591 5.911107078678413 -0.7860687688165753 1.0569668827578764 0.09991461150946665
P 3.6836084107033793 3.188100622508309 1.702638593906128 3.142395598855401 1.397901075481657 0.260004606957249
P 2.7735817828969718 8.485362790287581 2.4983315613430674 0.9162293236947768 -0.44373795285558415 0.5625206049141473
P 4.388293197148328 6.38426703060689 11.794566079088323 0.8062491004191921 0.12940773587257712 0.8614414293206196
P 2.426311545607263 5.331327925848106 8.040048652534322 -0.6560095154029282 0.8897019668282097 0.9011788571195577
P 7.333114275262258 5.6884941554925845 1.8168269413767064 -0.8052705385560067 0.35696502093439814 0.3933733843601032
