# total energy = -340888.3239349602 ev
CRYSTAL
PRIMVEC
9.10431070812613 0.00000000000000 0.00000000000000
0.00000000000000 9.10431070812613 0.00000000000000
0.00000000000000 0.00000000000000 13.32507899917631
PRIMCOORD
 96 1
Ni 6.394148647393414 2.376807788010204 11.681031018403257 -0.10643235802332637 0.2167385971797622 0.9659362040016011
Ni 4.680662733785072 0.8186222971606453 6.130695385652198 -0.7355679318535461 -0.49091306787949 0.504687495955763
Ni 2.7000108205017086 1.887842569249042 4.898006303178218 -0.024485900956506216 1.4952139877022186 0.44855825706236296
Ni 3.6158407542317916 4.818301704072581 4.864280294345498 0.5629864888069723 0.2367016705652504 0.39668625078342007
Ni 3.534621197813293 3.2664901411961855 2.9051600760436127 0.5207044402093097 -0.15355347988084522 -0.13897223963256067
Ni 5.170083168084955 5.049815222755017 2.776226647718593 0.08831713647985436 0.2757922088088089 -0.025010920222040794
Ni 5.36896683695191 3.099043657433263 0.8715602225895214 0.08511791281626631 0.7400509073255642 -0.4542275395329984
Ni 5.797907334777396 8.208665097665369 12.357811795422926 -0.20176166415495572 -0.47199771903222576 1.5979511562621447
Ni 2.561643505352247 5.1675430653788945 11.602133061232232 1.3204537918367711 3.0454292713409807 -0.8846705750518894
Ni 0.8498346057885502 7.691667706029803 11.550538021642579 0.045090721691051376 0.2238361274564919 -0.8100944423072113
Ni 0.8375428758120211 0.3359936786984715 5.081385330796356 0.937516000987695 -0.7360345870773194 -0.05747212607453973
Ni 8.472335042003017 2.739377860290251 1.317714240796182 1.3050976210956748 1.5352419501583818 3.0438675832808157
Ni 1.332106335268367 1.5059986710595712 2.801464707616331 -0.24720565542036782 0.6861351311437152 -0.3361298293566018
Ni 1.8762527816332195 6.983516205374754 0.41952573005367033 -0.20882242765647907 -0.8775077387548629 -0.43581715534661075
Ni 7.52876427334331 3.982771791372781 4.014539462957925 2.5664332666140512 0.707103505865266 0.18997032794698251
Ni 7.801602258630787 4.3830519188804296 12.743319268268019 -0.22806019284016854 -0.40621578754041004 -0.024716271799757432
Ni 8.261278909630676 0.08966016293745323 6.964432659560517 0.35952506835209047 -0.43692478658849265 0.23677597544661158
Ni 6.890115081140097 1.1236449314667336 0.5905274471739996 -1.5323998527238964 -0.8606289607216533 0.002685260141646988
Ni 1.874459232410661 6.85596481142529 9.213079975230448 0.028490394130209002 0.3911100422472232 0.2869556816247961
Ni 0.144682975533669 5.355665438910499 1.508771844121456 -0.2647243810304215 -0.46326419581396994 0.6776335214306072
Ni 6.826821912636408 2.0633463680473163 7.277945063663742 -0.4605935909603423 1.8007759715742921 -1.2062204497117872
Ni 3.4138616197015375 4.410455894311399 0.3979694534331031 0.5086539368026789 0.8804056291279483 0.7107156486965567
Ni 6.309578704609933 5.811390819034295 5.000476231375264 -0.5840062855917489 1.2395943971865426 0.569010069293233
Ni 5.5022721553108 2.972375381628916 9.481846512739608 -0.11833707988071232 0.4635411036244404 0.013517317760144462
P 9.11905975786313 6.138891086211321 12.744505559961922 0.6465028614640738 -0.27477610883946874 0.3206713287096864
P 3.9687602570909664 6.465535548175552 12.796326386458778 0.8151528306667252 -0.01022939103749206 0.38579274379936784
P 2.3362025619563416 8.78077088241843 1.4394953225768263 0.535193120743788 1.6626627375079173 0.8568108725271437
P 6.567039508999434 8.158063338381206 6.133626973721558 -0.4773479276005456 -0.487839828270805 -0.6302532323744306
P 4.741124461637919 1.3005143768811693 12.975882513982743 2.294450918469636 -0.8022489781208635 0.42649793482821385
P 4.228060132256897 6.335143609264472 8.542375415221619 -0.6747137766806509 0.0032971826940330316 -1.68137959719113
P 4.665595099453426 1.7007489828349451 4.014633237358901 0.2853340868609731 -1.5674342186202102 -0.09067329541685674
P 9.214928150317654 5.919486300858848 3.8200067442100596 0.09608726734357645 0.8548272664382116 -0.3387621247731262
Ni 1.1667447386727838 8.009681281379896 3.1174289026111035 -1.6687313122995002 -1.4311570093213093 -0.8661979701689987
Ni 2.097460220519025 6.638080445972144 4.919285808751243 0.13736607148770535 0.5365920579738436 -0.17993788341164493
Ni 6.236143333903553 6.08102408692918 9.341439831976679 0.4617945532469789 -0.169404845090805 0.4815879338238222
Ni 8.511747603345432 2.61870932528624 10.558366621206927 1.5408281859969077 1.422612719295724 0.1365813708028809
Ni 2.5833299736168884 5.5192334862835235 7.237703099609778 0.3728984043352029 -0.09046272206794743 -0.27721942817363865
Ni 0.7033189324959929 0.4364142265401983 9.42512119402858 0.27076055992217235 -0.6184634388283542 0.18968724948892493
Ni 1.5300522601255586 1.050500898705135 11.685401087574972 -0.20010561660877152 1.5537688053179757 0.24034955173048286
Ni 4.285708628080452 7.590272996935215 1.486185869952303 -0.8764947241093162 -1.0069522414026464 0.4099780827963197
Ni 5.738747523365289 8.19803126268086 8.242787144016775 1.0641546587555675 0.06865513927455272 -0.23460082217216371
Ni 6.800328368282879 1.0540879971502521 5.000982431054322 0.2370495408229724 -0.1394329813190631 0.08834670416620913
Ni 0.7600724745704236 7.39622371708947 6.860870214070542 1.1011047536173555 0.33965815422483436 0.6116505296715788
Ni 5.219191820402115 4.8042355439261195 7.357108866709379 0.21581479981391216 0.21327017901518752 -0.35094992508856976
Ni 8.445841497649488 7.655086585338229 9.180500199124227 -0.4595759483291053 -0.4817182887540994 0.0748916071025678
Ni 4.913368917178955 0.5759869524361917 10.940436306303603 -0.5916951695955746 0.6591022953956391 -2.3801797253970234
Ni 8.360770817773414 7.673568336210279 4.934996207423563 -0.45198296647319575 -0.6893153286439095 -0.13218169907328847
Ni 7.82318857947691 6.2565187814166805 7.177607365050061 -2.21897207140503 0.1401840005524747 0.29206703470943246
Ni 2.6604616944976778 5.730207679858894 2.334540114808935 -0.388006463621235 0.021227284809892475 1.0902001908897094
Ni 3.5777574222624406 4.3890243467484416 9.546766621578685 -0.08324075039821148 0.32798354610038355 -0.2771016716488518
Ni 1.423103921458581 4.158812744506745 4.0049325942287695 -0.4932440300055118 -0.6735179566003368 -0.7451321785032134
Ni 0.5560066320106746 0.6316188434232154 0.5229534317441842 0.27242483499847275 -0.8427063148049616 0.5216876300581854
Ni 1.266081873532356 3.340899673155427 8.702675925457708 -0.21561888175302218 0.506166908714767 -0.7433640308591971
Ni 5.5061870089437965 3.3873498667264594 4.961353187115475 -0.9140058336808968 -0.06282027776033053 1.208199684925345
Ni 4.492176187822491 7.349254577804296 6.185874792393733 0.08616049514816775 -1.2072535189619917 -0.21811593714326308
Ni 7.91562464676948 7.971816452869129 0.3380995057805922 1.5945043353641248 -0.2263792055933198 -0.324399428293551
P 0.5393175199301062 5.414142427014525 8.090401921567958 -0.3049793718957264 1.4758363545065551 1.4373675090073954
P 8.90294162870022 1.7672650773527745 8.160984911708715 -0.6804506791644281 1.8724896951695107 -0.7560058879929238
P 1.8648359759221114 3.327124850953747 10.707767450583894 -0.06679674590957528 -0.9468779018185695 -0.0908743556840693
P 4.105652673894974 6.819119665721258 3.7883465034920536 -0.5203941080577424 -1.2721561331726476 0.2238207008375242
P 6.840232562407112 4.386247531962247 10.65206818769714 0.9953190280390924 -0.0410548610587809 0.3250506887243047
P 6.577746178470138 8.239674380163006 10.277687093049453 0.20237924313429662 -0.22957611526406269 0.39534670603639005
P 2.635306483827987 8.44132575950538 6.242532739205034 -1.4915087709364894 1.223463553062951 -1.0407211103229752
P 7.069652089611434 4.394568872010056 1.9029275017711593 -0.5340314963355189 0.6340489519714371 -1.1225258996056087
Ni 3.0659494877682874 1.943843184822429 0.8000139963688315 -2.3084012100021405 -0.6377852790854177 0.5082032224185055
Ni 1.7385227682379663 1.6013299091784032 7.082785968334596 0.35074115151187335 -1.2043193760343323 0.6968607450913353
Ni 7.231927324854492 1.0517026677273569 9.314883467878806 -1.321661438991627 -1.2278776229702468 0.45702232866931614
Ni 3.1509382288473917 1.628770301852471 9.587087793136387 -0.2598192304193203 0.7862957972257169 -0.5722871973826079
Ni 6.444167730788015 2.290253105477901 2.83445781943171 0.3872991531415652 -0.4078576940192073 -0.05887260596649216
Ni 4.012360801389609 7.009554534189563 10.473525369962369 0.21738368696292884 1.1420757967130784 1.838325904803608
Ni 7.423727839938959 6.7128632546731355 11.531750365928511 0.3431288863822542 -1.6099705493205239 -0.29551668382092977
Ni 7.761625230020359 4.1733250158811535 8.703488940409862 0.30322896486352297 -0.460889010713574 -0.9924393924984521
Ni 3.371990894450032 8.640901355991192 12.644167861348244 -0.7371653582476531 0.03804975568386995 -0.11894900243309839
Ni 0.4464754003769972 5.207128608626023 10.349069441676201 -0.837638413363751 -0.3452369338641925 0.49757608172196244
Ni 8.925274503029843 2.3681769013960645 5.827883278002136 -0.08031586344193266 1.8179221443362759 1.5896711756415396
Ni 3.5361052004695215 2.6490904103404413 11.948451938779959 0.5855648883281206 1.4394573016568886 -1.6061342062935693
Ni 1.3405824485993414 3.8494209514600186 12.746198051334886 -3.117621734344831 -1.7875718141791923 1.9571903179427002
Ni 3.4227747399496833 8.602107887781436 8.223519691124896 -0.5155300950972219 0.3020945941487636 0.5230590564844152
Ni 5.667661064838707 8.268644297047173 3.9891420776216346 -0.4751470632944849 0.4110741440739759 0.21585748012638956
Ni 3.115231121990161 9.043384726706247 3.6431700743144115 1.0790506020307933 -0.7606279601459675 0.5334347432917845
Ni 3.6817013383738635 3.042023359053142 7.492358865849683 0.1374817711299632 -0.5012270482109883 -0.33673583837171683
Ni 5.217316332382586 4.767636214612997 11.957393282391507 -0.5881982121859096 0.18701278798055532 0.08614404008793551
Ni 8.069778836801767 9.23513972023684 2.753041609900484 0.631505616724293 -0.4306037294664713 -0.4558285654715311
Ni 4.6781681526328835 0.7617567720636892 1.9862492435474692 1.0373246830469167 0.1538771817688511 -0.1990838602124765
Ni 6.172740913670572 6.34488522179309 0.6778277727587262 -0.03735195828589696 -1.493533257565686 -0.4897427017204727
Ni 8.179303695417902 0.40180874128667116 11.398899352677264 -0.3766049066525127 -1.3297650419353682 0.9440715427180257
Ni 0.22569495366651146 4.979985159115303 5.950540194479278 -0.016140614315604464 -0.5207692320089741 -0.4779516226228156
Ni 7.2782773710070074 6.835188774238089 2.898338215980348 1.1019614451906956 -2.433310286673416 -0.033202969114529905
P 8.52485781086058 1.7730554190052983 3.9360420954609743 0.11294676210307644 1.0729779134741522 -1.7286560136795908
P 1.7305656006211334 3.5869254632122702 1.7209077477516408 -0.3746488113674064 0.1330219355863967 0.0490731033775671
P 5.066230295081275 1.2443863009569403 8.320925801669215 -0.8981979201143628 0.0874254779035204 0.10320279534243516
P 8.467573487468002 2.0391562143197124 12.794874248890263 0.07738866249280865 0.27271434121443355 -3.6374288595508517
P 6.373399923138538 8.334231751866012 1.7836155090725347 -0.9786924752260048 0.6072688556641155 -0.9170194236962399
P 2.0244800653513657 3.6798713719082072 6.168805120122796 0.38745676176535204 -1.0975257780168453 -0.7804537366226431
P 7.034937352628614 4.197415022190238 6.368335195054733 1.173782898008372 -0.11446191319602222 -0.252142687710669
P 2.4753073262785303 8.79902502552112 10.3519873732794 1.4675157504560017 -1.3726353589363327 0.44512429168014955
