# total energy = -340876.82304588234 ev
CRYSTAL
PRIMVEC
9.18777125147166 0.00000000000000 0.00000000000000
0.00000000000000 9.18777125147166 0.00000000000000
0.00000000000000 0.00000000000000 13.44723194067810
PRIMCOORD
 96 1
Ni 7.297423880683826 8.00060074763603 4.2232241807606545 0.38456247093669255 0.45465408554745573 -0.6794057828396816
Ni 5.773494241085381 6.8366571642224745 11.180821812423291 0.47602509502406404 -1.245297361108591 0.11465114638869287
Ni 3.2392221739218536 0.09724153088102985 0.8135027025373738 0.35802482965748017 0.5167210300815295 -0.2876642776560465
Ni 6.001378525599656 4.364356612563071 3.215475460953439 -1.752559045549433 -0.9093475089732792 1.4688560665339798
Ni 3.16345062635143 0.26823421848602597 5.976581650404093 -0.026715561617973345 -0.949764479337745 -0.4960514175473199
Ni 1.797670089254466 8.094279260916986 12.387724656777191 -0.2338037801921651 0.8014383092941101 -2.7825229173559047
Ni 5.669801057396791 4.855792108676426 9.711496933528199 -0.36613820279323395 -0.5033525791944234 0.3911318966240941
Ni 5.010560111443953 2.9790612498277436 7.794876448035676 -0.7995596042141585 1.2937701118979976 0.8274761281187685
Ni 3.930491689637091 0.8011800640504751 8.474834898852896 -1.554831185144219 -0.21164986980294517 0.5300151760872743
Ni 2.978197599352223 2.7674576955541372 0.560991516591334 -0.4600549448480528 1.6569566882620752 1.4054462348187666
Ni 7.825821779595266 4.063401985157129 12.28563290157672 0.15274872459136277 2.5879623989350784 0.48895131616742893
Ni 9.0971428428749 1.4913222402620268 7.203238202442777 0.43490338528308975 1.3109905895413423 0.6806730795878793
Ni 3.691040001413447 8.020960848207881 10.00517025240382 -0.21635910235315642 -1.1212742865866947 0.8584684627352247
Ni 2.3553494143944675 5.497502787530396 6.768031864948434 -0.3487891699918251 -1.8615439947912844 -0.5625553148068247
Ni 2.9400775374060983 5.30207889801628 3.4725456188777066 -0.5990552095050715 0.5154519335611187 -0.30931193783280925
Ni 8.091137043229454 7.399316261253245 1.8128345053166686 -0.3818790105672585 1.2166897246742272 -0.9777776767212193
Ni 7.868554102591512 5.713948297129529 3.5026006554258298 1.1446229886149644 -1.3048507951921917 1.655026304008582
Ni 0.7169603610306751 6.534829698569996 8.57127893120972 0.19699535311456395 -0.6607786546567974 -1.5164785535079495
Ni 5.615988282555033 9.0077550186585 11.66934662267872 0.726050222171098 -0.032486916884111795 0.5473228141277865
Ni 0.13511995444942887 2.7626433035416595 0.15231854301461337 1.074059062353473 -0.4023748165277651 -0.12899610225645525
Ni 0.30553932514301546 5.9637913543724705 12.605757813207921 1.419279541157433 -0.05388080917885559 -0.7168215044839783
Ni 4.805755507722318 1.825628476456697 12.713254734097207 -0.8196723158036335 0.35418360153451905 0.2612569913071114
Ni 8.177318335361207 4.4860394519013385 9.862683543153619 0.08171274378945927 0.1894723052646414 -0.01840627042132959
Ni 7.604414873647397 6.513964270592254 8.515082848566367 -2.1751594450954537 0.33218447155560854 -1.1846062138761213
P 0.6909461061754673 0.5745278596294697 -0.08652123965935278 -0.23844744961176356 -0.5332912757353848 0.11230475764370335
P 3.623326129024212 0.6548528665155118 10.993165264526251 0.06654554913071765 1.5867123501235318 -0.058612410326570025
P 0.5898631682325732 6.576477864586333 2.8977439636719544 1.8592955650767398 -0.467511144015782 0.5808104043622707
P 4.94680616836269 1.2679859024007603 6.5962839425659086 0.5252619776730051 -0.003659708239774342 -0.666216280732601
P 8.329706705435543 3.0878077075752324 1.997922152437584 -0.02028574683222958 0.236878819573063 0.7014092836939663
P 3.268549539005496 0.7916918529220676 2.8929167087800542 -0.924985215510536 -0.009889748309886193 0.6600921701127341
P 2.610071178047 3.594044702795651 8.576065759909149 1.918815574819244 0.06417884867075399 -0.12903646857608744
P 7.403753954654059 6.278582764928778 12.68840456982975 -0.9590937271584707 -0.6494992250882362 -0.26192650657031014
Ni 1.0545172306108694 6.607413089597806 5.10248467923792 0.27061709236577264 -0.077127438411622 -0.9653967865583631
Ni 3.39324596723707 5.924798454179808 11.46169380994207 -0.8008094174608595 0.8641488009494538 0.36723812072563206
Ni 5.470747998331285 1.6853312130396518 10.296653206669182 0.0008386938512114588 0.6998164852855496 -0.4839518060703084
Ni 7.081263191986195 2.3881405691512088 6.400760825124817 -0.8386252027570524 -0.8215101403433206 -1.156739312262524
Ni 2.2361105221465034 2.2294585759307903 6.822815787186602 0.4750586173457367 1.156027888017796 1.2180835196979602
Ni 7.288897629180812 1.7690501825390699 12.182801530809447 0.6830518642327011 -2.6078118295608377 -1.5377636881389711
Ni 6.691894644091566 5.022733908040389 1.190260115935195 0.009987193119698928 2.4458701256162976 -1.5445246610118883
Ni 6.349631798196886 0.9088166390592093 8.300142295859684 1.9146421601678445 -0.029790600998871274 -0.018901722000509383
Ni 4.825003888001212 2.5979616958476766 4.646730810642996 -1.0166172752962361 1.0562042935602391 1.1055378496880444
Ni 2.2797340589313184 5.280515199441309 1.1082868229288507 0.8019268188947544 -0.16314420889307385 -0.9134790146431494
Ni 1.3508779725087225 3.5502649739035603 2.735516409616393 -0.033790980407516 1.9162910086251774 0.9188256236670433
Ni 0.6018826102759379 3.895376028813257 7.950823241824578 -0.6281138174339246 0.2893979725177016 0.18176182399426116
Ni 5.148404239999678 8.180166544376222 6.951586991863851 0.2802358464024593 0.03060718336289567 0.6460107523190036
Ni 2.886347452503487 7.599232970794273 7.807785266313407 -0.898552218129988 1.9793583693993073 -0.17588171106440031
Ni 5.679163396062276 7.416203384380981 0.19393087672398737 0.41294976383013393 0.287827285596472 -0.35119058034446615
Ni 1.1770820959666903 1.511912035109283 2.0948908065194334 1.422990157239801 -2.336451174160821 -0.5646520494348534
Ni 2.9708290069972483 5.72019598142053 9.053590970704011 2.390596292744657 -0.30284484205122686 -0.09995343516720205
Ni 5.15169346202347 5.743385915465365 7.4299317518333545 -1.6623318365310598 -0.5493341881308604 1.1081930279227044
Ni 2.6332059854657373 8.169076904759695 3.8761111105465336 0.24207990415802824 -0.3020328876728927 -0.13118771059113535
Ni 8.591861375840164 8.824752995558256 8.703841928985346 1.4852262803618872 -0.9579009924019504 -2.2342500806100234
Ni 0.03486667222929573 2.6945343569987283 11.119770911574987 0.9805071598372403 -0.13409845648002713 -0.9993219785508983
Ni 1.8698216550445157 1.7961632948078128 9.725172011908679 0.3206960113000348 0.5043601945233314 -0.08857064725155714
Ni 8.486872716438292 6.9964049388807705 10.5196211149127 0.07037906394419492 0.4108430018997763 1.8768348595120836
Ni 0.2572952583141639 8.628456267797603 3.650398815100483 0.7427683062567273 0.8933071676809649 -0.6665296982079618
P 2.5743674998781305 3.624915613410011 4.980922199699964 0.22420868030456226 0.4093329930131531 -0.3043134561769533
P 1.532207821284021 0.2772823353827586 8.332388615795166 0.4734089975574557 -0.8819356926192294 -1.6945683279672623
P 3.4386427438280083 7.1308404043894935 5.818631003756561 -0.359277985338291 0.024590030634538296 -1.144820449337751
P 7.930378613759378 2.7059363808298063 8.590158881870865 -0.4447088014092857 -0.08983511578627754 0.22331470773538317
P 7.442397719548106 0.07311352541544353 10.247517007274661 -3.30752984159531 0.5436373948563993 2.3655609470425842
P 3.3445140297672595 7.147810217456375 13.376741349036623 1.3133524049052994 -1.186229608412157 -0.00046254145871533244
P 6.848886087445008 4.195522132369775 5.271018719318986 -1.7177578787098482 1.0115876832921287 -0.7680767031145288
P 8.743928173928934 7.010296848657232 6.649414066021164 -0.7287156848184031 0.12396522470076715 -0.1531313047417621
Ni 5.863166886203283 8.899219879644383 2.4898896204927756 -0.2758837400813507 0.6090598861262672 -1.520948159243529
Ni 1.4795710811323346 7.613565893579511 1.133030409052521 -1.072759883926075 0.07106657692952277 1.8292828207647331
Ni 7.0957063680236265 4.429626537862003 7.557290796105418 0.037355557830322766 0.14660044560177976 0.1040124357279241
Ni 4.740797966637936 2.0659989417819586 2.133403186287949 0.3249234191178211 -0.0727629907953392 -0.6875878044298417
Ni 4.1414153488555 7.018685283595003 1.8664754688404233 -0.9699787495020907 -0.3773446130320146 1.793185560821544
Ni 8.273027346036738 0.6297537136535153 1.5527783218121431 -1.1559160450302803 0.4936309810312854 -0.5729883372146906
Ni 8.967834153593204 5.255202890291737 1.3231281477085586 1.3967615625605752 -1.677664867343704 0.21854916802593974
Ni 0.8286570120514585 8.965840407282693 6.053943601137417 0.13947669007280494 -1.7200425609789665 0.4120673612251806
Ni 7.897660961170766 8.32971589320656 12.962795513673717 0.5606547553500022 1.0147858785144521 -0.4906407880547099
Ni 0.11485081281063753 0.2403153386991644 11.08158102256914 1.3241577230509196 0.3130922308108479 0.8532907751890272
Ni 6.606016548403346 6.515811012566506 5.884037826843635 1.7557310155195118 -0.8769842621512253 -0.10733404390198935
Ni 7.375933384017071 9.054061384580038 6.254508967312186 -0.3252718035961753 -0.9118803026974617 1.5302308700970355
Ni 8.53106589502611 3.059601250555565 4.106475174458075 0.8633003369062293 0.9048429362347062 1.1004990017125562
Ni 6.6798035374342755 2.8590597725854368 0.5686596302814365 -0.8808776836683604 -0.7178818274276927 1.9189898956135791
Ni 2.202501655769322 1.792929199410118 12.119653980615254 -0.9449120363414502 -0.8421203603945044 -0.08219996783852296
Ni 8.793615639584427 4.7414686739221175 5.852813187045152 1.2204067685144981 1.0864831470494385 0.33378806859730253
Ni 1.7013363101498347 4.489512429345455 10.389680306985092 -3.4495424107160915 0.1006419765937944 1.0273007231520115
Ni 4.987847941491959 7.380637522777354 4.257124299479049 -1.2890788770699153 -1.8113504046560287 0.179630122363239
Ni 1.441864468881938 1.677007092498994 4.666377940183992 0.3229125593353794 0.09394553841022531 -1.2132177069652268
Ni 4.372285658950033 5.158768045705928 5.285286408930011 0.8893967768829651 -1.0708914632587687 -0.1557898254105317
Ni 5.33455766855847 0.2769240123131276 4.722936939782485 0.09258336795537604 1.6434031179473567 0.557455017465782
Ni 6.703388545632806 1.9076568960891387 3.4415773178905753 0.5773278451303089 -1.264552609793777 -0.7087587820805019
Ni 4.906030840592889 4.8873061632619175 12.825095633122945 0.972630585302641 -0.36849307617865573 -0.24026187711268296
Ni 3.636887279044091 3.398418682319179 10.779892292259005 1.5153264421813775 -0.38872457273418215 0.057080032842443625
P 5.459520542149514 7.089734316863111 9.066594423023208 -0.08764633566507485 -0.00038180881945095536 -0.467999139395794
P 8.494360749816478 1.006676506929628 4.925814867922027 0.12980368575941514 0.5722072360742919 -0.8163728191167553
P 1.5798096629188416 6.929958978891768 10.398663190707609 0.4303515042463492 0.11002290358806215 1.623328715794985
P 1.6879313522372301 4.10640994128386 12.539812586739298 0.20844833214651196 -0.45088947629870085 0.37362602652984683
P 6.029695235871519 3.398427870090195 11.484782678505725 -1.5394099654931424 0.8003641023933248 -0.7874772191283277
P 6.156863174506445 0.560469651197615 0.4924103186181713 0.3689509896516807 -0.3100081925688854 -0.5519058055127786
P 6.231210617569361 6.7569073118020455 2.6550618551590226 -0.900485944817591 -0.894041474743828 -0.8375491960840543
P 4.64517164590155 4.151108447277569 1.3645310002387638 -1.258942205585535 -0.6090508872652027 0.8075189682705514
