# total energy = -340859.75864474475 ev
CRYSTAL
PRIMVEC
9.29417239986378 0.00000000000000 0.00000000000000

0.00000000000000 9.29417239986378 0.00000000000000

0.00000000000000 0.00000000000000 13.60296077654373

PRIMCOORD
 96 1
Ni 0.7226934496546944 1.2449915359513584 2.3430691633375624 -0.380432507928719 -0.40859611484712854 1.9646740279142552
Ni 0.5198825309553247 3.597234976616493 11.212063606606538 -0.44633785237227647 -0.7050268258418955 1.2824387460455786
Ni 8.745351282928697 4.2377428502155485 7.036362143732437 0.8835701428988589 -2.2705869673678447 -1.8833968290003176
Ni 7.669392855838197 8.636312055285018 10.058314817469322 0.672546336715687 0.7316344011270948 -0.34394469741533024
Ni 6.28907817340781 3.9717436433316338 0.49136615196995687 -1.2304489832418486 3.577866426606186 -2.7683646235776513
Ni 8.99954689118429 5.579468129886257 11.156358985835793 -1.2670422089848503 1.2723232548781314 -0.3751733164123087
Ni 7.775550890115907 0.8073503460845625 3.2019194467129863 1.2271952521912415 0.19148959280498634 2.549588941363203
Ni 2.904781974880673 7.5420255207180995 5.434736492941518 1.7358918693063978 0.1783913648601315 -0.4833406548488708
Ni 5.538564478261653 7.429844862888301 6.180137463988903 0.061602603303145514 0.2928648480203795 -0.12996926480300194
Ni 7.767976139815055 2.0511959106100375 8.463272228811036 -0.5053277006429233 0.7513071969656738 -1.6668281817395167
Ni 1.11606277991035 2.164965871877193 7.245780289412022 -1.054292678359823 0.3336291744219351 -0.9834844972980095
Ni 3.760821700598455 3.548672927141704 2.7884979400474057 -0.10092222683837457 1.5415213554091902 -0.2117480859437063
Ni 2.8883591726946536 0.8093792638645331 9.058837203569844 0.4358528936805526 -0.07037289329660783 0.13088612019031653
Ni 0.7930419680622778 8.178955138040067 6.368538698189571 1.9544654628123692 3.007582632806853 0.4166089578492761
Ni 3.926657614240303 7.797894079960384 2.8192272614212808 1.5232207573277896 1.8725598862858137 0.16771743008605308
Ni 8.618653128203277 5.949850184167558 8.24363885852327 0.32188797472560693 1.9203906326158475 2.3465466107236104
Ni 5.580471900478271 2.6167369916610266 11.400641430078023 -0.5913966645185492 1.875007576495358 1.5329919777819405
Ni 5.189531137404962 5.477975770026985 4.452453097516367 0.8916004694025031 -0.4060743768665394 -0.5602742320821319
Ni 1.426274363703656 6.8092079293422785 9.696543813683405 0.5245022166888451 -0.305090443552294 -0.0020375992553190716
Ni 8.09592100406729 2.003879280203119 5.713053266173556 -2.0600020484943036 1.9085396468145324 0.8979608644028921
Ni 5.181417325119509 0.541827930231855 6.422773910343674 0.062127879678996224 -0.03242521040824093 1.4605552599777685
Ni 6.513383724034518 4.282866055995472 8.190219674683787 1.167430730538099 -1.4605670870523104 3.159489835333526
Ni 2.254273572050063 6.185011327863463 2.5406251571042917 -0.36634260549455616 -2.115035483220364 -0.042846662851881046
Ni 0.42015792263865714 7.66899320643582 13.610578083311909 -0.2800957212801692 -0.06918041565040343 -1.2067385269987865
P 7.312431586139018 6.11208925318802 0.026840639747032026 -0.0005080499846700928 -0.0011027461458755201 -0.4814647779823966
P 5.871816314810558 6.32809510808631 8.141371364706831 2.0660675379620934 2.1809832508660825 0.896754759909933
P 4.453107407235606 2.7888650598472635 0.8017152895110574 -0.9931963252691347 0.13347702084594434 -0.012653941318584659
P 2.5693738903933663 1.8987714873781647 10.99238934196132 -0.4036269437673113 -0.07248274055075904 -1.3004225842175088
P 5.401252378942893 1.8667995351880646 8.228703123880976 0.7177116203984156 -1.5853892604367341 2.6361644125616017
P 8.536250997936584 0.08307595774744478 8.144500712469158 0.21424051334825686 -0.7143049087097117 -0.5675293709826484
P 3.3507070603832347 5.373351274153742 5.44293859986238 -1.7796168209981738 0.05751969148302352 1.3719756138651467
P 1.9325279206207355 6.151766074089048 0.44970967240134385 -0.3248717399442792 0.6546959387978273 0.4940582983766911
Ni 0.9996625679252297 6.030941836161344 5.037339068476797 1.473996473084339 -0.16046229118553657 -1.43111844277389
Ni 3.5423621842530184 2.664276682199504 7.703520126549484 -1.4931658469239382 0.6758160086058941 -1.5519060410776242
Ni 9.038638179239976 7.257289262783242 2.058617307070443 -0.7604814072657742 -1.119015058238873 0.9183787659376119
Ni 1.9917875622382002 6.342333779817482 7.200605036268069 -0.653123709214701 -2.369454111449403 1.07195795685007
Ni 5.666786877219392 7.755977363571619 11.31246668949003 -0.672660750806364 0.03889744839614591 0.9658112483879624
Ni 0.6758870692987168 1.2054913043211477 5.035244162074573 0.8372098104667646 -1.0386392880932822 -0.7450807564399877
Ni 2.3541208634390878 3.3362917993812453 12.61391660357336 1.2939238638670427 0.11015762939371351 0.11374817495844927
Ni 1.391542042385515 1.0187806800342518 0.30947455594194684 0.1367387223163516 -0.9279874926719696 -2.7522422640944924
Ni 4.954797525627878 0.6676654446163439 10.601875181389618 -0.23507621914668547 -0.4293976249735121 -2.3842834631527516
Ni 6.298641876548395 2.9696552964757017 2.3335881783290966 -3.6135741644204415 -0.32695047685017886 5.49509408811302
Ni 3.5754680254452094 1.0003131599756097 12.632158275248798 -0.6184721805791026 2.7111542358049308 0.6458405452897265
Ni 2.9631586701440504 0.599764081735404 4.8613715777761035 -0.1429610490769796 1.1894902814413 0.16578370339844997
Ni 6.107051811883649 5.228687484665686 11.86292425856157 0.7465300872920047 0.1701913455478424 0.8754017481554537
Ni 0.6946278380185185 2.5278103525462363 9.367433460243777 0.2150144153998039 -1.174308688604855 0.7835619432343215
Ni 1.6673280125415735 3.75776391796167 5.553517871831029 -0.6121210415500943 0.1851453957545134 -0.2128073804461561
Ni 3.932578001898761 3.2589085220746252 5.1183861084442706 -0.5647304680812726 0.10524425125249616 0.10538334793352173
Ni 4.39423812084837 5.151109029743952 7.520736289995239 -3.4194713023623238 -1.0620910913583193 -0.9044156188893004
Ni 3.52864398616215 7.855499358935455 8.03879158670621 -0.9809465613675042 0.15017222211343814 -0.08213800425233596
Ni 1.7818136250641472 8.593270744066311 11.9848470676372 1.7542351477002756 0.7274841264041472 -0.99908543706006
Ni 6.020969189446235 9.32056759718605 2.0683575994818457 -1.4115523477165044 -0.7702456857413896 0.6690084987657576
Ni 1.8977398342697052 5.860626131544023 12.017318116871662 1.0712506463704001 -0.048740916849128964 -0.47310843559790133
Ni 6.457358454324657 1.7089751979380383 0.363604743950773 -4.569622934105001 0.5643630574395249 -4.218070856656058
Ni 8.527681771215864 6.881656001238159 6.197889332792127 -3.624243214098513 -3.016269619057889 0.5692463536737551
Ni 2.5991895946450647 4.447363608847966 10.023776744349082 -1.1153934023258856 -0.07163093407342501 0.6016900760247573
P 3.5561640298932216 8.238084661247454 10.30904462893082 -0.5162916558535946 -1.1275457214177034 -0.37163470713143093
P 2.845968453526326 9.204780800562718 1.4696772182189315 -0.5128335221016652 -0.6216377227912777 -0.46505316939359265
P 5.601969320657254 0.23267959973231303 12.56338140135149 0.8295564076865649 -0.5843515847463098 1.0181769064738724
P 0.4895956121757086 4.724218408801077 2.7656723826684333 0.5004343771063638 2.260365546750152 -0.5617703570116841
P -0.027834186749683684 7.731608044198816 11.26711484707526 -0.3395506821126926 -0.4190826162007492 -0.17012115443153927
P 7.4466580203045485 3.7201411091054126 9.980219606576144 0.9084576501691579 -0.17042197350140972 2.560559067221461
P 4.045288427541013 4.722536163642237 11.916723574041916 -0.3396044181687635 -0.45846343199121686 -1.7998004950349002
P 2.056633001316784 2.335439577421035 3.7712163027290972 0.4030728710360542 0.5891631472023401 -0.06064101072082459
Ni 1.7210483275586606 8.249005313521689 3.322536424601784 -1.8796836418147886 1.4592738221621835 0.25082088357545185
Ni 4.091787170798882 5.4488850112028535 0.34940139007376403 -0.5522102241270748 -0.11655273428677992 0.49550814344934013
Ni 7.897694900488668 9.015625809000822 5.811959987341174 -0.8602990881860604 0.5538917255945557 0.10339125720415743
Ni 5.42987842915961 1.6823195122167571 4.1916158738436105 2.133105710458513 0.5987016828203947 1.5107537352090303
Ni 9.311180483316283 5.034151167429934 0.018544661687472905 -0.28308874247022214 0.07154917299289613 0.6197893567286293
Ni 1.770976620339247 3.2164806262177046 1.3399612457969634 -0.6344485014027009 1.1411918514462283 1.0087437860854305
Ni 8.7122826184251 0.41189261534718735 12.193054182685863 0.5961881723699216 -0.31599963426563 1.6415490954577536
Ni 8.901056548928914 3.0851539737624383 3.5728452100649633 -0.23513818273287243 -0.4122853907732577 2.178651260298796
Ni 4.175230248346184 1.297364196006944 2.408662783274083 -1.4323867679633524 -0.3372575152031418 -0.6341929337484691
Ni 5.647557235044591 8.334734757417468 8.728937774914826 0.8663455514904563 0.9527814117871978 0.2120910711054218
Ni 6.915486787857917 5.669417127937358 2.09285610784751 -0.6783968819591929 -0.08912806241692392 0.36739315824625757
Ni 3.8378982702241826 8.24288045407597 13.23289173913927 -0.3412298695873285 -2.3077031554938516 0.8287133429599792
Ni 8.154502171117928 5.776169989232558 4.148222313500482 -0.2780586362454824 -2.70617863696721 -0.6028401304688005
Ni 7.48501506876052 1.4931738148270106 10.67946664815236 -0.5062548404428829 1.0131869094584487 -0.360795707534398
Ni 4.546383718915794 5.9317265484784025 10.056587030866957 -0.42961976828664716 1.383874936405894 -0.5029064927959404
Ni 6.7638430750865 7.585420010478442 3.8180793775351796 -1.495582941005863 0.988378335055201 0.0008885732525404052
Ni 5.719438362439427 2.8769087526079664 6.505752279283562 1.2308346487160415 0.4973786209991757 -2.0223320447473556
Ni 4.640673095360144 3.6149775512475686 9.55446101580093 1.0735103889388544 -1.000909377642676 -0.1046302718175811
Ni 8.105763532372322 2.8508850705927684 1.4309093673540054 5.563423725727354 0.3785545741797157 -1.5353651059998075
Ni 0.8639314072888914 9.18693599003801 9.764164492565468 -1.1467410633992317 0.5007549936705763 -0.5905541140125959
Ni 7.155183487562185 6.498671049523782 10.12514549171878 -0.6914251758980607 -1.8338688974735193 -1.7944469440324708
Ni 7.616880783200386 3.1679929301201017 12.361064932610411 1.332948581869672 0.6414958951677855 -0.41340099243493966
Ni 5.708545592681636 7.497283375996256 0.7637569610402468 0.27829980572201096 -1.2664629394426126 -0.2269664455553575
Ni 6.453845257252605 5.165793821738243 6.297340692447635 1.9864646414267855 1.3595826395174326 -2.68483565251506
P 8.909820953264747 7.844634471694109 4.097388768352653 0.5965614965489403 1.335307569020152 1.1009090926667813
P 4.54998056353718 5.834258565159339 2.528518568463936 0.7571176329998639 -0.6115479426554435 -1.6867971686622756
P 2.1901623725711934 0.42848271263187593 6.972197038055107 1.3949371077573267 -1.1070673989586932 -0.28815664391143275
P 6.9682033322829895 3.730745759526606 4.620422023666246 -0.20565559989272325 -0.6671084535295672 -0.13315717561268034
P 7.784398942001074 0.6330967007280129 1.126343063723568 5.398400297533696 -3.4064982871414236 0.5474765660968313
P 4.796248242950285 8.981469726355876 4.560351930237451 1.6624357090987756 -2.454956147077966 -1.176321862380142
P 0.23504682537848118 2.830530833588025 13.298989103206228 0.5731528878170129 -0.7445585653879305 -0.3030093926535491
P 1.4405595062955696 4.252306817971911 8.262343379971693 -0.44350423957822327 0.6556827281911288 -1.4705293404713449
