# total energy = -340870.83824581694 ev
CRYSTAL
PRIMVEC
9.17812005864844 0.00000000000000 0.00000000000000
0.00000000000000 9.17812005864844 0.00000000000000
0.00000000000000 0.00000000000000 13.43310644442581
PRIMCOORD
 96 1
Ni 8.173684798578579 4.300031767914251 11.273412144223714 -0.38320981356354 -0.7101142676671318 0.606720182249497
Ni 1.0961428575374197 3.6929358501827756 10.178573497521562 -0.3277143515993969 0.12135015567542327 0.4770651062528042
Ni 5.14297783225997 8.1093920688034 4.080037741208587 -1.452964077894072 -2.2763218129690923 0.8115807970447506
Ni 6.675209877882738 0.9136588889785339 8.150819348515922 0.19813075227058782 -0.3660060480907439 -0.19660043166899044
Ni 8.559211724232597 5.019330201206264 6.178651564765157 -0.251830812897205 -0.27700191284619385 -0.25748749696235007
Ni 3.097239157345057 3.811847571377239 0.40087733115708496 0.2338821988385843 -0.45931421002728634 0.35448956281071203
Ni 4.760149273851336 7.579814551597428 0.10568696825612613 -1.7612231489823345 0.4733030681072107 -0.42407312743680514
Ni 3.2290369588542034 4.546069627597794 5.600503437142306 -1.94102553525738 0.7525338702839234 -1.2153620070017392
Ni 5.88177977030177 6.617809916139129 2.2519122887018814 -1.327578061586378 2.2287463771829743 0.035692568305603044
Ni 7.755970206497501 2.72133090132764 0.31561259745095893 -1.8928006388127212 0.946997201005253 -0.6665865195878262
Ni 5.235943008547307 5.107449330195771 3.7122787378346227 0.14950682061529735 -1.5086127776066276 1.9188819092808052
Ni 1.2801182705771716 0.5441918374944817 6.5986643580647515 -0.16093228884341962 -0.3329586307174717 -1.3653948753238356
Ni 3.5799256600726 0.8093504743287221 5.349130336371209 0.6436216832615367 -0.48855845160438444 0.006055462165460539
Ni 7.380071128599966 6.474741383414577 10.934615615950184 -1.79801203567591 1.664270448314669 2.0259938098696595
Ni 1.8262898285302553 8.517983609721517 4.200800689183302 -0.6235789056780487 -0.5999324699037022 1.5877225365556011
Ni 5.846792777310624 4.6316372392600345 1.2739973824276976 -0.19156569745856042 -1.154472113494902 0.46976960103265547
Ni 6.968248889483296 5.5607291368205765 8.210274291301166 -0.48566236100351196 0.03969988969278324 -0.5427436793975362
Ni 5.345979487815632 2.0075668743246253 1.8029507874816755 -0.5366478509124435 -0.6092704594751764 -0.21072247289266932
Ni 2.90427836494058 8.882914834359761 0.8404303416859937 -0.8006754629861565 1.049860096509766 -1.909901045938433
Ni 9.235758475113078 7.939046163788793 12.01144036675944 -0.1966492826290549 -1.9224493149170891 0.8564465472091896
Ni 7.597840379046173 7.993252139813376 2.7549017104209548 1.0494170954350763 -0.21147143524355194 0.23033561913790657
Ni 7.231348874027947 3.095926686201895 7.4594444271536755 0.4412298417217498 -0.45137798589934525 -0.29636386231257345
Ni 1.1061102957295461 7.774766996016355 7.989245890484773 -1.0848252997310415 -0.2618622289912781 1.8499871431916206
Ni 7.757769117994424 0.09914572221604474 10.290027996311697 0.6445655352320447 -0.4559712616969825 0.06121770915990102
P 6.284974576729124 4.596852164906298 6.225841785951747 0.20365939539830086 0.9431035223778016 -0.9729134066503824
P 5.389951860171504 2.6462997712902254 9.545511760831205 0.5616592853551166 0.6072156338286768 0.3320410039992088
P 8.932192160007574 2.278936344883186 11.154650026383331 -0.5945984592852985 -3.1858716677611647 -0.592893817889366
P 5.115590322531329 9.020448960795314 2.145428659639976 0.07453293821156842 -0.2757819243961638 -1.2353333079173434
P 1.887737341141936 0.5782848816090971 8.62221401035233 0.27272359718581424 0.35632481624723794 -0.3483582531019936
P 8.122966508109252 0.6868996701076617 6.030618586996294 -0.06523402940814572 0.5256692404137527 1.0759087139677017
P 1.4436907231186764 4.626148723570448 7.052891346661405 -0.7045974516139607 -0.7326780119002607 -0.8863379354519831
P 0.38322229975158395 1.5723954982275037 0.7946783318849531 0.45033488934681154 0.0166877450683261 -0.18457795328681761
Ni 7.533042852677469 5.06678108099751 3.111752518314863 1.1562960540775182 -0.2281599516428264 0.3174839321206403
Ni 2.959493934152211 0.7200345185065697 2.8090103983747867 1.0136844179201574 1.939388256764273 0.643618340827427
Ni 0.9005066431872659 4.653820755015439 4.113955483233451 0.7491173884032066 -1.765882502131217 0.5905186327889701
Ni 5.85684281858169 4.858786528225902 10.277131820065142 -0.29445661798753164 -1.2692497581591302 0.030816728270540477
Ni 9.08036372738666 1.6906647510302097 8.878853516311864 0.009684831387931707 0.4514957424241321 0.05237851360171624
Ni 3.0854544514162447 7.939844660218548 6.579777622971052 1.7891059914355316 1.288704267339316 0.4757520438683355
Ni 5.7706786291271035 2.539787690056685 5.667561534438008 -0.9644282519975068 -0.38169569091185873 -0.8088693116508585
Ni 2.0289335374105093 6.7815383967186325 0.25876699414823967 -0.19116897624077397 -0.8136443644419987 -1.1751517533314406
Ni 5.9963410626720455 7.693292825821599 9.345062540414798 -1.946772465043486 0.17030010321156477 0.38204613227274203
Ni 4.526299957371423 5.925036249306827 6.750673297366605 1.867207620834965 2.3770946587137964 1.385146089808834
Ni 3.068098626718905 5.06796505846232 3.0933760866866167 -0.8356298675741545 0.1424630263946385 -0.08890566199347269
Ni 8.813170301374523 0.5642983447205324 4.002299983617896 1.0554460752379757 -1.332136627491338 0.9464451851565248
Ni 2.73005011521578 1.7767555155257386 10.44954647330121 -0.24376680494214792 -3.2467972996019436 -2.516194939283789
Ni 1.2704812447008065 4.684760197138512 1.5446867543029834 0.8049566068600137 -0.04421988905032385 -0.02115683658327324
Ni 8.375493298549546 7.545029477243691 6.3200882277746455 2.0229964178042317 0.2839557184562077 0.910416830778058
Ni 2.2305584749838325 2.7402286501651982 8.23041016851084 -0.6346215366454554 0.4952816292608308 -1.3056709771006416
Ni 4.648561692322909 5.264569564460052 12.463061687121522 -0.7851277450595446 0.39088738471345585 -0.07875340405081921
Ni 4.8059297358240105 3.8740935804186756 7.735239587119458 -0.15291147542147215 -1.0039003419502002 0.8387797260570459
Ni 8.048642093302771 2.5298844987037348 4.659850779778079 -1.4212027263220748 1.7261635862750402 -0.23307230134277923
Ni 3.514632515230255 4.0040924704309 9.898103921099748 1.6922031701691955 0.8253279714275141 -0.16421250225658815
Ni 0.595031279146255 9.084135934658265 2.1164937188991866 1.2405886427790116 -1.0490784811487353 -1.3851658873031758
Ni 6.401527521113849 8.445733450008426 6.060668669302777 -1.7552563898759381 2.1092042212505673 0.8038507753903446
Ni 9.177817004296417 3.0091842751947264 2.608615328865685 0.3216190373349364 -0.2741893830980633 -0.7932938258101048
Ni 3.8042572662346164 1.2741524926537078 12.723502770336285 1.06545152319012 0.29112781072461474 -0.2734859292731354
P 3.8411624862811538 5.851253343573399 1.1938494505559274 0.3990424097204224 -0.6614710527381318 -0.6311688022101646
P 8.007579184949572 3.8945883221157453 9.151035250480003 1.4864683802991046 0.6503109223562542 1.1058612944657342
P 9.08338332882792 6.398526275912353 4.323404768006395 -2.008405664474251 1.7982411209675804 1.0673335707041811
P 0.44629342177043513 5.730056270528253 12.057179527192645 1.5484175683083914 0.09279111309080793 -0.13246246353850089
P 3.72873051772356 6.671612054888894 4.866424559591914 -1.1602740648886598 0.021295933264298808 -1.25516165549718
P 6.309792212890735 3.1380542564614338 3.277637857066695 0.29661968707712144 0.3182375224572132 1.1275621764779356
P 4.3948142119382725 6.062019688549445 9.12231507774446 -0.7746805815842916 -0.5730862962451355 0.27134702855326176
P 6.409861253966934 8.225431038474719 11.786556237780513 0.12090458349757241 -0.042562813062875085 -0.12880224107809432
Ni 7.74712249893101 1.2101718189545252 1.9728396221261464 -1.502157251789271 -1.2322482412341162 0.5061854206575283
Ni 1.4001497223972703 6.631889152038505 6.093673188399358 -0.4277060962037021 -2.141756701265292 -1.9602931252377402
Ni 1.3259538012691408 8.76470982839623 10.352505293974165 0.24522539176554536 -0.34470034463443217 0.7213492171510029
Ni 1.579857309691775 2.0301725835946134 4.45378638561771 -0.4206283634213143 0.12885854823732648 0.038102720408992444
Ni 8.236224507456248 0.6364640657307076 12.65519461311262 0.20827015469743487 1.0855647490002271 -0.23606506542251604
Ni 6.463030102444822 2.238268095684925 11.366167141565747 3.3953733808728557 1.4562805438618145 0.08292296204747654
Ni 6.710325364552236 6.4694547863624 5.090892001928187 0.27638870474222726 -1.647374443890279 -0.9316600564275503
Ni 2.8098263332323192 6.308149329431812 10.900415187832948 -0.2787510343268167 0.9692038190092792 0.9844121513186014
Ni 0.6818819919680341 3.3077852274439303 12.806290329486192 1.5514069899540186 1.2630238318540763 0.45447153722300443
Ni 1.5871722712379301 1.05849420978042 12.432218615257213 -1.9148059394392183 -0.884526079054225 0.04653491033674566
Ni 3.8020269831032287 2.8760189338231243 3.982674409873676 1.0052630266256817 -0.1801325159209543 -0.5373477051929456
Ni 1.9870537763877907 5.448801964856507 8.899486847619157 1.0418449395147735 1.2143927011099345 -1.7641837742725552
Ni 6.0607898204852235 0.4253094862836412 13.386426437875539 -0.4692001016824307 0.9278244847315441 1.0157847520926118
Ni 8.38747992311577 4.944932361440725 0.8538790407494584 -0.8444703486839198 1.1266170389558468 -0.8317768123766514
Ni -0.025280213403676373 6.0100990643755425 9.840408423895932 1.6971312035984318 0.12908069155046156 -1.5199598271883306
Ni 5.267937934456839 0.6525780908079784 10.610770244964845 -1.9541247916434992 -2.532852345334812 -0.5980283109024539
Ni 1.1505323959596483 6.762080782568257 2.646550333963011 -0.9345312073277583 0.03083961108867592 -0.3560623066144707
Ni 3.409010711625293 8.16187255829012 9.20778999039589 0.8477744733564883 -0.002581387573931038 -0.146071055460871
Ni 6.828603795474824 6.84117781971351 0.16828449928905306 2.3349313950821853 -0.5793430757881247 -1.1214655766618944
Ni 0.24684094517324068 2.6241896804938794 6.47333345982464 0.5971777899767006 0.8979158700975697 0.8771940641691861
Ni 4.212132913801919 1.3741113962913198 8.346351850111407 -1.244973402110269 0.4849388525739261 -0.6396290171623759
Ni 5.244910031672267 2.988276518102955 13.061868844787336 -1.261349786585763 -1.084446319125068 0.8586702943333857
Ni 6.4262533760766365 0.5675923719462728 4.012724492180159 0.9605281456121522 3.549748328213732 -0.24820941409453381
Ni 3.3461405904318635 7.55574034314628 2.544888889087241 0.7611344674687407 -1.3472215468489184 1.1957876844142372
P 6.637120680371389 4.4130511361443086 12.733630825626351 0.9563994681557594 1.9437082242958654 -0.6856877591936513
P 4.996605176377807 8.76723381136385 7.654452858103882 -0.49391071705523315 -1.2988714376803048 -0.5722643145644726
P 3.4512575974433015 2.662407371683579 6.34613481418849 0.2466335849669817 -1.5620510999314259 0.1910748738650709
P 2.265095740100749 2.8105055141036055 2.403679843450833 0.06683068447130426 0.6267012533571142 0.2748239313582686
P 9.066055038490227 7.249420592076102 0.7944525501358497 -0.7215456494325251 0.16753102510685985 0.6097509986560209
P 7.901397516031793 7.447934147009342 8.629750164587648 3.1260402974258295 1.1087162474160261 -0.5287136836670313
P 3.185367464454446 8.538579310737292 11.989893812523864 -0.9506787636218981 -0.9180879741700705 -0.759679223079453
P 3.089245014927615 3.170296991607787 11.737740571562775 0.2874339068127953 2.5133153037431493 4.227944149905713
