# total energy = -340866.9735702484 ev
CRYSTAL
PRIMVEC
9.29673834815846 0.00000000000000 0.00000000000000
0.00000000000000 9.29673834815846 0.00000000000000
0.00000000000000 0.00000000000000 13.60671630124016
PRIMCOORD
 96 1
Ni 4.2383085389092265 5.4175346933512065 0.9508954769829054 -0.8680170256556082 -0.04370155465300861 0.4335612694328984
Ni 2.3480120719655773 6.0888986373057605 6.037041432024607 0.1383045241415747 -1.5598983152544812 0.6327016939149233
Ni 6.235433823688253 4.277577960764299 2.840319909890095 -0.296001079656516 4.585760977317444 -0.29628158701141233
Ni 2.282460771421043 1.2584622535117667 5.869420313892709 0.6788442539092566 0.6924952690337881 -0.165715826274992
Ni 7.271722629403496 5.379604001786648 6.060390189834505 0.3587732777877305 0.5603300250207317 0.5895138456735396
Ni 9.308823888135366 9.19295864083902 2.375024674271945 0.392055436879628 0.3418315077270694 0.4794852856585226
Ni 0.5723183552804144 1.6551168825052587 10.526658466351476 -0.08009449145974593 0.164943981105974 0.13628723660122982
Ni 2.2818378899664284 2.81627947476343 3.4624464693681265 0.46751602911178836 -1.2816033946284766 -0.3784260190216515
Ni 3.2473971119995246 6.059269932890014 11.751957395611015 -0.5095509946956515 0.31120864063488984 0.36292098140751694
Ni 6.719905441044201 0.7523487594663253 5.1135536687185335 0.04209641494941782 0.46955877057343004 0.22605498948468167
Ni 4.627525777399864 2.9047844217474 1.977858724681382 -0.877055995929425 -0.6306419831724172 -0.16841908413876802
Ni 0.9277744892571563 6.902614235484952 7.992856660929341 0.25431424144069104 0.955096690183936 -0.534371653283757
Ni -0.47587771262989903 1.8527376449042334 4.023424663479314 1.278465106109811 -0.015649019391166596 1.6065728364928846
Ni 8.008331081544343 1.0382039337697282 0.6713388427616074 -0.018048629971594725 -0.09989635667702151 -0.7470628198670232
Ni 2.224198113569306 9.679205935177524 1.6112799732076208 -0.45938748646738303 -0.41190126796096155 0.6296873325686316
Ni 8.656481070391862 1.1768461894810662 6.473694347142451 0.4985093921695092 -0.4248951091174682 0.3881234488150735
Ni 3.4505773237993833 0.11526002964417603 7.656866037246195 0.07167515704779914 0.2528281438134678 -0.800032430085519
Ni 1.4302008969608075 8.061062180209582 10.16363199851664 1.3352443198823842 -0.60083981220932 0.19580210413741117
Ni 3.6832003052524174 2.6410359610399192 7.5371407842788685 0.5588930354638891 -0.7605433708519612 -1.0158765404754697
Ni 6.235006173734339 4.512627390868889 10.774695439621677 -0.33991552165127914 0.02671350473544432 0.029904243758600114
Ni 1.1372420850533655 4.583533612575479 8.509436422759924 -1.9139693024705358 -0.051514365829208056 -0.1300602818549115
Ni 8.65863791363769 9.061251751771595 11.758162038638021 1.489824698365847 -0.6195913817852103 0.3928625061619557
Ni 6.506917170518703 7.696778793379764 5.62560127071144 -0.9268412948826683 0.4521061223146214 -0.12833095786863058
Ni 5.657548581616452 4.092312563338191 8.724408617202059 0.7244234852009523 -1.060952863988818 -1.9021962210950079
P 5.9148822930152205 7.446082953004793 8.835956459311497 0.6160663993510874 1.5141784446198632 -0.030191693092031877
P 7.487732339820779 3.8472877332216466 4.569583857013562 0.1836865518207998 -1.1511533335343143 0.3005889561375146
P 2.8254460585581986 3.095785906598834 0.8013964904850255 -1.2611968059476666 0.5523169249082682 0.6485664288613218
P 4.149636250638943 4.612911305061755 3.579913544644025 0.2728716927279043 -0.3795737594728495 -0.674818163468999
P 4.79643821245782 9.171910825715942 11.895154123331539 -0.49198470367711394 0.43970234933362984 -0.5267352197844218
P 0.6768360040170298 8.997271599970787 0.07047113436217288 -1.003464282854046 1.7618407279616752 0.6962508794214783
P 7.587421262773416 1.5237818629629754 9.036682332245414 -0.9806498560626918 -1.5150055685068486 1.5015967513001107
P 4.2617920994219896 3.7057634886904527 10.36707902670079 -0.685335003839923 -1.3125671899998426 -0.2508957026774453
Ni 1.9708062191370501 4.719256692514446 13.226067716426863 -1.0266337789919737 -0.8356486366272318 -1.927523644116203
Ni 4.854840321381486 4.575557011261167 6.665222957045775 0.4734172250875717 -0.011318253226296636 -2.3898586432476843
Ni 4.809955669696758 6.137269565788701 10.05132182388066 -0.7149556549198333 -0.5593519773781787 -0.9186523313139727
Ni 6.873385290808733 2.2589121337413793 2.964821826907881 0.42307733918243906 -3.310708753543924 -0.004457778661037484
Ni 0.21016671050347766 3.9399018384584434 5.992574203881852 -0.7871234353333347 0.4642242457343941 -0.1025510206910492
Ni 6.743937509106549 4.067611130130585 12.768582670510524 1.1505282983558056 -0.7311214660464183 3.0113665253293167
Ni 5.1522894578050265 2.7333804608709875 4.684602171466396 -0.27047568169190195 0.7679198658216904 -0.18771007115789606
Ni 4.912982121637551 1.563581198891376 9.390103410245812 -0.23701920180566924 0.4717673481889746 0.2449780516414297
Ni 0.7079856547906106 7.030974298826093 3.1929247342828053 -0.40809577817194226 -1.0630089751868983 0.10627886316459761
Ni 4.202339459089796 3.8096917242297166 12.81801621616156 0.3773515550105501 -0.012963245028887349 -0.9696810157560138
Ni 8.834290483838858 4.1799436169380755 2.768394765684614 -0.27146632773994533 0.8545724701149282 0.727213903461896
Ni 2.839567803775494 8.058384719628554 3.4797133010943164 -0.04808220021920751 -0.7213800703889383 0.8417902307485954
Ni 8.49358362490309 6.196824470240309 12.978480705282085 0.33002397356918006 0.2760647457439052 -0.8810813150387342
Ni 4.251825996148164 6.843821663559886 7.422857841812004 0.2804227656022848 0.36097362787315895 0.40978267895606196
Ni 6.345311971629801 6.713983418856302 0.5509154047608246 -0.12295143872427212 -0.729613256932008 -1.35511457644375
Ni 7.592116115528343 2.3114387041677897 11.140743347348298 -0.06055693564745054 -0.029314175583085 -0.3487722007109606
Ni 8.471364420775812 4.8208328533071825 10.484954228780532 0.5283290466341031 1.5604706428181836 -1.6046241974069462
Ni 8.94355504706392 3.9845819619043423 0.32750920948845297 1.2169445209975105 0.5369895505225784 -0.13661428092334535
Ni 3.1456257197060884 2.0455519936907387 11.493483904117683 1.001277302505056 0.34144224270845064 -0.9859183035504825
Ni 7.586259170507345 6.469125930026073 3.5402229805517282 -0.3424442016104038 -0.47669589583884353 1.040764304856085
Ni 4.095408377135004 7.81062664850221 -0.017804183190021014 -0.13379660896889217 0.1917323049434117 0.07297047882045499
Ni 1.4807565589039615 7.203252153086591 13.029518867934112 0.5113140001333453 -0.4441200187853513 -0.041257721098206364
Ni 5.477870523805614 1.9672176782194228 12.144334595391552 0.5013653735610656 -0.9997436394693492 -0.09476546320835938
Ni 6.615335730574065 0.06189396376475583 10.393340452566369 -0.7988319820195146 -0.5534248132604662 -0.1876743328239542
P 8.185127150535324 5.9585490720051055 1.5086579293754208 0.6079471126780627 0.3192775336859534 0.33115165941572006
P 1.5413155110734549 0.7877219183717145 3.993720655484725 -0.9329525499867287 -1.5102837375511473 -2.244443219092941
P 2.5239342475724738 7.204153936685063 1.5496147092008279 0.4493869236112454 -0.9355596485922726 -0.5526596529596676
P 5.359169771380055 5.734358232034682 12.522709977876653 -0.8037011371863578 0.5815843064138178 -0.41448625507931836
P 2.4035879724981584 6.0335458584882655 9.632629277153397 0.02624042175376771 1.3747878865029615 0.7862636584362007
P 6.049861633903903 9.557232730930709 3.194027327424853 -0.6087878634118031 -1.4395092379407468 0.14812896643116424
P 7.723014188378584 5.1429648294620725 8.384431552209383 0.20210773464046483 -0.09856966744579798 -0.551300824938928
P 3.998173793048309 8.055177344974197 5.611124390097634 0.20385454212824247 0.40972920001030727 -0.2505383193380266
Ni 8.572029501231947 2.974407693592247 8.12752270174309 0.8420265151291176 2.5488510347559137 0.6759484204187004
Ni 3.8807373970082355 0.7580430115700733 3.666914279398792 1.1423840719821163 0.8761813066339557 0.04596695364841761
Ni 6.443578493648767 0.16392938342104355 7.755270150989464 -0.29683591685298555 -0.03362591558456144 -0.1063912203727458
Ni 8.771779216662365 8.840528595123127 9.219761136863683 -0.24328883686446492 0.7564514601707747 -0.5943966276871375
Ni 3.840277992672706 8.253095602993287 9.655883208234386 0.692143285011008 0.5650336011439882 0.8876360854381165
Ni 8.570616397036407 8.484788910633464 4.772950003575993 0.5857008996853527 -0.356720766134076 -0.12197261975077058
Ni 6.83561264379236 3.003004460075723 6.707893125708278 0.053934802345242595 0.7338818024003748 -1.1388904570065612
Ni 1.2879608035937136 1.835222590270011 13.153163625696445 -0.5893289833562431 0.23849167258613768 -0.10936907205414714
Ni 2.600269764346147 9.28121257589352 11.822549387568861 -0.49836232506868366 -1.7944274036484449 1.14992897420891
Ni 7.310815413234126 8.202121587834347 1.8949122974244832 0.3552308118521108 0.268700334959034 1.0797972503888307
Ni 5.682575400658558 0.4142366201422402 1.1439422442226246 -1.204174622926352 0.749164182480742 0.28647591377490017
Ni 1.83432080667154 8.238574098036464 5.715949760866305 -1.3625892875542405 0.43692452947817656 -0.24086120125957872
Ni 6.7544614166680885 6.9994676533083755 11.265830029194369 0.6634451457453671 0.14930293213460738 -0.3170185624484476
Ni 4.989103813434268 7.065121217972324 2.3943330696911684 -0.23617433730687065 0.8041935034417439 1.2339156016342105
Ni 3.705168497450224 1.2600148087792375 13.811360599439507 0.977015087523582 -0.16850778719783235 -1.188600936857811
Ni 1.7282636181008335 4.985989406161198 1.7929029086349555 -0.14704601777963064 0.13142939428829623 -0.06207851449829955
Ni 1.4187287221101543 2.2223480626817205 7.90747541795657 0.32614057935437374 -0.5997674050807478 0.5819365475469139
Ni 1.966241520715923 3.703039544418782 10.693599992926176 -0.9305261999334232 2.165701127896032 -0.36207226025397643
Ni 2.0777373010918416 5.001533552312164 3.978182087376636 -0.4969024526937055 0.9829062561970363 1.763211640167273
Ni 4.811573302131129 6.225551391057586 4.867979401378591 -0.11683375586230846 -0.6097024048062726 -0.44567090821223887
Ni 0.3201852391907669 2.180373290031235 1.833450631982706 1.47140762931124 0.4179749849588672 0.05647402382732855
Ni 3.3734701777610385 4.70416808653178 8.312424596708372 -0.016101276437236786 0.6808553708020145 1.0231023687999474
Ni 7.7576538346456285 7.476799375781583 7.571415998411274 0.07007335977831804 -1.8740192444401595 -0.02064261595101606
Ni 6.671088269131089 8.995681857750801 12.84497117869153 -0.32894179624859476 -0.9472846503386848 0.021670285884582034
P 2.2754882178246167 0.7891833656055254 9.585523634729755 1.5359819136481998 -0.11624728723121915 -0.1029179171121647
P 9.261819580157326 6.211550503435961 5.335261349934816 0.7524317974884203 1.2278735092051887 -0.4504436470105339
P 1.0181601663645352 9.358375502360634 7.399427272706574 -0.6226782482406502 -0.7172272245628293 0.37923925895156624
P 2.210494721567796 3.386671545903605 5.667387319577916 0.8196232077332529 1.0317502742829328 0.7157077025945093
P -0.034962243080106536 3.5512331075173917 11.841911704069227 1.7657485476565138 -1.427497558191851 1.1908851049062976
P 5.315261277198827 1.601093537240149 6.547116266186632 -1.8409175767901844 -0.7433126087959715 0.671744666749998
P 7.205734382166919 3.064679020820645 1.078274734451483 -0.7476816843979446 -0.326129009390148 -0.7151317754863813
P 9.038772238976716 7.001912695436189 10.675802317452845 -1.7406682076491184 -0.261382204031066 1.1407475648199579
