# total energy = -340884.8967146327 ev
CRYSTAL
PRIMVEC
9.12303183499096 0.00000000000000 0.00000000000000

0.00000000000000 9.12303183499096 0.00000000000000

0.00000000000000 0.00000000000000 13.35247926070199

PRIMCOORD
 96 1
Ni 6.46204427633132 2.167303975398722 11.177948437503199 -0.426920109967297 -0.8693082336632061 -0.11602308703555503
Ni 4.723604912487877 0.7182417129564276 6.127412374665968 -0.4890927268412997 0.04486575016443886 0.13342945543746054
Ni 2.78153947427753 2.196853476065138 4.876178499750966 -0.5142329735523531 -0.7833883937709347 0.3637301075723736
Ni 3.6533364127408574 5.065335445356853 4.862773116521811 -1.1403125341650684 -1.690779036128159 1.2188355673726365
Ni 3.6883323635146676 3.4677830647772154 3.026138909988371 -1.3051338736502491 -1.652311733290896 -1.0864852039319675
Ni 5.405113649376612 4.820007991691958 2.8658162193396537 -0.9260162278782117 1.1574448229699807 0.8361227480501728
Ni 5.48551493044272 3.090326738573975 -0.04238469439521528 -2.7666633246158288 -0.3702337130188463 -0.10937447137078582
Ni 5.69445973246894 8.238581421830505 12.351644751098677 0.18143837921657138 0.08200225000542007 0.8516344705325269
Ni 2.6099808574106103 5.609980456096291 11.563500542308285 -0.9931269054837799 -0.9638160723348047 -0.9199828771999382
Ni 0.7057185269222227 0.2505649863393588 0.16212357716663978 0.2071437544024755 -0.6782780969931415 -0.09856298257757865
Ni 8.096453706213927 0.17227842409216854 6.926211372535801 0.5745551674811783 0.148988229107666 0.5665405247068178
Ni 8.480807044613467 2.551064316717892 1.8297034391187204 1.001250820142495 1.9179755954164517 -1.3756816019618243
Ni 0.8230872459785701 0.3151149992955881 4.848765613180281 0.7808820824093132 0.9978232825181848 -0.12811395676181805
Ni 1.9156451375218815 6.606808548197541 0.2723288914921227 -0.016838154603261324 0.43086906731271607 0.617773097629549
Ni 7.7060061824345905 4.356676565219198 3.637976876056085 0.667485891473644 -0.5673468226581971 -0.0014688712360426315
Ni 7.530697999413333 3.608907246873168 12.66498714527556 2.393833568735032 1.9342483644345463 0.7943487494371804
Ni 8.583057987333193 7.209731487389299 9.466534231370197 -0.10079264323904577 0.9195200786309067 -0.5721776683879372
Ni 7.098257159311824 1.2302499889987248 0.34579301902110754 -0.8302495770988475 -1.4782102540553703 -0.044822041410697
Ni 1.9890490530396288 6.5494611690098 9.278624404239489 -1.0512454068930668 0.6783937966353993 0.9625192079002519
Ni 0.4233999153838742 5.397778731644041 1.6502597856892862 -0.8017211306418515 -1.0684196046795083 -0.5043907906509506
Ni 6.419959729689092 2.078682842495491 7.36720414283944 0.017852711910704738 1.022177542992833 -2.195040243179781
Ni 3.681052183974131 4.783488494573199 0.6898079591043069 0.7313135274525664 -0.4805684914203723 0.1894147125538286
Ni 6.21353288449644 6.00843800197662 4.886099797057148 1.6388787477144422 0.9496989162071322 -1.0218350720517497
Ni 5.314257373631988 3.3911769650254726 9.22250407285651 1.5123460193968148 -0.44757378166190653 -0.5107445007831204
P 8.843219491039331 5.658369017854448 12.925173281168115 1.625352431093233 0.26513061532990473 0.4276778140689279
P 4.177828645779735 6.34026092208742 12.636131907344778 1.4036708880858988 1.9625343558634327 0.7550039290909707
P 2.261444542665393 8.849806320147437 1.4927004614350912 2.7092454488179922 -0.05180695736896239 -0.12150750718889397
P 6.69069482748982 8.319037441088648 5.6925092282261245 -0.7198109261296055 0.2893203252022308 -0.9809229072184202
P 4.628524672924621 1.3780066153628105 12.414160327917639 0.16070397488269741 -3.2067762791243157 1.756863072241426
P 4.643678029086065 6.350360118517716 7.954004859870749 -1.7139508462589321 1.6036597766111478 1.4564273538523238
P 4.602615262028474 1.4218792762781534 3.7953090368133386 -0.03546399723456473 -0.21359670911667086 -0.6358132429607114
P 9.069479807812343 6.20395370089047 3.6169464626765784 0.09902809513945526 -0.5869327152099246 1.2925264692988836
Ni 0.6545492650087327 7.856618317816456 2.3423320813374047 0.26359052453629445 -1.255385084361896 0.6556284779144257
Ni 1.901559176105103 6.982431144967639 4.9705672134881915 0.6060838342170788 -0.5281562685016645 -0.5685961216842659
Ni 6.3535258106236885 5.617844509685192 8.91059034549172 0.24964666076169262 0.41227947723598674 2.1941822660548596
Ni 8.914059834563481 2.608302219521564 10.52135287641559 -0.7022191811897712 0.3245444385118475 -0.5914030922764524
Ni 2.589745972421999 5.936548509771817 7.1597199382373296 0.2822140531747527 -1.291293368222731 -1.0560795950569168
Ni 0.6119912330054094 0.3861478387950577 9.31951018447617 0.4888021921840743 -0.5063504854804829 -0.031554377767513395
Ni 1.588867254110225 1.4571762871081515 11.312514071890263 1.6785110173940836 -0.4511578994687392 1.2042797810456485
Ni 4.082593314672382 7.516730637412629 1.5787306532487075 0.42322594894516136 -0.42472155965408137 -0.40317237272839596
Ni 5.848210190860762 8.475798500042345 8.090480857159806 -0.11878625160298897 -0.32225872780146436 0.6506855320868535
Ni 6.708092449524663 1.5290840253769664 4.753776603937082 2.374890709083942 -2.419057633409144 0.37261738275967443
Ni 1.0665371796566947 7.933689692200488 7.30100194878698 0.04630222550064929 -0.20165547759439464 0.31183933224035326
Ni 5.312651719998987 4.986448587603689 6.607821204750172 0.47258521610457965 -1.7296993673424406 1.152736618861034
Ni 0.7378325118854371 7.294429716530085 11.562779822779836 0.11127837326171804 0.3706304342366326 -0.02029654546550698
Ni 4.598044622993625 0.28550802352753624 10.493913533052089 -0.8794427509940467 0.7420288569875415 0.8706629479188877
Ni 8.826597326724972 7.620277050677162 5.370527322739857 -2.1493476262386726 -1.972731608111409 -0.6487155528446763
Ni 7.317045712872179 6.861076573228007 7.248487039652652 0.9979911755546168 -0.7815739662700153 -1.2360948686737163
Ni 2.6204176060251148 5.826077715214968 2.611144043991335 -0.05473955763472508 0.449819897383606 0.663762934096102
Ni 3.6149010789009037 4.871781198324225 9.46644026414054 -0.18963017099874438 -0.1984966202504388 -0.6743895605720127
Ni 1.2600093194012718 4.026742112733574 3.563576725443317 -0.4458943370769546 -0.5199860739860463 0.5476709414958245
Ni 1.6403667697823205 1.4583257891408679 2.7598640625352218 -0.07235007162763668 0.6087467257612226 -0.585983721033094
Ni 1.3578903297902738 3.8556214014029266 8.407268108222036 -0.09716635934036814 -0.12897656187242948 -0.9982760537848873
Ni 5.088818129739488 2.9326260073236914 5.145431104850771 -0.8821478086300356 3.078414725128066 0.6077074858634308
Ni 4.657928205078946 7.425837869539982 5.957449376096843 -1.0513510792329956 0.04471456929855525 0.3377887051162634
Ni 8.279507343408012 7.664824815960925 0.2840757075026436 -0.3521586006846903 -0.41067793707682176 -0.05081142622491249
P 0.10241971881183072 5.857552175634584 7.8995403587968065 1.0068589103578918 0.19128467588303186 0.1151010894419179
P 8.854376959182286 1.9267661135368124 8.088571406561016 0.5497887591697758 0.8680177969865567 0.48846177812552005
P 1.9739595581022247 3.6511560080914984 10.643287672990782 0.645089783166631 -0.9087998639999252 -0.44621701052369594
P 4.278702010666602 6.679747189082998 3.857210633578317 0.3933548724173419 1.4968250409430803 -1.8521509836121588
P 7.391434915846541 4.156845672166658 10.537696788253776 -1.5774257826152833 0.5944732465613439 -1.6034378904083288
P 6.750085765846834 7.994011179822083 10.337703505231534 -1.127327177648994 0.6343016914121915 -0.698667459282771
P 2.721856598896334 8.827418399605484 5.995436769065318 -0.6130016443828346 0.10077104597249097 0.3672136952455998
P 6.539216004067415 4.142787079845896 1.3273810861568596 2.081112348110358 0.5402417389112889 0.8906589314248402
Ni 2.818880044276802 1.68572648491459 0.4703306166275227 -0.09911808375010026 0.5916756292115488 -0.9558639073672635
Ni 1.718532908007036 1.3991264344559733 7.1009557521791065 -0.24452862280883694 0.33436682391890804 -0.08428821782611935
Ni 7.2874323509817245 1.0542940707050643 9.202863097251473 -0.09604073037635717 -1.1040880046153954 1.4811973617081522
Ni 2.9762979615349088 2.0650074175189683 9.112185632934159 0.259826686618488 -0.5243731473101485 0.8497647643136397
Ni 6.274429123134392 2.412950735183816 2.645754090511305 -0.6144118944667999 0.22578090988768856 -0.7333701528712789
Ni 4.549929752195639 7.177326477705103 10.099828656412084 0.12791135383270874 -1.5415023292457968 0.370359182853117
Ni 7.439285218716363 6.27452035345445 11.49672542184587 -0.1571108582148004 -0.2672810860140042 -0.2887135448561673
Ni 7.823209774611635 4.0527427539497785 8.020219826168017 0.7266539171933679 -0.7072143204115175 -0.11137016164457593
Ni 3.046800752874848 8.507984556958405 12.57755474344267 0.5193957487002151 0.2630639626088631 -0.5642905523303766
Ni 0.3307500515469323 5.013115210156308 10.220322013930378 -0.8540207113765164 0.5218912614285592 0.786930088375606
Ni 8.642558402074275 2.4772772338559057 5.991564954282104 1.0656201875575004 0.062280603206776614 -0.23451186200278323
Ni 4.073753096658873 2.888196841456002 11.228447156564272 -1.8248767212772379 1.6057549685772796 -0.713025784886972
Ni 1.1024545566630795 3.7208559726149377 12.900031117263646 -0.7766361626487657 0.5896974224392554 -1.2984760020140993
Ni 3.372219304517658 8.287188936356799 8.171330079097393 -0.1819158330736222 0.8813857336530303 -0.2416150487064678
Ni 5.7216281217818725 8.563242761816843 3.5314901095761195 0.3546399723456473 -0.3246475397486151 0.5670532026771782
Ni 3.235246101984292 8.78638300164391 3.7806610966250096 -0.33828569935734 -0.14546916021081396 -0.2540905554656592
Ni 3.7981280537030955 3.2576248994942394 7.148049755695657 -1.2959972014563035 -0.13905631470593469 0.16688464977211256
Ni 5.419555409041613 5.0111263891790685 11.29352721768003 -0.7570932075198316 -0.5331496079511979 0.2974408974268361
Ni 8.243206799057388 0.33765892368483813 2.5695776855670296 -1.7939139543471363 -0.5151680837721128 0.029445816064942832
Ni 4.689475649754607 0.8064404494777954 1.6830534365369243 0.32108733320118255 -0.3810416022676277 -0.8053296739287161
Ni 6.2156038127617315 6.191765330130874 0.4369594778539249 -0.7906931549624641 -1.0051187877383334 -1.2343917699396807
Ni 8.173616310918018 0.18161402274358673 11.367539639432556 0.4664485070792224 -0.023268483609637344 0.5594013425588752
Ni 8.99831103513599 5.010122855658444 5.82810394062343 0.5843256166043808 0.4146986282004407 -0.29056911000766733
Ni 6.938905159268512 6.567497403285041 2.6824861542757974 1.9721045160503716 0.7011141210510506 -0.18665591886176885
P 8.846266583729232 1.9524930637928464 3.844659166144895 0.0766677251663841 0.3963070130671304 0.08865240833208603
P 2.016034981712447 3.5265445139258373 1.4039598168125855 0.2587319108924125 0.14983180805488389 2.754830593646959
P 5.076283083763675 1.2707562511039694 8.756743182960639 -1.1392257288587928 1.1179547352951584 -1.4127540813340895
P 8.897410301153105 1.916967977162706 12.746663826216064 0.030851181052901702 0.29873493364791126 -0.9845689886114397
P 6.4498741516357345 8.21142215554958 1.2991188453064457 -0.6675116025052569 1.448735384524705 0.5738252312936892
P 1.6742405876194317 3.5247472766207175 6.1739325394693605 0.924909367967278 0.6479244244019486 -0.2859655497973849
P 7.007264038087116 3.8210633561653897 5.732673376631157 -0.6506636777099826 0.8122708811332398 0.09347296964918096
P 2.3277872314107397 8.440930271716615 10.326393682454087 0.36112120919461677 0.44648749057626325 0.29554110930096195
