# total energy = -381168.9478034951 ev
CRYSTAL
PRIMVEC
9.20222992547235 0.00000000000000 0.00000000000000
0.00000000000000 9.20222992547235 0.00000000000000
0.00000000000000 0.00000000000000 13.46839367158143
PRIMCOORD
 96 1
Ni 0.3950903714609122 7.197938079779481 13.240669649910913 -0.06254028462606648 0.40704728230277 -2.3791962784378318
Ni 8.177515434010237 5.366528724361008 5.648401302845807 0.12400481968945096 -0.4348226526438253 -0.2051696613952402
Ni 3.815778173326601 7.581891912827148 10.301920102982168 3.0074522778765753 1.566867547483463 1.1352885985879158
Ni 1.1028596258571475 8.71217418326492 10.827551464876587 1.006369629426299 0.6018664537016215 -0.28347389372378273
Ni 8.100943680468161 7.808036708320063 1.5192614411382854 -0.041420729038631886 0.05888520437198246 -1.2196117834170288
Ni 0.8360667412227755 0.3300710971156532 13.100343008387798 0.39021478412646343 0.6108288051012319 -0.08949855838246523
Ni 5.296048846896909 8.856115460624034 5.169829223542284 -0.08465485713691873 -1.884959288391431 0.5807181017587806
Ni 7.217934524971999 3.483366028968897 3.802746895812968 -0.09033673801304443 0.06464627522547575 -1.125055865116314
Ni 6.530748818024738 8.570312609823668 8.898055542818886 0.16849750278518724 -1.0493638735996378 1.6925978345044526
Ni 5.129433275495293 3.4746331129598316 7.6625328923536395 0.2397772241667806 0.2674497503813846 0.6844045216058535
Ni 4.482378492378942 2.3098976944314993 1.2990226366829025 0.5013705157673881 -0.9084964738268935 1.3773628463189893
Ni 2.2444330321675485 1.6544504778059097 1.4094944843090629 -1.2046837013522866 -1.256740827058842 0.7787583511980911
Ni 5.606320426536161 5.656113691578366 11.789544278325758 0.45970244660464055 0.8248857416837729 0.8393847066308964
Ni 7.100872960639736 7.4466835514771015 12.85742622899802 0.2966659669340245 -0.02173147813982064 -1.2071159649428629
Ni 5.372270915709435 2.9171436317573174 12.880228434033702 -0.3932384014441357 0.2507278096410134 -1.5761901104359692
Ni 8.528589700250327 5.225016835649308 0.44783203090701984 0.39671427580787805 0.055097712305092215 1.2661520930704129
Ni 1.9106129466619128 3.0456987810161587 4.292215335333915 -1.3263930401393413 -1.139146281771109 -0.4455904326832906
Ni 7.308668510060917 3.892975678489981 12.646039969538128 -0.011365304414148169 0.42436160521150135 -2.9176937809645045
Ni 0.5732096502418039 2.4025273388437753 8.680743047416067 0.39944093071042175 -1.2232966884677836 0.29500323451962096
Ni 7.497857150978062 0.794202117311668 13.31525740272427 0.05610532763400015 -0.15656706989618843 -0.44551227114718756
Ni 3.283419981503177 2.6666681408713906 8.98858983952277 -0.454658713533146 0.5628895582177919 -0.44338751149470096
Ni 2.815311757619999 5.04531569357868 4.851652008346248 0.8977328075524862 1.1488552815287567 -0.03457079599633401
Ni 3.1043629955133034 2.3999599167504884 12.920176233493084 -0.9302276948563979 0.8333860658453003 -0.7039076246357877
Ni 7.286886832301741 0.9173417543773218 4.297750476513527 1.439049781805825 0.09767826597978016 0.086572900095238
P 8.856097056164584 1.368850076059496 11.319821063125836 1.0774529185263702 -0.6538307625840546 0.582104697693662
Ni 6.580210802796841 8.018114410713054 3.129879858317873 -0.17049859237561604 0.9017460424769373 0.7766019669767206
P 7.697260266890003 8.283681558348052 5.7087808129637 0.15846120159510774 0.2587357675471544 -0.9260110856718892
Ni 6.8485846304979745 1.9868534199338885 10.870339992652088 0.09902886647040365 -1.8181517438485784 1.3861578189027999
P 5.5028873644266865 -0.15563363044775083 10.763818662246889 -0.07248891119834612 0.07854334492254215 0.4277611178113536
P 1.357108030930342 4.0586434202299175 0.9999731761933394 0.7564704863341681 1.1004460369874338 -0.30036295616963754
P 4.344446271030282 7.054272869312121 4.656549094384818 0.009773277336679943 -1.9069198518229225 -1.3521729773169229
Ni 5.553426010076618 4.300220354971729 1.9238788810335339 -0.706109517383113 1.4561244778999245 1.4143579354860996
Ni 3.295760171564459 0.04425812386259107 12.109122993108919 -1.3856911636790263 0.7379570009110129 -0.33245418027722745
Ni 8.928583019708743 7.612130439703637 3.746166066125573 -1.3975280084129542 0.08583190816415541 0.9712061941512887
Ni 0.1105114172139783 4.473746800896852 7.751006809822085 -1.002646157828125 0.25361541560145356 0.46390337205986554
Ni 8.620078268176698 3.7145260396619597 10.449089522528825 -0.43982473384410703 -0.10115773988794836 0.4682922451561806
Ni 1.9362135497569808 1.8179464933307368 10.929291316716654 -1.725841427048931 0.6366267400009422 -0.16286627264133888
Ni 3.060275112900626 0.7961621922431019 4.830520008005661 0.425890383151202 -0.047976270768962534 0.5693666813017032
Ni 4.124651014047646 5.202268923769003 0.28036525325583705 -1.1083112986681234 -0.9863301942769208 -0.9310820724368932
Ni 2.5603455786282514 7.092397707062972 0.5839127636350007 0.6677874818744629 0.06947249296952553 -0.05875459233138913
Ni 6.200784466773896 5.800910776301906 3.8713145499402035 0.1355182196456892 1.0199231997410176 -1.239940724782368
Ni 5.813941133592567 6.614875602171075 0.9995995656665027 0.10697177546656415 -0.21740734111201265 1.557540613655582
Ni 1.0737345687773885 4.628141811223612 12.231186889519714 0.29227812227897404 -0.4201293122977087 0.979344506987707
Ni 9.07830329733518 0.8646967183433272 1.8270014873801783 -1.1573586910140776 -0.42813392776974013 -1.1337965874234215
Ni 8.737931224265315 0.007757479658210681 8.675800529830747 -0.13441958726487171 1.467930469395917 1.182826753378195
Ni 4.38749430168403 7.563192982025862 12.841844093404605 2.1607975199468266 -1.7162069892829603 -0.7655246261166364
Ni 4.384890070671843 7.968486785805901 2.4647298106701987 -2.237409452174611 -0.6078733220173337 0.24184156289497705
Ni 8.676239476188632 1.2454573776764033 6.831788720803828 -0.4527185590876397 -1.8844005876744836 -0.7027156612102157
Ni 1.1076355830844447 0.6429110190711645 3.604411238549131 0.5718853339584989 -0.4303970127723039 0.95472516577713
Ni 0.6758752463922112 8.40071551599114 5.794076280285117 -0.5411110288901197 0.7287442240634933 0.45825517263515264
Ni 6.559505785915496 6.735295980352979 6.758035610226531 -0.6715505484613208 0.4619372494724302 -0.02685851495374084
Ni 8.160178433208259 6.843707448743702 8.874122383749997 -0.04243734322860433 -1.235602245308014 -0.6217529082129034
Ni 6.472931208662297 0.5098228514497675 6.965974714431423 0.22142057603646384 0.3268882561536757 -0.030152098103348072
Ni 0.6199680199206891 6.472949613121748 10.692463652735938 -0.7217703638488214 0.05216382648774887 -1.5328582804175535
Ni 3.9713786757473413 5.266647722925399 10.05025016267793 0.014531875067587876 -0.8026025048055403 -1.3998921377697566
Ni 5.8155699282538995 5.91598465901356 9.01088040058574 1.1424990002934259 1.2107304217669987 -1.503579071837462
P 2.290434978563035 4.2607611939107475 7.838160207324989 0.6304766612391465 0.6549988147502267 -1.4908747368969162
Ni 5.07549900707682 9.221094295978663 0.6769822746281338 1.224919054562555 1.2316586872792337 0.10328584197454471
P 2.187636870304587 8.699695959757763 1.8865583181606522 -0.47327838551686235 0.5036063470764425 1.0842694272275715
Ni 0.8469759845618132 6.488538190275969 1.9393137809513474 0.7053608121425465 -0.47172929586218754 0.5668907089573849
P 0.80985695051991 7.735357497951679 8.126424654576804 1.2389436509764211 -2.1958385707113606 -0.8708809774669646
P 8.181766864143206 5.615541060720654 11.595370789566559 -1.4626987886833325 0.5569109720368538 0.8267420781662214
P 8.024740016115086 5.6690980377204 2.500487834935768 -0.8625786282488563 0.3650503690456939 1.2929373315840573
Ni 2.6039917542141273 6.386789136206176 11.699898917013314 0.3671833562282967 -0.5296950737436942 1.4834972134859223
Ni 4.740142149207102 8.116504650933207 7.700378902543821 -1.7497475442425672 -0.5692203855318261 -0.15580653758108007
Ni 1.9789763112892522 7.247970602794537 4.08807491155952 0.5428537226128393 0.022428761317161372 -2.0840670598633078
Ni 2.9601456512624402 3.6841402771098704 2.400458677601586 0.044574701286581295 0.39042715724758564 -0.12296198024723337
Ni 4.987222017324489 0.8655543661537011 3.17482354829498 0.002700686760614704 0.7600237509030654 -0.2336561988707073
Ni 4.341685602112769 1.764555156466041 10.926719293508505 0.35271395896752805 0.8395664836243992 1.4358425877224368
Ni 6.991458449208983 2.9353732488426263 1.1439015704308364 1.5940327950443451 -1.9269490025596554 1.0153996008390511
Ni 7.2755864941993895 2.887862136772233 6.585410982814462 0.2653879827563494 -0.5364578463888244 -4.36596816669239
Ni 4.151990838560747 5.580186094117042 6.944532598949102 -0.40268771978249357 0.4615556977632954 0.13406708902145945
Ni 1.6206046768772038 4.3169500086118555 9.87091803001928 0.7996711900913582 0.3793693567715273 0.4763500824636505
Ni 0.5912791485298972 5.106096420912586 3.832484821392415 -0.4074604585807886 -0.11719885251121107 0.6002075779419599
Ni 5.332222811946051 1.867831780670191 5.395748564406936 0.05709391679951458 1.7567877389188 -0.08215343087130367
Ni 1.3551663604583581 2.0357448664630384 6.257079107116842 1.473049021569405 1.0703679866551306 -0.4396262446800558
Ni 6.015055864233366 4.024834428220112 10.283414419005108 -0.3566860562413986 -0.9595747805599474 -0.2861388421504556
Ni 7.191514923431402 2.729004045028827 8.691477448390328 2.0221183860746526 -0.30944075010118965 1.5923242969936706
Ni 5.804610072651373 4.296815529973463 5.405917028253107 -1.9676495656028112 0.30116539746627485 1.3675736281427093
Ni 3.1002311943667595 0.3135346902997521 9.34493698339531 1.1326542462888622 0.10470329114736161 1.2937641983607266
Ni 3.4359009280471287 3.1907075170233754 6.05292487999786 -0.13707168017573815 0.6041933020625853 0.4589439711720612
Ni 1.3294553306065897 6.031168968481915 6.364745194899837 -0.5086230835647435 -0.3652092632210614 0.7050512513219276
Ni 9.303362229720541 3.0941485205185066 2.5480311548101997 0.02083236336431896 -0.10132074782837389 0.021931509965768682
Ni 8.010835447000545 8.297521711854515 10.802472628206928 -0.7971458525663433 0.7945984035541412 0.9820089411937474
Ni 2.9001563156848893 7.654157022857905 6.053706149301517 1.7329045045432996 1.3634032988151035 2.05136931251997
Ni 3.7966743444174127 5.725029189989208 2.7967922702983516 0.4438076297512551 1.2727870818884273 -0.1512572276475008
Ni 5.380865798272624 1.4424679138598346 9.012873603544184 -0.21847923401995276 -0.7279870341824947 -0.9997220422027945
Ni 9.205082416257088 2.8168485299840813 0.042411236356775066 0.13317723021733838 -2.0531310324060836 -0.6322286109332467
P 4.814302918561219 3.009883702926294 3.6644401437144998 -0.45677010344919405 1.1845954152428437 -0.5766768418098713
Ni 2.6603278045908363 6.634292306890915 8.783951575120252 -2.2783864088076053 -0.2564940227008292 -2.4456698366800333
P 3.3470349955923946 4.10586006094911 11.532877527280824 -0.8306450127650533 -1.299921219101058 2.0303952813714643
Ni 1.8810369803256268 0.31289237466494413 7.626908300419083 -1.2073072550180626 -0.5216032978744952 -0.88364444778022
P 8.875900254532874 2.779809555340786 4.9037743577318595 1.2951585076050922 -0.16618993769793314 0.15643440097306607
P 6.900245948174363 0.9214284645982131 2.07084585152624 -0.14419466437376458 -0.6290263019458651 -0.7564100654098779
P 7.0681958428861105 4.667140860798342 7.523431067606926 -0.5433154927406062 2.716349663962941 1.2434433386189876
Ni 3.965986169128467 1.199887936077994 7.093802887541986 0.06848056136990141 -0.8882058418986575 0.5812343792735667
