# total energy = -340894.353022097 ev
CRYSTAL
PRIMVEC
9.03730930284138 0.00000000000000 0.00000000000000

0.00000000000000 9.03730930284138 0.00000000000000

0.00000000000000 0.00000000000000 13.22701566993741

PRIMCOORD
 96 1
Ni 6.475259011983892 1.978176567485627 11.286797334405465 -0.034049890495857486 0.42177687520346074 0.9128737769589825
Ni 4.934976214889551 0.2801195261004511 5.886061710547327 -1.6359949984087439 -0.024821687029370154 0.8526837377326476
Ni 2.839712271971772 1.629038208804681 4.735178483738612 -0.23443730001110594 -0.27611128271112445 0.6895115038151157
Ni 3.6217015826207914 4.244932486028639 5.201246064944172 0.6492853093052172 0.8976327916395123 -1.0130619538448102
Ni 5.204550105115366 4.677729214142699 2.7309690439413266 -1.067821051863561 -1.1712074239717118 -0.13054364924923323
Ni 7.189332945481582 6.097165115259984 2.614398602584098 1.4314233756088188 -0.541863333675112 -0.1356511456791277
Ni 5.086812043435058 4.4374813916289355 11.475573163497353 0.39787435755425027 1.1136895322609013 -0.059338232749001026
Ni 5.656758972966094 7.8669232625375 12.507491965794165 -0.7530195516710902 -0.19102036647805168 -0.1506447908744825
Ni 1.7382179388599321 6.81812547821733 0.43980335378344504 0.555265980234263 -1.6988903523813836 -0.6290044475689942
Ni 2.8294097397092948 1.4438998965861671 0.3480936457602946 -0.7756167202453158 0.8244499396979349 -0.1865574456106916
Ni 0.5758157579970475 8.947143770258226 4.6031334581769645 0.5113571946664549 0.33105292905432665 0.8688351506815294
Ni 8.772741781134291 2.2993625294228517 1.2369364831274052 -0.09548228676972588 -0.44058423771795086 0.16082018874558754
Ni 6.992229236144191 0.6596051684106935 4.878930439381676 0.8200803498753296 -0.3533474787864689 -0.9394304444015885
Ni 0.76701991201782 7.48225020486001 2.4713886100101137 -0.038437735150907995 -0.3509365553521311 0.8074312936527515
Ni 7.593680224856802 3.8153349653013477 3.9474043915973023 0.018676493363580737 -0.06966815392009937 -0.26862808696020185
Ni 7.444365805522902 4.18467170960215 12.793341145801993 0.7015599503392176 -1.2080667588919065 -0.45883829883213234
Ni 7.811154028685091 8.864072825910252 7.110962305545638 -0.323039828941863 -0.3628101668612655 -0.4585778460818941
Ni 6.708304099222925 0.773603591625903 0.3355335937090747 1.351133223198499 -0.2952546884087947 -0.128707624481759
Ni 2.0323010110996407 6.302800044295427 9.191903017425874 -0.5679926837723122 1.7814826705623188 0.24818807393829517
Ni 0.12175424180087424 4.652741054751691 1.3312326689869776 0.11058417540817084 0.8724637485730523 0.6612072575537838
Ni 6.4384771643450485 1.8681744423111786 7.026336040318392 -0.014726507576897217 0.48145783600386116 0.5778091556421016
Ni 3.581973572247239 4.35798018433682 0.4492247484182103 -0.4927496068675965 0.6927135556921812 -0.37162082317435996
Ni 5.965563821570343 5.681042222254933 4.765945098505609 0.4772502256804168 -1.3800172532227006 1.4851769151811907
Ni 5.419755544384111 2.8652968937569234 9.180844966130817 -0.5575948854777558 -0.24169783822826119 0.5056501169793485
P 0.26815503271247443 5.5180724290187495 12.520692763053638 0.34924245547915983 -0.5445779043927975 -0.6449689413180505
P 3.9806363842600927 6.269904239527517 12.373568083690964 0.08123297593956333 -0.29938490852708444 1.616982461861983
P 2.4374074244310426 8.657823359862661 1.4394435995171957 0.19517218386289611 -1.1348173153784522 -0.17608688509667095
P 6.284228374295962 7.605853480082729 5.800919414976056 -0.17375875118412654 0.7026038182226997 0.9461068279804997
P 4.720394349941958 1.057591085979284 12.395869451115626 0.3032945279941357 -0.25527583402301196 1.0466001948115717
P 4.038258266457947 6.074870073951624 8.156875380832316 -0.008431418596804834 1.714523173822634 0.6611134122883968
P 4.661579542955817 0.8825628113415008 3.674465007499078 0.6482049317568449 0.2715948828980097 0.39205363710741514
P 0.16730589409542654 5.583990560880599 3.5478026031791234 0.334702609991772 0.5883247104614449 -0.03633020188960195
Ni 1.4792086628576566 1.0948338363772387 2.6994351616400443 0.7505348375760236 0.6615566704734026 -1.0067709786297758
Ni 2.0340000251920487 6.389522061480278 4.819355594708451 -1.4656105630134888 -0.2903153421256484 0.246728201563317
Ni 6.0608260957622475 5.72574075257968 9.241530496080408 -0.5687809840015624 -0.9828813164963717 0.8995156104845217
Ni 8.807445047702636 2.5317117438687173 10.253833819188003 -0.5304075264296866 -0.16749605810386636 -0.054806406316918514
Ni 2.3105687925855465 5.229836495703447 7.1403127739919965 0.07131983059090943 -0.06134446454575242 -1.7517604609075377
Ni 0.3427046984022989 -0.03086512143512112 8.996261544685034 -0.038496099192669185 0.6196330336564231 0.5118030239546217
Ni 1.3838831275027368 1.0723128623438236 11.356040292249213 0.033646484409851726 0.7017844076451978 -0.002164354641170466
Ni 4.1537008516517036 6.835097544523411 1.6662466174284274 -0.7229394444562581 0.822812404094512 -0.4412193001987886
Ni 5.632737805638319 7.8296262882855325 8.150433586975566 -0.9810175238147556 0.5781290008753657 -1.2835486912803056
Ni 5.309319628377557 2.594873496484904 4.975143438480609 -0.03214238906049949 0.39149082262540963 -0.6625185201660395
Ni 0.6254956530437923 7.4501767952112985 6.858842170195721 0.7572107069343024 -0.6190283101928887 -0.10407774174822074
Ni 5.091077653284083 4.4432833440083295 7.422326520059303 0.48596677961780826 -0.8969738178992746 -1.5550265889844768
Ni 7.985881360933102 7.188609960761408 9.186017018072759 0.47250885434068945 -0.23771982741711967 -0.18371097730083197
Ni 4.354103178774888 0.539080904365015 10.324294102554344 0.16703454508641555 -0.578759692480829 0.0574304742033269
Ni 8.073416735928149 7.188356916109348 4.862740100304283 0.9385318438467191 -0.3274577555039006 -0.8912952794572586
Ni 7.25100354211241 6.023565270746288 7.034629578789685 0.2269818721743252 -0.47307244015364336 0.20172849692417516
Ni 2.2102004388074143 5.44421050254399 2.4606477682610306 0.8812633491425531 -0.186828182773575 0.0013418587398751085
Ni 2.3672959811921856 5.297164447769635 11.284959145754422 -0.11511625895056948 0.21680184631752986 2.011733186185587
Ni 1.270211854873406 3.5591995535617635 3.58293423819417 -0.8759758754913688 -0.8989592237604196 0.0319806666716546
Ni 3.7814812057792087 2.6007658219543206 2.508873560289326 0.02537601687094339 0.2684100574121248 0.563273938140404
Ni 1.131281303583002 3.332354060298221 8.100052396750252 -1.0245321592679388 0.2889385163827798 -0.08284197229789603
Ni 3.2588626634925513 2.7692483736818296 7.199279407769374 1.250352407033995 -0.4821666891454277 -0.5008629800033503
Ni 4.1120930810057 6.932402250549806 5.927568263332507 0.38078166373802164 0.023044026303657088 1.2166948668805497
Ni 0.7224985129495154 7.286438830709931 11.371304307153885 0.2613369526154274 0.10020951704206613 -0.8720186906158338
P 0.3360053412389881 5.579074264783417 8.006550590351972 -1.327713815833294 0.1507185815352114 -0.3122625358207009
P 8.648316110792376 1.7457098680227334 7.8934061928374675 -1.181306974299559 -0.4273212020604576 0.8739591021716561
P 1.81432111796723 3.4286014011713632 10.293475071395134 -1.1189983460683246 -1.9131560625406212 0.8322779203827859
P 3.9801122203379666 6.1005541061357995 3.8837690839894017 -0.6848400664813754 -0.7531535061457932 -1.1537190373789614
P 6.9653161299357205 4.01069447400132 10.50690558317585 0.4601662736149365 0.4185180019465308 -0.7353699569101271
P 6.188487122726942 7.831325302377941 10.283078551119035 0.6335745834381799 0.1816219559822872 0.4411437097658467
P 2.499620259602001 8.473796636651414 5.787903882551126 -0.8140966214880689 -0.19456231819303912 -0.22629075964457157
P 6.981529062285618 4.012791129689824 1.7087716749381519 -0.15577594145346074 -0.9322892053711169 -0.19207143345038533
Ni 5.320760861574309 2.731083817765654 0.5469397482733046 0.18975049862669255 0.7827289058100648 -0.28175228304698574
Ni 1.4968766019569046 0.8859274014830099 6.977699954461398 -0.6921903361988595 0.8782749559381907 -1.0044050495007606
Ni 6.715308013699609 0.7720780938663362 9.237430268986122 0.6722064368777648 -0.5396131041883546 -0.10594281998141754
Ni 2.426897034061516 1.4875229871396556 9.078163061248127 0.35163152453662666 0.7251372234385254 0.884979878762192
Ni 6.485308499594309 1.7877785414278482 2.6348608776268185 0.0029431417887239636 0.9998421127204263 0.0736461647312409
Ni 4.0558719817031825 7.066479766906044 10.345576061523559 0.3897203609885482 0.08937128877598156 -0.38542379049572334
Ni 8.006251455424 6.932284765532779 0.342771574488915 0.41844292573422126 0.8157022754122919 0.42256980341840134
Ni 7.647524511891748 3.775037604460659 8.346484449814204 0.10107032238046465 0.31124077942440587 -0.516722058522794
Ni 2.9080433653372015 8.368277016742043 12.330077841579808 1.334796176601372 0.08544521424869801 -0.7770012592976683
Ni 0.19240430865626112 5.0645350767447015 10.157553944002451 -1.1430978102196894 -0.5724023828042335 0.38875439753085306
Ni 8.770473416574747 2.2489524198087314 5.7101550094745335 0.29248201075966407 0.7015612358907982 -0.14017294480888118
Ni 3.6188457929761046 2.7577529166310657 11.55841365646577 -0.9449991967386178 -0.6437150143062914 -0.5689524765824201
Ni 1.281869983486209 3.3339536639916063 12.561802577973623 -0.8906954410897305 0.1477870097107132 -0.13942295401673407
Ni 3.004118997339302 8.29331253856902 8.008931017543144 0.8692077035295998 -0.5838787588749493 -0.16625292972538463
Ni 5.595467943313358 7.632495467021135 3.4807548076920023 -0.26599424888178064 2.074708244356227 1.073477221708074
Ni 3.102616628153984 8.20863295321866 3.671581202196484 0.2511564125379997 0.8856049139407005 -0.8074912003564093
Ni 3.4130120431426145 4.2795273048889575 9.366367363981922 1.8215849378998437 -0.04964260272779192 -1.084652521598603
Ni 7.267370108715345 6.141438892061629 11.440852726041905 -0.1525821171065114 -0.008504180816269224 -0.6677733408070756
Ni 0.5319152220571921 -0.09133104477595937 0.04071398078568915 -0.2936546909115265 0.24111034115590735 1.3928041205747237
Ni 4.675641595763198 0.43262050058851803 1.496914558654714 -0.2822901578283267 -1.3505403268095064 0.44692714921684323
Ni 5.680861476074889 5.527010327621898 0.4557008840491674 0.8219040333476297 0.529550834856346 -0.4288967740776936
Ni 7.988791374431801 8.80263719931348 11.352376567179732 -0.8435434659942762 0.0614539935404232 -0.3768018531546672
Ni 0.11179874220408056 4.941925905512222 5.703501742587132 -0.3900042107775541 -0.23310392591166304 0.3743209957143424
Ni 7.98545660741 -0.19245130266307242 2.655376472792651 -0.3696307893275247 0.1280411945423537 -0.3026504666522336
P 8.654705488256912 1.7589495257109167 3.461536066367982 -1.3473279905197957 -0.30532389971933865 1.0730990124330486
P 2.0166664665258813 3.2581216041543732 1.4333587793660327 -0.8997768345657084 0.18084625415852723 0.4469685439777399
P 4.475049485150968 1.0053644772557269 8.167682194937115 0.9097000072166914 0.8707454803303648 -0.9513513642088908
P 8.408330370239675 1.6557344195971 12.404546171488612 0.648089232114587 0.1723806398896773 -0.5013478900595688
P 6.416570727323782 7.853159440927191 1.5139381376221068 -0.7374407233962267 0.18644637395412406 -1.187776898294619
P 1.7348922091471324 3.4628347276715936 5.717523127504005 0.2507244672069037 -0.9813638514105808 1.0722474630660306
P 6.770300038977831 3.850300313830755 6.121648089077771 0.7519504869766276 0.9210308588484782 -0.6674401258373731
P 2.1470838727362387 8.573948095013495 10.063893984696634 0.8538448479202844 -1.3745186920019747 0.8901076869070607
