# total energy = -340896.18093374674 ev
CRYSTAL
PRIMVEC
9.04022192234598 0.00000000000000 0.00000000000000
0.00000000000000 9.04022192234598 0.00000000000000
0.00000000000000 0.00000000000000 13.23127858299522
PRIMCOORD
 96 1
Ni 6.395767307149132 2.0031143375047042 11.355453745084828 -0.02757713828732025 -0.2696678410786259 0.5917905575228583
Ni 4.716817254520381 0.3025346494251682 5.941506089727548 -1.1800638459210775 -0.42265747803620113 0.2125415283792791
Ni 2.905635872902824 1.6812372288257964 4.750822954057147 -0.9557662054471346 -0.3971490493524515 0.15607907451617636
Ni 3.4965047908428155 4.195286840261535 4.837289062571971 -0.4517024591182995 0.8925870016854885 -0.23759255781063596
Ni 5.07189005883386 4.884043283346175 2.4159921301151837 -0.2638941718196423 0.08724704334412717 -0.1591613129859259
Ni 7.290921061517249 6.260453262416486 2.521630741707839 -0.12852636170888831 -1.4147153188255184 0.7433051525968037
Ni 5.179116133431263 4.643103283331845 11.550006557343137 1.0040808333921223 0.8125606444595167 -0.48893049023182256
Ni 5.70058326613525 8.009627760494409 12.381910397629749 -0.5223887698902681 0.2693724213253942 0.48252792913958825
Ni 1.7854529094563385 6.496846030703096 0.26135643765624744 1.2718339739465385 1.305373500464881 0.48763414001790206
Ni 2.6101923737107056 1.8273904998835664 0.3420440361902377 1.164261074560866 -1.6090506086094158 0.3327719686279623
Ni 0.5425778594049266 8.927137984171974 4.611868411875688 0.32736879533452007 0.17280795723508305 0.2597955762702364
Ni 8.673460311186753 2.7026196046932407 1.4641200221492177 0.07511297908475452 -0.9970444953706312 0.39377730466674116
Ni 6.850806887695483 0.5576162689060462 4.869427956240398 0.401346889483883 0.48072404316163014 -0.6791211617197273
Ni 0.7343065062721009 7.1977073312100375 2.577016566564803 0.28784091244322685 1.256132761161198 -0.10222474769988202
Ni 7.675022019066733 3.6632788085624757 3.9604661666020635 -0.44288923170204364 0.40769700007162685 -0.6202740096745317
Ni 7.47080340131483 3.7935574495727753 12.651007977489668 1.3712251088523675 0.6099047506250657 -0.1848016392618495
Ni 7.8472653711706295 8.616868520698619 7.07369266010856 -0.7269061424134899 0.3580628819842672 -0.6881465051467891
Ni 6.869565348600096 0.9118691250729968 0.3846903800318857 -0.6448812667002507 -0.6604739789321851 0.04173363229336038
Ni 1.8804385232995986 6.542056181538743 9.196585420628043 0.07068888187512988 -0.17603623436439358 0.14125435079851803
Ni 0.20287704878889404 5.074819090801617 1.4648613203632794 -0.7377227734130197 -1.0335446471791943 -0.006578167438149962
Ni 6.28446409237439 1.8234670434823124 7.017235568930056 0.6499633092088484 0.38920845434913615 0.08653613332003161
Ni 3.3670307296014363 4.366318802600989 0.24805194275826264 -0.06638202696965988 1.0349530974909467 0.4492768803959424
Ni 5.877934343738475 5.386227622262432 4.733887001932472 -0.006753773784065787 0.2890555015766183 0.25310273763109314
Ni 5.506552978715635 2.782517087813706 9.25865377767811 -0.6554140479107745 -0.17469488984515075 -0.5228392271641253
P 0.2184922244614422 5.552332663545012 12.443620761883755 -0.5658671527888771 -0.3265694393616763 -0.8495768166725498
P 3.9504776251786873 6.276481576240042 12.343526518518955 0.009683031615718807 0.17467509235080886 1.092734527275789
P 2.1825446661961507 8.60921145256069 1.3597786824311702 0.7513694176621769 -0.31101092280178694 -0.27755058626081236
P 6.217738212886705 7.665773871835206 5.853372060231084 -0.3077942156367022 -0.40934224898453364 1.7191264769226007
P 4.715171934094048 1.2498559095745645 12.658880202914117 -0.06394307851086407 -0.1921177133072885 -0.5226425377722871
P 3.9156908504505186 6.173287440709365 8.177684585733282 0.08246350591255476 -0.7521739158413432 -0.828657292911063
P 4.656383369630099 1.1183477983555765 3.63029284608115 0.7573276921281409 -1.4672372999836343 0.3164812018877388
P -0.009174017410120921 5.544549032297363 3.794148680099601 0.1894748763678027 -0.6948956509451645 -0.2418870714209318
Ni 1.5380943517348873 1.291938143555756 2.654512062667266 -0.09921038635359043 -0.08938722961558154 -0.38922748051252964
Ni 1.6908289044979865 6.342990490396781 4.917192873847922 0.9474324887704587 0.5336471164129067 -0.6447881927658121
Ni 5.920929640154059 5.323190153400811 9.037624866889036 0.09722780870592289 0.5559838322368941 0.9998261718808265
Ni 8.485694897698172 2.2908826881146465 10.015906175742062 0.782365351823059 -0.3628659597998654 0.7132003627916234
Ni 2.323427487756384 5.089825859525306 6.980637133688497 0.402754568464687 0.5235755911095177 0.7185369445131883
Ni 0.3919207496856251 -0.1339995964360055 9.172279879428938 0.8988455810006908 0.7007881051701995 -0.10179048837594082
Ni 1.4263120051876412 1.1105370464415594 11.427180675450794 -0.37378003560920786 0.8324324436827791 0.06204097639214477
Ni 4.030293746300049 6.979494449612187 1.3164660742190788 -0.08474973084357018 0.3556640427347875 0.3582559718316798
Ni 5.782288793680256 7.6747869732915435 8.107373354151731 -1.487339212939832 0.21580657228379607 -0.3070054011868197
Ni 5.39029572221765 2.7286916052951216 4.834841874443354 0.08205521473054256 0.4756975364813163 0.13778953217836915
Ni 0.6336788898020607 7.331809986178242 6.981087336750208 1.15623948980797 -0.15625699485493735 -0.12546006407873878
Ni 5.005977799337219 4.494563393633681 6.994596140668166 -0.6416594173288434 0.2796750888029828 -0.31275155964197754
Ni 8.047036199638162 7.091629364822219 9.196890076113577 0.4193626093350133 -1.0803011866084427 -0.5279145848045037
Ni 4.628440043048817 0.3682398878351996 10.547445923935165 0.05024835463259088 0.27392353103118633 -1.068760790069011
Ni 8.052668258020608 7.070737411496648 5.035930767296377 0.9257357205233153 -0.06316352003236218 -0.9950547186341121
Ni 7.194000840139728 5.870141672268702 6.998036849208067 0.42072915066523675 0.3290688087447623 0.06117708572995271
Ni 2.3162133905024653 5.408719694903723 2.504984980713303 1.239443473430975 -0.6628620195483874 0.6002944812288112
Ni 2.190590463885358 5.414415034841026 11.288133018981469 0.6756229187584817 -1.0040808333921223 0.18119155331308792
Ni 1.1027172543054198 3.4269131609422336 3.826512675298884 0.16064638217188462 0.4867460809859939 0.2621188250867744
Ni 3.8503842858360984 2.8318405397151842 2.6480953130045704 -0.5972253553851844 0.3326099891288014 -0.6468975257993311
Ni 1.0990107632351107 3.1976802485768054 8.231231629410487 -0.252078667241953 0.3515495063457817 -0.055264834010575796
Ni 3.7184603243994663 2.5098097472601903 6.948922226437624 0.4524267388788338 -0.00913410109078427 0.532622017582502
Ni 4.011779371392749 6.921835912913576 5.956033726678733 0.4627211788263063 -0.40564500263860453 0.1426550878007866
Ni 0.813726665664488 7.547256559806545 11.332775443867812 -0.2003961512659968 -0.2613498081312337 0.31699773651284113
P 0.3393599942420066 5.525817692059118 8.05143155563422 -1.1012788173013743 -1.189476397484229 0.0545724359292415
P 8.51510274026333 1.4186187761612195 7.916604778873989 0.6709108579947929 1.2611980914992473 0.4896599121986793
P 1.9495781420940457 3.2798558676721927 10.38681835323673 -1.2371770459943017 -0.1160408276473679 0.045949727257237
P 3.912336928042995 6.230918856741609 3.792362332208154 -0.09064861282650839 -0.5054261738940005 -0.1447443662296475
P 6.977812968297364 3.964254923693689 10.388379599597322 0.1837235757063223 0.29915762300762677 0.25431835520574914
P 6.379784194436191 7.740880037230639 10.3146150031649 -0.9925376086392133 0.43671369901895113 -0.6296611073163866
P 2.3267271688311713 8.36513449546978 5.840392109307305 -0.05703272454427597 0.2293218331614115 -0.47208410809844503
P 6.939825954937759 4.0518727565069454 1.6541482032351111 0.21416800823910856 0.6216068695533423 0.07524976177293492
Ni 5.3633106591813755 3.121688141413348 0.43076929621352483 -0.2703584393877473 -0.5082050221907183 0.22834635662201966
Ni 1.6242386283421422 1.030232753325572 6.950430135487691 -1.0284350938667708 0.4881324198105594 -0.020849846865815706
Ni 6.927947103068524 0.5722731810335876 9.137905338829565 -1.248097035340915 0.1453920271159754 0.7052438269487079
Ni 2.7868383139883592 1.6022618483618467 9.140312749980842 0.13578535726414678 -0.366224334749137 0.6010624697430874
Ni 6.440136717327368 1.8334474487057786 2.4924154558738936 0.34139519152059916 0.6984692272290358 0.9477901292201936
Ni 4.340391445553071 6.872259334792662 10.164466857951107 -0.5515232253623792 0.4236494096358252 1.062862422306705
Ni 8.338782247982095 7.15586918322616 0.4227325387464402 -0.6662749018846784 0.1666249683528227 -0.2813758735441735
Ni 7.66100967477654 3.73451575888939 8.164638641188006 0.6502466447772219 -0.2114161565255843 -0.05841546382441553
Ni 3.284674306063595 8.474349418934178 12.351279413011387 -1.1715110712550596 -0.21806014420466316 0.7325893088411964
Ni 0.049648899897895254 4.75107065614331 10.21075008315272 0.16690907525214482 0.08649808099324457 -0.0466197567410681
Ni 8.439535523539641 2.062300671742053 5.833591150204394 0.9130681523579759 0.9094680937115432 0.1428234950578508
Ni 3.7745458624487274 2.9336967223717 11.4938270009838 -0.8777324531711593 -1.4901399156134205 -0.154960644641017
Ni 1.1605204345579947 3.4325271388804333 12.723925505109193 -1.2258256255372244 0.6136552188064335 -1.1119044153360207
Ni 2.973094010382448 8.329018808089574 8.066383179002964 1.4015767245610313 0.03189710581891281 -0.6018818803205892
Ni 5.74306326988984 7.752496722658314 3.8187190998069003 -1.9825362529066564 -0.05518281581973077 -1.3428956657800548
Ni 3.0375869550058243 8.473147069391857 3.626230170259206 0.35869588758257576 -0.7239475740057983 -0.25750138091942104
Ni 3.5595784205929277 4.1512157574133495 9.19362203581622 -0.2259089508251206 0.7200184141547212 -0.17178645794910416
Ni 7.3328134508338625 6.2256755279104405 11.491775774584157 0.6175265288363817 -0.9896430607002376 -0.4951700433836311
Ni 0.1975053488035828 9.263967620241836 0.6050268098063597 1.241249159181146 0.40137080074328296 0.05575565760406526
Ni 4.555774737626516 0.44265447623824494 1.4723502403697282 -0.5508843062267996 -0.4365537764023191 0.24928644920879647
Ni 6.166299349008515 5.925232785884465 0.27198593082812383 -0.8802585620271227 -0.8598524875669449 1.1344578751565044
Ni 7.842600616555314 8.881059972012547 11.39718521844766 0.8209565818326958 0.4779727056687381 0.4722748839530125
Ni 0.16176754270810584 4.617103604506945 5.898305580269778 -0.8244139442536769 -0.14804026337209988 0.399737378904918
Ni 7.865734544967316 8.638203444908203 2.7816383782233793 -0.03939572818880312 1.1223011851893123 -0.578867421703287
P 8.576377365811025 1.6378170419704448 3.613449104222126 -0.36876432756217137 -0.6560884482699798 -0.35751369434901653
P 1.8823369699453667 3.375501417730411 1.688073444794986 -0.17144835788339507 0.22659517825886782 -0.12960673925726066
P 4.7230911686735375 0.9245525567111518 8.225766815137312 0.03882648594889442 -0.3204093332975514 0.21946036698629948
P 8.52058111486969 1.7343846946851784 12.447630100395175 0.14713214973553368 0.5882439778221804 -0.40719126407980194
P 6.1629092657125 7.896742506848193 1.5290197767681162 0.7540042841818627 -0.07902954053034132 -0.9729956819515436
P 1.8530195296014347 3.1561856290335903 6.084707728262253 -0.3286695164238146 -0.45667240152906513 -0.9992661856122983
P 6.8630473484496255 3.822278235256609 6.114346096491542 0.5318424591040002 0.2315332389904335 -0.8575742330557296
P 2.343632384200629 8.62141575242634 10.141417907627059 0.599708269708038 -0.23351324553493977 0.9591500343177028
