# total energy = -340860.7281432218 ev
CRYSTAL
PRIMVEC
9.37276107066104 0.00000000000000 0.00000000000000

0.00000000000000 9.37276107066104 0.00000000000000

0.00000000000000 0.00000000000000 13.71798324012379

PRIMCOORD
 96 1
Ni 6.857880356452364 0.6405691512395731 9.136135128628737 -0.8968964276941199 -0.36993186550771123 0.6201577958116417
Ni 2.5083757322377855 1.806168494249956 5.528402040226258 0.6346109951224942 0.4996910711824362 0.30796005179060515
Ni 5.374790926450145 6.305871610038947 11.173653351878976 -0.2104555923845279 -0.12129359140587496 0.9093948172714467
Ni 1.0721032423550172 -0.07093773999881058 11.999750679194715 -0.26552887920958784 -0.010932073531471496 0.2834888061221182
Ni 4.860507542195044 5.777032328285245 8.83845530883139 1.4000456326284856 1.237155705838063 0.02663971407471541
Ni 3.8430756134970343 4.12356485273921 7.677008098848618 2.9135023685909758 -0.19687656814851254 0.6687974111962159
Ni 8.76129124384332 5.963578386182626 7.316253348074724 1.40979602714703 0.38250841662114127 -0.7938869793094134
Ni 3.8009450537699214 6.8980707546970494 6.473173515493234 -0.22072637818291663 -1.0380515339106122 0.43150258713165685
Ni 7.0476600168204575 6.731441813467103 13.150525126471978 -0.6755041337924302 0.10246231763198482 -0.7270156714081608
Ni 4.081659239270929 2.3048087407554356 9.026473827448044 1.2242641945873753 -1.6253735141391557 1.751868704350628
Ni 7.962366487318432 6.098658614611359 10.857069610855019 -1.6602708402369728 0.19866322773529013 -0.2791541833025063
Ni 5.4988581609568845 4.898204786071005 3.25452247278417 -1.2596793408618758 0.6780096738231032 0.9701700395772905
Ni 2.102863236888834 4.916453551318767 6.944866137466694 -3.4208239597354764 1.3969705932475878 -1.9731946637907567
Ni 9.41034555542126 1.0787204114689974 0.10915236027008632 0.6661445469544011 1.2650786575005761 1.2406940580086245
Ni 2.1212713390699354 2.670871285961691 8.049561280898262 -1.6141537341639363 0.1912851901036641 -0.05917368214667874
Ni 6.372333856763075 8.610221085515933 11.668063671442333 -0.6848315818409431 1.1482279323574032 1.176762035241354
Ni 0.9841305096300602 9.104756062797724 2.5948385132003313 -0.3064716401705367 -0.943244161720724 -0.631351607644932
Ni 1.5709309440761903 2.054668500934037 2.1841363202049053 -0.5151698835443257 -0.08812816039749984 0.8030532191897137
Ni 1.7561273244205777 5.189491445737127 12.753457488590017 -0.3272785496135589 0.4725443355643152 1.523405105424454
Ni 2.464164419616475 5.93218901031475 9.180005272757485 -0.10445646524387815 -0.50610494512858 0.41176268550056827
Ni 8.712224841135548 5.051149496555328 13.545836308982889 0.1264206282197952 -0.34218323463953326 -0.2130979151033814
Ni 6.33819826198529 6.7542738587385704 1.573617177317078 -1.1597827270745382 0.12001909556882555 0.8005649055502213
Ni 8.291819028899749 8.177180791742392 4.727916719030722 1.4831390588155555 -2.8200823636669172 -0.20283767082795387
Ni 3.736104294661542 8.334268262493541 11.422840381928573 0.3709466799254708 -1.9589404678645874 -1.5772877143755224
P 1.7818742982960794 7.115931206376029 11.322013845063514 1.1694709008965793 0.09677915120427849 -0.41741834112444887
P 7.707671085755681 5.302667532212073 2.3279004115006385 0.510825747643017 2.5746006329161917 -0.43633754662645496
P 0.7761095822228328 7.8860347234880415 7.204575028773168 -0.6792481742158947 -1.0667972385847369 -0.6877896360280025
P 3.7991923475031872 3.234736574767722 1.0018562748260371 0.8451655749787315 0.024498756472312644 -0.39674847147992315
P 7.275230648672359 5.564626823382946 5.211406835003852 1.334166256326857 -0.07440978237014281 -0.336900131863723
P 3.3288390930458562 6.027341277800769 3.602726159591307 0.1710398095910667 0.9922643003731684 2.936204438174182
P 2.4507613716943903 3.892273234855792 10.406063609209415 1.4602205023461692 1.2267190838857713 -0.21001670507489636
P 5.821843497596775 8.053685295643518 9.730013872019455 -1.2059401994672068 -0.6799071479561324 -0.9896451175827666
Ni 8.325101702446128 8.546542548744853 10.436572882839608 -0.4479692173281124 2.0165511763995205 0.5148137857564876
Ni 5.474910757152041 2.405275363606364 13.229800874464834 -0.8066239672601077 -1.3295105027224006 -1.0089389328153722
Ni 8.156691936667093 9.173908291867056 7.300710498865498 0.6408199521466834 -0.13505310708381255 -1.1390910030531416
Ni 2.4962380070216317 7.345873146706453 13.946250022464977 0.18595272214715716 -1.2245297895439364 -1.2960869329566322
Ni 6.648502253283516 0.44411514791671275 0.6413236584827396 -0.5586894040935152 -0.18360170541647736 0.2502899507726464
Ni 2.1629332607578142 2.2494063517572234 13.576756109535454 0.1750083073205115 0.3357009693492992 -0.8783747147408486
Ni 8.501628279064692 3.582062971165413 9.770866924451616 -0.8752865627338281 1.496936883930596 1.6233917078224367
Ni 7.627084088529048 2.6964495501430683 0.5892514113913222 0.6711605121117538 -0.08212643428811017 -2.4789669081702663
Ni 0.3184723523220698 7.180368936770667 9.594522179392273 1.9358833289348079 -0.4499903615231992 -2.278220315543386
Ni 3.6967668176482618 8.000729197210106 8.771703443799016 0.7257262631727759 -1.3860904559999743 0.06497023422379779
Ni 2.2260588046425984 9.143437446556078 10.048792713619182 -0.24166364255621603 0.9008564407831323 -1.6577017939582162
Ni 4.508363546754031 -0.14186048358036568 13.15068914978571 0.1880312019427407 1.3312681088434555 2.1262354657012414
Ni 0.14390936908789556 7.450257583565376 1.0135722258068807 0.0345841657327727 -0.4326390147289452 -0.3341680776445406
Ni 8.544864824564396 1.995910663574911 8.330725358916935 0.6358579801557178 -1.0658521010626483 -0.9964243452881293
Ni 9.334041909873223 7.253438979847991 12.483968121404738 -0.11672808352237961 -0.9006918901808102 -1.0338135845698646
Ni 0.17218886292741611 6.586510813453677 3.1524887243300443 -0.24218146273289906 -0.394320835875037 -0.14545296226089788
Ni 5.632354392813006 4.470178919317266 5.959420629498545 -2.2697994384695424 -1.5067248165552953 -1.2302767193300426
Ni 3.76757802537648 1.052973437593496 1.4244749958830987 -0.4363601723342743 -0.3465823921484934 -0.1535588791974839
Ni 1.9565075772361387 4.110902252919114 3.7367922553031367 -0.16209879834769503 1.1548544365349853 0.2046875795524991
Ni 3.6517213293171156 8.035492766960465 2.15165220587738 0.33891407696995823 0.492926498765093 1.4909392715862644
Ni 7.516316801575763 4.036473159528012 7.161240069285224 1.0957887407210807 -0.6414915242924113 0.7527434151915681
Ni 8.32648887104226 1.293890880802775 2.3178312545896627 1.0657004059761321 2.098471665324412 -0.09718075751807134
Ni 5.349446981288385 7.119905256948731 4.3662696814301265 -0.08924324783854953 0.29675235600024374 0.12147742528190693
Ni 7.389831394786578 7.288568087268952 8.506247175579379 -0.2720417406274412 0.5575802301897366 1.644789713882238
P 5.805525521070656 3.7217358523786355 8.556001538928747 0.789535130098621 -0.4275325467403153 0.32203015673042606
P 4.462718201732664 1.2094141878505018 11.123062000991537 0.4089267587136699 -0.3175582370020015 0.7425255941183019
P 0.463716402545703 0.7536890011498124 9.662864601929808 -2.411769584388163 0.650612255646757 0.8919691655958315
P 9.512789830797754 2.326722255470005 3.936059961413557 0.2927566045772893 0.8865963313196923 0.15941816619173835
P 3.3267677129124427 0.5547887072621518 7.713141966225697 -0.17057983923551268 0.9888097661656647 -0.19678220866249335
P 2.563571920498735 0.5437841488248653 3.731579125754701 1.4058666101856367 0.23824176135886063 -0.23045106166984827
P 3.480612208432094 3.719626981202084 5.607184781001841 -0.3768051955887769 0.38963551458422574 -1.0917873328711714
P 6.612510851870365 8.638658041736637 5.798001068712719 -1.6592418847518264 0.7785755457633237 0.22503940373597373
Ni 1.4087915552621022 2.24460749823547 11.208593129532087 -0.7561526979834332 -0.6039115091561083 -0.5780382409337722
Ni 9.639134646175169 2.3787785688680883 6.1983191800348045 -0.8366914760694494 1.4763598311101929 -0.13257019276095877
Ni 3.599402578617061 5.699210295490091 1.6532087873483785 -0.07044565551607222 -2.225355349223555 -2.192874860097346
Ni 7.943930266854977 8.581006190150102 2.356708529048415 -0.8823907778787772 -2.197715990239731 0.45732623306298015
Ni 2.5859447004917535 8.603313360817628 5.491349642292282 0.6004212366146626 -0.7779548814601892 0.7244471393500361
Ni 4.617340636397444 0.52412478307901 5.313344981297974 0.6088845368906675 0.2433916809909163 -1.3728330767694357
Ni 5.555957019657123 1.2282909280708365 3.0082850505535097 0.8921267742196184 0.2849337660987609 -0.8617167944691935
Ni 9.219300572347235 4.692107149176794 4.57280690080514 -1.5502625919369302 -0.7797667378579474 0.7091930414044431
Ni 6.1977568143877235 6.578712676480828 6.711454401093783 -0.20077718875449937 1.1485611473271058 0.26281379427126994
Ni 3.704714918793666 2.7834943795503424 3.182640895774343 1.1828113267592277 -0.23017569652127454 0.9201096325857895
Ni 0.632133666533366 5.207843311353519 10.793405133225116 0.6973148019096185 -1.5696145141009807 -0.3035691218117611
Ni 7.842770059705983 0.9550562056759994 4.557552732628081 -1.8338259600507254 1.9614447223436802 0.8176054059722758
Ni 0.6641978811777383 0.3141993106803366 5.109578350010912 -0.8064535031205143 -0.02171296619705938 -0.42961256919779556
Ni 6.736090702816301 4.339700716433809 11.934123545456501 0.23032096384988723 -0.12231251958869256 0.631709505204983
Ni 8.095881464696124 1.3954822349478642 11.574246085092053 0.3048292194711073 0.7176491425915963 0.1665969433283647
Ni 6.077747985300749 2.5748754700050527 10.532489030329577 0.13354232686624098 -0.12883489408824264 -0.20596413227207755
Ni 7.083079679825743 3.4367476879598162 2.6860223537701176 0.5930539976163142 -3.3947457745911858 0.6032723329102126
Ni 6.004021848968497 4.284251463631673 0.7148389076973356 -1.370282285323124 2.2365471041743157 -0.03698120521003954
Ni 6.078638397575293 2.0258003977172385 6.945030160780426 0.350564516724693 0.2649771204711759 0.002208577615544584
Ni 3.7497041705601046 4.054178304650263 12.52313313961958 0.9006088435487005 0.22284393874655167 -0.3272309842050752
Ni 9.285931528765486 3.866310687482243 1.9013948065461728 0.2670831110705852 -1.8078099956029383 1.2423801874617957
Ni 1.1944458888773761 0.5988659894042416 7.6278976441651585 -0.304110853247844 -1.1583981880221856 -0.5732274498086901
Ni 1.1028740160111041 6.5497133546130435 5.4153112458744515 0.7377734241452971 0.9421794679016355 0.16229214530542374
Ni 5.20365368728277 9.101991098366245 7.383306078728287 1.7493222837796905 -1.096961420872943 0.9816222472782901
P 8.170310558087227 8.990014725271738 13.090028641987296 -0.9109109968056571 -1.6451483827732376 -1.2348563682809248
P 9.355224349246589 3.1429397556426175 12.56457480142902 -0.7275782287798501 0.04932918525243117 0.6714145371040888
P 6.039872658969878 2.743060289525256 4.366557425186215 -0.7708236697320467 0.17728913293488824 2.3415769254231606
P 2.077256854425103 -0.010141327169018041 0.2252180688949487 0.48341933060560616 1.3957277219794222 1.2376390732323845
P 0.4283023631968881 4.1390299080339235 8.101100217901031 -1.1880376081551733 -0.20292534544575375 -0.280429193360188
P 5.748660981390035 8.57089298126344 2.7646532558209893 0.12519883999755213 -0.8185086345128355 -0.6715163527892758
P 4.704929085930228 6.116335641451254 13.500265008771722 0.8740133524483594 0.39276249024898163 -1.2110536094343722
P 1.2424531696164802 5.311206117286912 1.467741534217314 1.5114826429552548 2.7125593436825732 -1.338348926949637
