# total energy = -340893.7887069762 ev
CRYSTAL
PRIMVEC
9.01985641775668 0.00000000000000 0.00000000000000
0.00000000000000 9.01985641775668 0.00000000000000
0.00000000000000 0.00000000000000 13.20147160844254
PRIMCOORD
 96 1
Ni 6.5824385051092875 2.0843895514040005 11.490190975467003 -1.1597189637161383 -0.7902856351114002 -1.2383111595987448
Ni 4.564561373387977 0.5127833353906639 6.035501484184517 -0.16728959852001513 -1.732729412418016 0.16635963050657798
Ni 2.8084404688421016 1.4808799923384877 4.661505885933079 -0.8910934478590975 0.20079775757978965 -0.002180809701402696
Ni 3.5726297464087584 4.268078699809185 4.805361768633823 -1.2132069083319492 -0.9897862711463212 1.034698044057347
Ni 4.777520178474539 4.456124662047416 2.7682696372311946 0.9671150548010506 -0.3998199113163953 -0.9693567996473759
Ni 6.775932460497552 6.038297639609202 2.7471072505944267 0.8572369043209689 0.14545167670931727 -1.966147527135988
Ni 4.963987665876254 4.6791315869504295 11.322162780112661 0.6989513090717769 -0.8890537917212495 0.06077033720983728
Ni 5.490359414645271 7.791532190168306 12.40096013230942 -0.9308619860062871 0.26461202382227333 0.8431937959643414
Ni 1.8729731417291202 6.4108808400204955 0.44810916240329984 0.5000196581664486 0.611469009788392 1.1609852320230716
Ni 2.801657536973186 1.3051280941126657 0.3168567247829228 -0.5847452206403027 1.2961226712905745 1.6055847615480026
Ni 0.3538733126776598 -0.0688458564838712 4.7683713383220905 0.7850115311966545 0.3335872654404061 0.18847728834122376
Ni 8.489209048052272 2.2275256495792926 1.2983604959993051 0.19537735789516675 0.8307159752123048 -0.2535614224350665
Ni 6.812426798717807 0.4339110067452416 4.839276427978399 0.19897124589401216 0.673000650644286 -0.3296709611051355
Ni 0.4822844955923076 7.462226259846185 2.6375619989258205 0.9458941977490612 -0.4874135393666639 0.11080220495624789
Ni 7.420653742580452 3.9883368793536733 3.7789607611531935 0.5740995680009984 -0.5650256307241882 0.8705876145962619
Ni 7.748065503098753 3.8510366281453874 12.585688591434106 0.14994467948366433 0.5979671186472153 0.7158925649118058
Ni 7.918910599547061 8.807131919839058 7.094695080897365 -0.6674925763418634 -0.06528313747852627 -0.7430040764166171
Ni 7.11497983552503 0.2753220909132659 -0.10559004472110654 0.09360692412388395 0.4640157292680137 0.8708907476589776
Ni 2.21822617782816 6.434990915666254 9.28413258366433 -2.0734358054017066 0.5284791990587221 -0.1275943368129222
Ni -0.026801600738424792 4.961777801105131 1.6775768986664485 -0.3897594417565997 -0.9382582784703584 -0.41655599312415353
Ni 6.437597654110558 1.807010933275159 7.0058756548250285 -0.3814290675140334 0.8049956876280653 -0.01964039993874682
Ni 3.2285763511854713 4.272263913090005 0.49778511848689705 0.9311746321506995 -0.8334503434243323 -0.21959997788795727
Ni 5.860371956037093 5.605073945907062 4.908201659196907 0.1424550559748385 0.1864252909082015 0.0033899995181554524
Ni 5.369105487632197 2.976814124689236 9.369031078242763 -0.28913880531904396 -0.566298583899341 -0.46859897776332204
P 0.37360695409097533 5.473194628280182 12.53495550820285 -1.6721845609554233 -0.7734585362517323 -0.3698742727968985
P 3.856899534681019 6.133177507068141 12.795539154071161 0.71619312687136 -0.10064043393189763 -0.9831543676521004
P 2.3379377094295513 8.354064542477857 1.4835552816899775 0.634850621937126 0.14301967022905693 0.2148262106483978
P 6.1716832732229285 7.721502026564237 6.019395628938326 -0.005735874042512702 -0.36833315356202373 0.1586002982761333
P 4.680096711564757 1.1447730904350337 12.515127158299347 0.8939507148022346 -1.6720727179679074 -0.823696349361362
P 4.02603987830589 6.145255094531542 8.244384894951743 0.3825012175322896 0.6142234326050776 0.1358349795551596
P 4.836537097647828 0.961119798170422 3.855489731155605 -0.9295509805043476 -1.7908571697986833 -1.994614267117113
P -0.05325864296967862 5.678369297458667 3.78032095546946 1.408516389103658 -1.17951774360962 -0.3140777346525688
Ni 1.2910480985709412 0.9426922319361211 2.5149596034095527 0.30827809725165617 1.1182401277460612 0.6512072089182784
Ni 1.8123146087258535 6.632291250374575 4.997562276641764 -1.4442770916430352 -0.8344996106244531 -1.5948745742193502
Ni 6.143054249616628 5.56241002604008 9.153979666515792 -0.4546831390131782 0.8938003052672993 1.0106392033359304
Ni 8.625111221548217 2.3155504263196462 10.004920117126137 0.6224296225649538 1.1839593243207416 1.0643122673793541
Ni 2.3668012492972763 5.331600925516571 6.853900097565245 0.24400180377108943 -0.5185922789623133 0.7299742398158525
Ni 0.6606485441761586 -0.0017877355005572436 8.899164218692922 0.8303228535389441 0.18739768212379984 1.026722224940722
Ni 1.5593256817852403 1.1384140918079255 11.425292208060045 -0.305402575476074 0.42717027830489007 -1.0062014792795508
Ni 4.051674309650914 6.865337275237832 1.7381452331076286 0.14433941748174495 -0.1613025276986448 -1.0913042225871656
Ni 5.435085735798576 7.9066886943843215 8.21610764573758 1.4354330109888438 -0.29798571418671266 -0.33510010254050676
Ni 5.337409712914952 2.6892791484694385 4.816121555105139 0.20002051309413293 1.5354298977994718 0.9611138429122931
Ni 0.8050807956886359 7.533429004757379 7.074813513842228 0.20915487129523333 -0.6573297768762487 -0.053269400847101814
Ni 5.089345627464269 4.819255053152029 7.05035166380433 0.4214318331592162 -1.288312431217536 -0.29381152820436496
Ni 8.317507065264142 7.146594431536398 9.23989469888894 -1.0803184129996233 -0.04435332930439458 -0.22117914944961908
Ni 4.683948190165856 0.39879670652491184 10.156406798179411 -0.7598136917747882 -0.13932293810376006 1.3536930135058751
Ni 7.829686181930955 7.1523310600851095 4.649689874299729 -0.09734582234102589 1.156441321406131 0.7763633686033533
Ni 7.436528689507701 6.157413860700822 7.080226329553048 -0.47208925030476756 0.1464783182016187 -0.29742932746261036
Ni 2.285911178817976 5.093801436431349 2.64410951254769 -0.4524570778961369 0.22569426371115325 0.32049983612882865
Ni 2.2335689532390974 5.22931575611032 11.402730841725312 1.1800767014368838 -0.8323195722539988 0.766323467868848
Ni 0.7590416456283721 3.429637965932805 3.772373560164006 0.9435318681644718 -0.563991275922403 -0.403694306670137
Ni 3.734139291681099 2.313115065143307 2.42429200880006 -0.6773681835843625 0.32237159923024483 0.06260533353604703
Ni 1.2387870516979407 3.505621234634592 7.94158291011316 -1.0708942914722461 -0.12038624910025718 0.9050931045722993
Ni 3.7518091899938724 2.7881277526601895 6.830256348485475 -0.3698331351463179 0.20782046875452595 0.5195620990747503
Ni 4.046587110749227 6.86966680621799 5.831169269575922 0.42814215529985616 1.515749645761725 1.5586778125838188
Ni 0.8276484759227137 7.251269862837947 11.319759890418673 0.37468352126008375 0.5561388697575197 0.1662030503240557
P 0.390186351788121 5.63992667029734 7.977332208210579 -0.0529410709734056 -0.8320452355466896 0.15630224627057596
P 8.693644089021646 1.6783156248899385 8.00923994954873 -1.4820118871896477 0.3145155935209358 -1.0412296745282776
P 1.7922724882302017 3.2157771752253765 10.27300196946071 -1.433083794030377 0.8903871658206924 1.5868799860496479
P 3.8380570550611193 6.0876993920640565 3.8654702020504916 0.06482111024044321 1.1593618374870356 -1.1177734725222879
P 7.003304995805559 4.023018226475988 10.529625898453414 -0.19844108442215502 0.6757023658461654 -0.9550581236365165
P 6.323523532639582 7.827575535578128 10.40212572101584 0.5670521742359137 0.13099899161909698 -1.3403129926545434
P 2.32491303706424 8.537483318481042 5.930444512965343 0.8366683361409978 0.041930835905831014 -1.3651657900321648
P 6.768644416680951 4.065032716695946 1.7058153624989136 -0.03809012200350214 -0.3353523277606289 -1.6454813406326239
Ni 5.410641925473096 2.897863323294798 0.23510616002131574 -0.008307491424430853 0.9175634691251681 1.2687782178393503
Ni 1.530886075159322 1.2395356997632596 6.939881876874337 1.000618842985451 -0.10160125518327019 -0.21627117062504045
Ni 6.909381233104739 0.6743406859009109 9.13704218052716 -0.15895768161555204 0.22381787262404682 0.32880115690567246
Ni 2.6553735089810697 1.73779255672987 9.1071007678425 0.44013069512030006 -1.2907806902523706 -0.08290830675945722
Ni 6.334527757214152 2.1108177300953863 2.6767830396779555 0.29021969708804857 -0.1379975344241172 -0.6363292633651815
Ni 4.208971582073809 6.765198831609242 10.705271362375974 -0.34567659250477245 0.9277200979431959 -1.6067325019992005
Ni 8.377561267901427 7.081272632873253 0.4632895804024817 -1.2266738324701325 -0.2323037986078709 0.22159155439668932
Ni 7.446748186592116 3.791469497743369 8.197559213430083 1.1211642433713918 -0.22634706680380373 -0.4519238311004862
Ni 2.966513448898941 8.356761479484248 12.318834341529532 0.7124254322988117 -0.853134452116821 -0.09305465116483974
Ni 0.19980605076308752 5.087848331333631 10.166268206972344 -0.8154837316435827 -1.591053400701047 -0.44848060974689213
Ni 8.671446222892124 2.1568821357530346 5.824212254482179 -0.7725144271709083 0.7447920215549753 -0.767927064910542
Ni 3.607013438276186 2.7281547287287813 11.545914745138509 -0.37410887970353635 0.3828580866510761 -0.5869607402343827
Ni 1.0922414478757736 3.2929330252342903 12.683537795556935 0.11983963256816779 -0.190929092315826 -0.5356973140737161
Ni 3.172166170456485 8.307125210767968 8.102548558056117 -1.0582367506092356 0.9611202706701965 -0.7931611568869824
Ni 5.432957049733331 7.778633795789916 3.4827856646711166 0.2232848829387122 1.1924894732789397 0.8368375147290105
Ni 3.028732417026307 8.175841203650862 3.5864039688250093 -0.38557882801634885 0.9378445879717073 0.2275295171476791
Ni 3.3251699913240556 4.345369847661228 9.385361527908548 1.4308430776253165 -0.3165431654739258 -0.9420835657537194
Ni 7.402956784699052 6.306421885267954 11.532132404851671 0.05556282486696883 -0.7475171337956223 -0.6247567280362337
Ni 0.6758190403335109 -0.06308758028025999 0.3106672994525374 -0.5388857391040267 0.3846802274614794 -0.8498141294943364
Ni 5.000400825390631 0.4060531808447822 1.422194101888056 -0.3367983161785361 -0.29948106778531647 0.0384323358342693
Ni 5.9894280586706605 5.467665456424271 0.13414059557839134 -0.39143143014238396 0.6916761155666022 1.7926805961606673
Ni 8.31711019159096 8.922135086499528 10.92895658046588 -0.7474718823799836 -0.32535690711081383 0.34300213099640287
Ni -0.018974169520546005 4.678428038166153 5.865426683456428 0.2306150980515383 0.1462536037853223 -0.12290284487452384
Ni 7.807632633500771 0.030559272834954295 2.277636362732147 -0.4095849611229591 -0.7684531126173411 -0.04630531082444283
P 8.374864330895036 1.618234362684026 3.5444499116416495 0.20748596823324267 0.5474184591653863 1.1946476572725233
P 1.6883096255691383 3.136231063321167 1.5787905314835375 0.027288146291991715 -0.7385164729589088 1.132653989178546
P 4.4855564528562875 1.160052726852511 8.107828781880672 1.8274627368368592 0.4271304262058902 0.31662338389255795
P 8.548776178454291 1.5780599231306358 12.204060279216764 1.053792598794953 1.0913841838954816 1.5407407684894239
P 6.346794761657936 7.713997506198628 1.274368580469879 0.14561597020132339 -1.3622074787347893 0.39383798270134757
P 1.8140644608303345 3.19752098625904 5.801888110365734 0.10787423267617549 0.31124900695452207 -0.3617367312914286
P 6.845421432729101 3.879963307006573 5.919975165863946 0.24285354909925919 -0.21775264026657337 1.4457030254562844
P 2.4024928203149605 8.51150613260009 10.18348260254658 0.19106844610716772 -0.10441609892424598 0.3296442216322581
