# total energy = -381167.64625497704 ev
CRYSTAL
PRIMVEC
9.29693797740575 0.00000000000000 0.00000000000000

0.00000000000000 9.29693797740575 0.00000000000000

0.00000000000000 0.00000000000000 13.60700847882245

PRIMCOORD
 96 1
Ni 3.0785137259868356 6.893540189753176 9.493678103455492 -0.04226353665490141 0.3589224017710851 0.6880642298456279
Ni 6.3318842648409275 2.743470668664941 11.826504873088949 -0.07188187374196653 -0.04123612383165157 -0.6212278889473688
Ni 7.51315322713961 6.115116854759422 4.8451839229459726 0.2675448811983521 1.1246231484542697 -1.312313936338456
Ni 1.920310467257042 4.787616352180589 7.882240742300648 -0.6795595348087264 0.05022830002793285 -0.25975675261250103
Ni 7.405132102687002 2.1083782292461817 2.681724124197737 1.0690742075443718 -0.24584477051709921 -1.7108246419251245
Ni 3.359123210396257 8.354684178346835 5.89319522216337 0.3788196549156444 1.1718476286588722 -0.3896648251602644
Ni 8.048684755829136 4.9790403088446045 6.899841654436366 0.2719921183364283 -1.0345926288277343 0.5355528180760519
Ni 5.304944475957625 1.1118580220143919 2.462269898988699 3.1163449245149364 -1.5215299998889278 -1.1281537873153473
Ni 1.4226267738069154 0.3454426123449333 6.340443955802587 -1.1079641997413499 0.22521680985410245 2.239992639520755
Ni 4.136096223037433 5.009766689455317 3.4028271869810984 -2.3201467805738427 1.930816198824546 1.3781694013806844
Ni 6.220423273270025 3.563376941717696 9.193153647818775 0.5282652832757031 0.38492551070306613 0.15345809195356153
Ni 7.99300539320355 2.5816109753419436 6.882411754778585 0.6286488640017883 0.4376210413245689 -0.6464758648808802
Ni 0.5291203601360762 6.604944635466417 8.822117494419913 1.1147560258522025 0.5746821799773457 0.14378251653701044
Ni 5.425088807767683 3.562437950963784 2.9278884527334252 2.1728930176587804 -2.357936597728107 -1.9046457110767652
Ni 7.006860568955589 3.7323580896693795 4.548672955511872 0.7260029138729304 0.15120811957712021 0.47043834496490594
Ni 8.578108196149147 7.37284383646582 11.715621221377631 -1.1637856775863442 0.26654446495829576 -0.5364257075993084
Ni 6.065062139719156 7.550331682831665 11.951566355490536 1.1260907341387316 -1.4016965379683473 -0.5487178947031002
Ni 6.341218390751111 3.6153933107092056 0.4272491602746893 0.910767272138941 -1.3116940433662698 0.5556063942928174
Ni 7.734308792031481 0.47884809674292417 12.05996028716326 0.40966852197570097 0.0023420178696153216 -0.05292101636874756
Ni 1.7325216134126291 1.5147873217627383 1.4777213590223903 -0.20328632832959828 1.1449209794713573 0.209256172759788
Ni 6.054696053673485 8.16443163589067 6.150844058405083 -1.9593934962416062 -0.3193253562047533 -1.217284935056065
Ni 4.134078787457244 4.0984901081901315 8.189146616288708 -0.014429802272084827 0.04502952943581277 0.9286469806328392
Ni 2.502084966342235 6.336188747207875 2.5264680460480498 -0.34403057226091716 2.239784123054375 -0.5163639038524269
Ni 7.42945289290716 5.788506120346428 12.935843424862643 -0.5796145842819566 -1.1189086145679956 0.8135466625218699
P 9.22097287586762 7.149057238075363 0.06335398507464483 0.10173495254765706 1.5883776536410967 0.8090996824941098
Ni 5.972548308113347 6.119700245271096 2.7218506389795514 -0.3002076615386959 0.9222292500319537 0.1541065241708378
P 8.700269963539393 8.574686922907167 10.04654470303359 1.0953647658097845 0.7475073636036095 -1.4197017162965162
Ni 6.659322426749944 8.693799294581737 9.4259015648993 0.49596348581920396 -0.8476811423117336 0.2820911544436432
P 4.576808279458075 7.329854794425295 4.556946300778279 0.8833636833150076 -1.0580251488190617 -1.4028627903623065
P 5.516635757805106 1.258294094934009 6.619959190590865 -1.966225174451459 -2.4740681853170683 0.20639582049285743
P 6.764666033013177 1.1705402956648663 0.3156087377973458 -0.2504766128621557 0.7105621538378278 0.46577359249938494
Ni 8.85016449745362 2.9783485142773594 11.721717223727536 0.14073473084962212 -0.3372606005269353 -0.4697750003492942
Ni 1.7558290373736145 3.684553233663242 13.020859275844387 -0.8612174862352716 0.42151308001911275 -0.5549114251083218
Ni 3.827047404804057 2.0038713474171286 11.96562239629094 -1.2307778273361771 1.9394882726772467 -0.11355919887609474
Ni 7.795901007325269 7.360200000571549 7.47007121571751 0.24041640041267628 0.31361673585575023 -0.02151242015047908
Ni 2.437908202240647 5.930693492528044 11.551139791494203 2.5918411651641944 -1.499357834667263 0.8174673377325147
Ni 8.95666092404839 1.749562901055424 5.038035889310988 0.5372371477570101 -0.24601112089163438 -1.5055002001195747
Ni 3.6620825341364363 4.061460403508598 5.884119551133966 -0.16820696812796193 -0.6587050599572204 -0.0323035972287121
Ni 0.3080419598309134 5.847299957254793 3.693690264484485 1.2298352609172496 0.11198105575569746 -1.1739428206250042
Ni 3.6481557207764217 6.375988939460359 7.416254959498699 0.9289403435035422 -0.3036287714051029 -1.659311561647497
Ni 5.008948558897453 5.011282090374999 11.991230812445918 -0.15030257704371533 -0.6534067876727585 0.3724438332962876
Ni 4.261391058586775 1.6968027770113108 4.699520425587249 -0.4053639810630761 0.38633344679418624 1.191251744217097
Ni 1.5352219918330399 7.8713456604738115 11.141214545782297 -3.9074862227584126 -2.686644423589025 -0.515324663954635
Ni 1.3115004720096848 8.506754195789927 2.314334229944268 -0.2840436501843237 0.07238066775525599 -0.6059678774645048
Ni 4.906384737143329 5.310894516378458 0.7449004353852495 0.43061787053385836 2.189420583000158 0.7436450524347258
Ni 4.2925729891672075 7.554041161156528 1.2352181647331468 -0.7274144495084763 0.2739279019065605 0.2707554177158498
Ni 1.2896526673394353 4.244851805604488 10.097026147535287 0.8327047235075595 -0.5066451339027661 -0.9872061691239709
Ni 8.66141805897898 3.5017568356094353 8.816089359718557 0.6676337299054179 1.6628036339611558 1.2957406053608072
Ni 8.89936389418339 0.25809508927327574 0.879032940347161 -0.8079177463708667 -0.1100882096083588 -0.08247559009741279
Ni 3.6150586209355335 9.048644830179219 3.0189324384165257 -0.8347690622357559 -1.3965931553035107 1.259936194067688
Ni 2.5787382214512595 5.814621219630995 4.82670532866402 -0.6488011705799471 1.5908669957218537 1.3246580597261055
Ni 0.17196825418170486 3.1470786448987886 2.873786780513177 -0.36763998414974103 0.45114401551166816 -0.23508521800774998
Ni 3.8637610135882334 3.4446643383839026 0.3232015471906193 0.5236218709664208 -2.226728318311681 0.28133370745232833
Ni 3.2638574850958118 1.8675224523984562 7.4305015875313325 0.5373996414768035 -0.557373256385253 -1.228178442040117
Ni 3.749631800766113 0.7618608396660734 0.7031543939763893 0.7883362246945131 -0.529202964598624 -0.9509888386631493
Ni 5.305251274916824 0.35963066966717494 12.044379548505018 0.47150355300462665 0.2562525961139845 0.9272758113169256
P 0.9806503337968466 1.7767378512899512 12.69644168914276 0.7197170808642186 -2.5006194534430355 1.6962986803948075
Ni 1.3070751294466894 3.057251628420512 6.360732663943814 -0.4003616427524782 0.002798131570427439 -0.3083151211371787
P 8.783849437575794 0.24199000330294668 3.227337252625312 -0.2460517443215827 -0.21337996512017443 0.5735719776323025
Ni 0.6570648230603203 0.9872325660123942 10.690999159177005 -0.3778248951025428 0.07510372311337388 -0.3816224144717621
P 1.7996083191575316 7.560019092391835 7.158103158902661 -0.3759171365568687 -0.27066851442899836 0.6620174121599051
P 2.7751825247203543 5.507794369617274 0.15740831933316113 0.9452707052324494 1.3148811828449998 -0.40696680677382174
P 9.058908649905158 4.279138913529543 4.982451355454611 0.7703994377104345 -0.9926965028145808 0.38892820410455603
Ni 0.22603645742458578 6.553923038857766 6.020176522294491 1.2085064175324862 -0.03576327364253841 0.7044881797296061
Ni 8.814092377402314 2.8852861633202544 0.5207810066087512 -0.13000037515125354 -0.13371407655741488 0.4715164085204331
Ni 7.6661250475839875 6.177601576116336 9.484534564777539 1.263891064950378 -0.4466772379895662 1.5338833792479585
Ni 6.484140221047173 8.269700866648641 0.850932944765957 -0.06056619161883118 0.6107084774732837 -0.5411812200064229
Ni 1.7952387582234817 8.891489387563944 13.302578814669822 -0.7253999901816087 0.3824575087785478 0.5324628662968185
Ni 1.8427182213941047 9.018364702600069 8.94947903932168 -0.18886449647731346 -0.05273306872765757 -1.3851954549895305
Ni 5.47110865164757 6.074108060546456 9.963555584570193 -1.6765793475890092 0.37627323434470683 -0.6334653115538251
Ni 5.929345436495198 3.207220537839999 6.6353493420168785 -1.50044386864259 2.397054389665175 0.24440109609203714
Ni 2.5334528356858192 2.242300623405732 9.577075357504004 0.3035004733573547 0.17797227504484187 0.6979753183117527
Ni 6.738039602129946 8.152568742801632 3.509778233851772 -0.6989155707378351 1.5428321038008137 0.41161690395132333
Ni 2.071413603131751 3.5021101192594224 3.992106174547068 1.3662271414171439 0.26156835189994304 1.4353954728826894
Ni 7.80318980684079 4.928362698947783 2.314443004120712 -1.0730265073239003 -2.963875935947521 0.6730276472274795
Ni 0.3843661033291604 5.307668478837788 11.736684364467381 -2.7984956386350768 0.2790919626060032 1.4726960091053605
Ni 1.159374672937645 8.112861519930723 4.577642214810807 0.28860170186865136 -0.19838040638754867 -0.4641028896651814
Ni 4.674900273958417 8.724795286399019 8.013004036874262 -0.6729913946729055 0.8051838923794713 0.012018878837747042
Ni 8.182160896957123 7.106681793953236 2.0465759031500323 1.066397432043157 1.1358997498093533 -0.3382725867312174
Ni 2.19983220990203 4.277270228959876 1.8401848057461718 -0.052679075561270564 -2.3354690127532103 -0.1328697262792486
Ni 0.31959433518548874 1.5605561483123718 8.164504152008298 1.0169798008419775 -0.9454815356916748 0.48237700538402084
Ni 1.9996505374935993 1.1780243308816964 4.4143721759693095 -0.2796743174720345 0.09964336012595097 -1.7851966290787964
Ni 3.860237474026521 7.713957794404597 12.524816491979067 -0.7567864749126902 -0.3838939841147582 0.21572866785800912
Ni 5.210431802647941 1.3547033436278335 9.79598478213701 -1.0746645571479556 0.452305382809621 -0.05899679024918226
Ni 2.8373883379325413 0.04759009673469798 11.08363024052823 4.086778502166259 3.7459412400316583 -0.20580960897208425
Ni 6.550315826852636 1.2801418996042586 4.6363300666241765 0.4030191349799833 -0.5781251442206237 1.1631961236314612
Ni 8.113958558633314 8.695203132243527 5.420991647121648 2.0981055402342443 -0.12754728562507064 -0.9912898522750412
Ni 5.587664365328811 5.652780120184312 5.863178197934078 -1.3548901191377698 -0.2553434540361538 0.04256332728350734
P 6.3404374479458765 5.740812827598182 7.905277625361249 -2.154191584594535 -0.23271466089304438 -0.261366263191466
Ni 7.353004170437602 0.4912678764275991 7.37174679776323 0.3144410315292585 -0.37472800134477396 0.8678632736865635
P 4.646516721763407 8.348492417533903 10.187689888447743 -0.40927771429518545 -0.30042749085898585 0.8004499772389118
Ni 7.5931812707998265 1.5594126249189926 9.796909827483686 0.651712173579155 -0.07435913163786548 -0.07142550293083828
P 3.6991866143232306 2.255753292919711 2.703141480631292 -3.6032015629368654 1.35303918197196 -0.9969365090378575
P 7.697372056731522 4.3433900531363925 10.724132517076708 -0.9189901742693657 1.1571599447397103 -0.04148860616208983
P 4.270808856940376 3.58900860021807 10.407429529658218 0.05322183543861801 -0.506380824497786 -0.05181724178160753
Ni 0.2807433603188905 5.35872726319907 1.0536889393502142 1.152112869234106 -0.5498679491471433 -0.7412616398042137
