# total energy = -340870.7059394427 ev
CRYSTAL
PRIMVEC
9.25138509405799 0.00000000000000 0.00000000000000
0.00000000000000 9.25138509405799 0.00000000000000
0.00000000000000 0.00000000000000 13.54033722949084
PRIMCOORD
 96 1
Ni 2.6723735726932594 1.7100445054170068 9.903578958845603 0.7958649289713907 -0.6919324545517825 0.5950265479616527
Ni 1.465530399974675 9.416892273503407 8.555083204761893 2.058266553860436 -1.1376483570693439 -0.36030411260996015
Ni 8.70974415856979 1.4649105571799481 4.276025300380114 -0.3191456360937794 -2.86378366120961 -1.2327053833761932
Ni 0.004177000325660719 2.841858945818629 5.750283456959946 1.7586394474155584 1.9491749038373916 2.0321513448306225
Ni 3.6121200091944554 7.177825819864349 12.348638601080955 1.8089844755270135 1.4141008251699712 1.890065756380061
Ni 1.9393678366960276 5.27525074129712 13.373560688962648 0.09085018731435321 0.03595764904153162 -0.18177493662038371
Ni 1.1356630165599273 7.006453164199811 9.55125938918424 2.0501176995010564 -1.6352987436726676 -0.8090284629365422
Ni 4.460953085340684 3.0302448984906754 1.0624318283476737 -0.9863530770950562 0.6754110598579917 -1.275182064483165
Ni 6.324330045680173 9.256380743824087 12.060960308663132 -0.4733848291877395 0.024898563013892604 0.5214464605816568
Ni 1.9231686615681607 1.48146128493766 4.360597761458874 -0.8619353382379026 0.6091298201322543 2.481716188780629
Ni 0.09340845888836895 0.5818159018398058 0.6163531723065978 -0.6189565764146889 -0.3807778070832797 0.09729697138096147
Ni 4.34655045848106 0.049618878287151044 0.4619447813090893 -0.1412360959660729 0.7521744300619756 -0.49757865282512365
Ni 8.782700580647665 8.988775181431924 11.703062153849226 -0.33335098105988403 0.2138705316033478 0.7569651665823995
Ni 6.827411110373649 1.210617737796922 0.5958317501086342 -0.8170911853400187 0.9168736421469951 0.5660846681163219
Ni 0.0032851668120534245 3.9901501028979953 0.662272421733878 0.08711488864163706 -0.8088222604630071 -0.5584376930940252
Ni 2.6101765113656463 7.696587982125919 1.5481887494977775 -0.42644754120625267 -0.8074359216384417 -0.34834102671081296
Ni 6.329131514493058 0.6224387333569181 4.260074062370138 -0.41575972247510334 0.2622954598739547 -1.010894513879846
Ni 6.389820600066335 3.7539067356420217 12.963762264321597 1.0368539140580852 1.0462376692658304 1.1623237483288371
Ni 1.5611619666775651 4.239299152223286 9.213806795211335 3.3017394601657784 1.3844760603250026 2.6682376389470632
Ni 3.754600589516716 2.6332587169304826 7.794765529979688 1.400893839561394 1.3517394893239298 1.393629701799813
Ni 8.385076053522754 1.5864274991014395 8.590166306943445 -0.17965223385042606 0.11819052700051903 -0.2408480886334562
Ni 5.764963554671482 6.151116364401445 7.593841175222662 1.2600202691410622 -0.44259355483849583 -0.5301527301064032
Ni 0.9352040064681965 2.6512249065925717 11.855255763278711 -0.05728854930882391 0.31685889694213176 0.2950402584051435
Ni 2.826011323320607 5.853369789692554 10.744203281084946 0.7369409009416729 -1.0988275275474044 -0.3870291873096302
P 2.8355957581763866 2.9020669593721173 5.875490776356313 -1.2833856833398802 1.5097800584418513 -0.07993919682880425
P 5.708798396361214 3.7482633907945067 10.894162681037914 -1.122774525281305 0.5480419516819982 0.8263039621875382
P 4.422948395777419 0.7759071836388405 8.750416022427382 -0.02297254963577334 -0.7643606877155222 0.1981826885544458
P 6.233462942250186 7.168407909938495 12.299325018498672 -0.03267075076014374 -0.8302467488853702 -0.42152002199764826
P 3.4967552382952545 8.753567969295494 4.802500342312788 -0.915531526296804 0.15038433812424423 -0.2696187330082453
P 6.012216070072608 7.338568634168568 5.582315310973909 0.020717949273641737 -0.7907381492677866 0.14326263947779844
P 0.6162088507006614 1.08964662759019 10.359346590392912 -0.7498432108256377 -0.27145707176856476 0.06039315637607664
P 5.057214099713129 1.4275442131814016 2.173792381661802 1.6140285214399814 -1.749159275839265 1.8472491754351672
Ni 8.880635742214542 8.509756969112852 2.854276154760161 -1.1470264558501342 0.4333416972229247 -1.185199624485746
Ni 8.909009739997046 6.804375161733792 7.735431772308315 1.2298260049458691 -0.8361736558927663 -1.2893912661040117
Ni 1.5001398312444352 2.299376232427503 7.939647769846891 -1.6876320058587453 1.1278995052126963 -1.67227377823512
Ni 3.8482708626004696 4.900162588022285 6.619193888824334 -0.6389039660708932 -0.8638778066762541 0.7477073954295574
Ni 7.663653051540422 5.04158851045501 2.0942434226358304 -0.8010171625962914 0.3136666152570791 0.0011582819741592955
Ni 1.3551151200482947 7.13844267393669 11.983482734737748 -1.372493691152146 1.344525230963678 1.218624736913411
Ni 5.0889000933241775 2.0356747545036202 12.050494216817238 -0.5909981435285498 0.2399170921787546 0.5204339601567424
Ni 3.429534674914854 3.597752608295782 10.828735961208222 -0.01702481669277068 -0.6808995937763886 1.8131617468331547
Ni 3.055908240469375 8.30394140710848 10.363381119389635 0.2762069277487243 0.7754771093436579 -1.4091653355415668
Ni 1.4092542250444553 4.728512390807868 6.955224544923368 -0.7725213691494438 0.2600020358540877 -1.2891670659083474
Ni 3.0281540854815967 0.7726044391952949 2.5892776326598494 0.2170928951953874 -0.6648649089110292 -1.5030445394902308
Ni 3.741343354817554 4.217835939032737 4.164425843174255 -0.6886882365828719 0.03827806964459214 0.9565907582309591
Ni 4.367393828876882 8.058872218566393 7.575208885840867 1.33000132631589 1.535942318659516 0.03458390862245656
Ni 7.934450341756181 5.990669594417096 13.202586767991432 0.0574070771645592 -0.6617495032104991 0.5765259180543039
Ni 5.946077918736731 5.088159982524502 5.2591209515567225 -0.7451702308300006 -0.20819996358113174 0.22755162863486617
Ni 0.7963740226653282 0.4056130980688942 6.303798446958714 -2.7115761538336978 -0.08913551861609165 -0.5933440180529072
Ni 5.7263112681585016 3.4065634859699694 3.3362039276604514 0.8511400473946117 -0.6091349623385767 -0.9731759162831498
Ni 5.592156934332575 1.1143015686043334 6.877394493229639 -0.5200135847898723 -0.36943975636264115 0.6897351897901476
Ni 6.909452392517522 5.1227231568692835 9.84297221059879 -0.8316081480092709 0.35545295516524583 -1.9674073676850181
Ni 1.1315183960817523 4.65996887937305 4.1047803138285195 -1.0961504949358736 1.0450536762600582 2.0975810351893425
Ni 4.335735589420822 4.744091723141008 9.121583438740943 1.1918927202352054 -0.7866457243659678 -0.6990958050694412
Ni 7.076745187398858 8.238506361032293 7.357508069532228 -0.9097740549877363 1.4985985879037351 -0.14365036183452037
Ni 4.254600943006548 1.741906275342977 4.7380884994171515 0.7935591636563494 -0.3339677887082764 -0.8768603349788511
Ni 2.963190860040202 0.7721335436990022 6.663849399061171 1.5746289365964363 -0.8006119567380727 -0.4281082167381272
P 0.39915840675723635 6.353786455507202 5.686156556722184 0.8321833037864507 0.43348979276501476 0.034601392123953315
P 7.298861689766052 7.1095043416694335 9.143153042858945 -0.8145915588466165 0.42693605080689695 0.5058720031821675
P 0.7608542551119689 5.191275919689097 11.161719211089599 1.2261716960227336 0.057212444655249856 0.27964474978567966
P 8.086117547379397 2.5716814983975973 -0.5038507799251366 2.114993317128519 -0.9939578860255076 -0.04709515371558986
P 7.696791512595829 0.9484242356273751 6.38665200070523 1.7458695493443996 -0.6210718229854787 0.4303227078909428
P 9.0185831438888 3.7242097898050983 8.650799884206746 -3.0926555513177965 -0.5829701310177509 -1.895907816983135
P 0.2542881936905279 7.508646095933677 0.4037507942692142 0.6567996154043914 0.1994121900861727 0.22738784936349227
P 5.657166416698948 3.908340105379019 7.4407131759085905 0.8137549218779341 0.407037512110757 -1.6432069427761506
Ni 5.114230385443023 6.1725240692820185 3.241055283254348 0.7458281761289736 -1.4586570145137912 -1.5201811991705174
Ni 6.87746110320161 2.6857880809373524 5.633199778728502 -1.6679718084256565 1.5457374503730668 -0.36351284935524497
Ni 4.765702958491492 8.339873786432657 2.587775207736511 0.20619681710817392 1.7228651180294263 1.7298492626567434
Ni 8.928409894333504 8.538093961355374 9.302279640204375 -3.4857209175191772 1.1863342523108213 0.9333438718878765
Ni 2.271622077439724 7.776223904170854 6.879100448622888 -1.9003113453674694 -2.1071733068634675 -0.6851761096645554
Ni 0.7554255423963594 5.838225272454222 1.9646213423194077 -0.851900836820036 1.4573038429200063 -0.5442284914731789
Ni 1.426757845456748 7.6158881508064535 3.8821910656880334 1.3307284342899017 -0.7340090720068584 1.5133778030954388
Ni 7.970595502935264 8.461982816993888 5.13983081800375 1.0066118273440923 -1.093190383866285 -0.07761311979878892
Ni 5.208474244396524 7.0791412961128035 9.777030188624828 0.09388640303751572 0.13946974809426949 1.709185820770121
Ni 6.335339193825326 9.366194683725732 9.790137550887055 -0.024701873622054234 -0.39828701961163665 -1.7838969364307666
Ni 7.9229323674362515 4.893575601905185 6.5029909424445025 0.8022122113456571 -0.5467288892975294 1.2099896869462323
Ni 5.278303698345775 7.048954026871096 0.7069963922196845 -0.3500680367042487 -1.8378805897360737 0.11654604941856057
Ni 2.2445802790966316 3.581340651313009 2.4801695734333933 -0.16223429548429477 -1.3434371401058218 -1.7222657938825308
Ni 7.968726723166087 6.134056810468957 4.283959288152621 0.4438027446552486 1.8768325455192387 -0.9408718048338055
Ni 7.362030146518237 8.222723498229243 0.5081471231172447 0.8321501365556699 -0.10459067682889729 0.32455266604196364
Ni 1.8388237845603006 2.1306587242567954 0.5754861042255931 -0.4926968992527902 -1.9077703727486754 1.4268259860461232
Ni 1.9342148152532967 0.3308369285623208 12.118763887256177 -1.146578312569122 0.245400483890829 0.8228823381004988
Ni 3.749493824998965 6.466070515202761 5.006078919425146 -0.5334224019966104 2.3549433194277376 0.0844738514743642
Ni 8.129247504230404 2.640095490442472 2.422623183343233 -0.09611914902277639 0.1274156451432128 -0.8162774311894717
Ni 6.070620063551891 2.6615402008630293 9.113419091482038 -0.6757265342158814 -0.9489219288317916 -0.9183785088272958
Ni 7.357339694325303 1.972191750661574 10.923043654718198 0.9054198917840988 -1.0330959896775498 0.9360620421499878
Ni 8.463185497043359 6.705986682302116 10.994780744253609 -1.1095238309189859 -0.03759647019653525 -0.2155108954202482
Ni 4.40382578299084 4.901476284691706 12.757448052665943 -0.30562394745826077 0.7187665440254911 0.29102882325290524
Ni 8.322397920175353 4.011141495453752 11.09388250546847 0.4710410115459113 0.05087698935552529 0.9670140104468121
P 2.8690765204766437 3.341970315928412 12.984140290052123 1.467306205548357 1.5413097536190163 -1.8769148208203996
P 6.854665690571648 7.473546341259133 2.56456718333573 0.3667323847338071 0.30950322790800894 0.16604132793521084
P 2.7139863024049355 5.674179713706457 2.7085955203678096 0.9762445279061445 1.3174435442555374 1.1097284907306244
P 3.3508979024494807 6.527277678335808 8.725122735848519 -1.6844551507926602 0.8291961961336686 -1.1505514382842572
P 7.848347701599094 4.069758270787942 4.242526035309865 0.38631082108636694 -1.5405502497451724 -0.3802031655267323
P 3.992962523936757 9.522265548607008 11.891002189764471 0.6006649771943526 -1.0301605611983098 -0.35206244142645815
P 5.552792291174908 4.818445104353268 1.4798644958873632 0.29601573494453537 0.47249419905267015 -0.8250634049122177
P 0.8860458471538425 1.549384953577751 2.554722784561565 -1.1810318662613015 -0.16989901111840416 -1.2456046079363645
