# total energy = -381175.842076854 ev
CRYSTAL
PRIMVEC
9.12135856460208 0.00000000000000 0.00000000000000
0.00000000000000 9.12135856460208 0.00000000000000
0.00000000000000 0.00000000000000 13.35003026035640
PRIMCOORD
 96 1
Ni 5.594475931383937 8.60446958985791 7.2696390051397906 0.0685191279173207 -1.8366778276772238 0.915647740159694
Ni 0.27174534407288725 3.389405696928866 1.0732783590454007 0.5603343958961059 0.2275215467278791 0.6790152322694822
Ni 2.8807804904589736 8.977469313113414 1.0692977980880558 -0.7045288031595544 -0.058786731120905204 0.2730400999849685
Ni 8.053357094342848 8.743077757382686 11.437144946419219 -1.4856371426470607 -1.836295761747457 2.278170179031741
Ni 0.06575496307379236 5.040918911724583 5.10397030406566 0.497345453768395 -0.29526163038733017 0.7576717057311209
Ni 5.833127161649678 3.788957695497913 3.3660769097966363 -0.002665205536988958 -0.3934826562444578 -0.3459326743796365
Ni 8.85677549416844 2.2286307040994826 12.381405334526812 -1.4480090478816416 -1.1280576280571153 -0.6161103652151454
Ni 7.711452083057072 5.598981882605129 1.0973140514805502 0.1472465638262109 -0.9504874735466986 0.404566167752129
Ni 1.3643819627877949 4.7080805310336755 2.8487900610602575 -0.005393145991113292 -0.8894641397857906 -1.0729678861718233
Ni 7.13835711296089 3.867018283657759 12.60420455542553 -1.9023144918404271 0.5875017003395173 1.235060513871931
Ni 0.5575977815844304 7.636967067526188 10.222972607346959 0.740900399810053 0.6426588051276351 0.5218215845328884
Ni 0.8245270482387154 0.9386790286900876 10.58064662363516 1.5550983227626767 0.29834026931265395 0.4481039431337638
Ni 7.030652108872146 5.243112071077156 8.614254071386197 -0.6683852633594618 -0.15796909245003762 1.6415632365251407
Ni 8.10307762087467 4.11563003767561 3.1798972078609173 0.3254643792229556 0.42489716599999733 0.08134739003024054
Ni 3.525277456829435 3.1318276472623676 6.914421370762252 0.28255112479919725 -0.7385704661252958 1.949622018677139
Ni 3.5525138340490305 3.6511704502603997 2.7703983675778825 -0.5431144324733936 -1.2342274764476744 2.2438078995017876
Ni 2.0970642255276646 3.0482486370603725 9.187771360392382 -0.5138956448175923 -1.3608162548142178 -0.6936540652285795
Ni 1.8197019487381574 1.5436622689670163 13.024864290271825 0.9579809537102661 0.4745222852262924 -0.18560099523469323
Ni 7.047170889563602 2.96349297157997 1.401379106002933 -0.8529537035645827 -0.40450240439372914 -0.6543858637565763
Ni 3.4465966162747685 1.683638640303894 10.871089841004245 -1.8337362285503966 -0.25175882200868893 -2.711354524741195
Ni 7.723920980464704 3.721988679574848 10.495072772275117 -0.5870018778849632 -1.8577958406027617 -1.1687720750573418
Ni 6.5559309928661635 0.2840391113925695 5.256521380571639 1.8751243045788804 -1.2856935055374503 -0.20194369825877478
Ni 0.20321657580402486 4.519560288443386 12.523543467886814 -1.4876541730770896 0.8381017261534148 -0.24772347559705077
Ni 2.2256845052240877 6.3646469785754265 9.070451532048054 0.664496726938333 0.3218553217154586 0.0792398567689345
P 2.314909636490694 5.612581828497431 4.416630315658882 1.0003897576937804 2.917307601269679 1.0108415491547236
Ni 7.161853733094071 7.619791549004923 8.971501208085021 -0.05928321114134951 0.37116985167987043 -0.012341552284488421
P 6.140626407740439 7.928513057167829 10.816888903055725 0.22117092191950297 -0.15663109036490444 0.39152681806966766
Ni 0.5223993703142703 0.213656883026245 8.28442847548954 -1.5396724751259097 -1.243095982581898 2.2012674550364153
P 5.783032659409216 6.321466466265457 1.7842581729176932 -0.31059003321428447 1.6608231131960172 0.38495122173467894
P 5.4232771490548695 0.7563759042219934 3.573429109656711 -0.3966687672819233 0.010737183911846025 -1.8648748589367299
P 2.62039306229829 8.586108294699489 12.026388370041715 -1.088537715585622 -0.5563679550491901 0.7551952191661704
Ni 0.6106767924070265 4.611248186571777 9.992537897040833 0.6062859229255558 1.2015924640214726 -0.8748628449328482
Ni 7.433697587841428 1.6801725239799 3.4103720521455316 -1.5429071800131233 0.11940768723707178 -0.33690167452561975
Ni 3.455261907084754 6.714122717621505 0.31966257798035624 0.3449466563172834 -0.1543230110570181 -0.32277757641941185
Ni 3.942835017565756 2.7319290370609215 12.698362517502705 1.4297408457000733 0.4762822053401926 0.6807448133660793
Ni 3.8204537472525226 5.78312387299669 2.5961265994868326 -0.5418191107007378 0.4498026709924253 0.059872765096232364
Ni 0.4549852320843345 8.766583498874613 12.986281854906398 3.761986980640611 -0.09101319525477874 -0.2685810357723503
Ni 0.46880682699419834 0.36907845113001536 6.1493181504907914 0.37574230154190125 -0.8842620267595609 -2.720923142266236
Ni 4.604899720883619 2.1368880778186075 1.5277911047466224 1.531299677681182 -1.391174812501417 -0.3135552864901955
Ni 3.0957982802103237 8.445019117595434 9.87046492865326 -1.4738267802756941 -0.22994069769233302 0.6702901936916584
Ni 9.06144966310029 6.4371526592581345 8.47453218595837 -0.4356387207872175 -0.6892428235347614 -1.1158914250082266
Ni 7.90331986430764 8.179359544078782 0.8783074915489828 -1.6613751290447452 -1.7145830805262925 0.5131603093134646
Ni 5.554095676209405 1.5752039275153626 6.702275896880444 -0.5993089773870904 2.9046917122778817 1.7553692613047187
Ni 4.531819394599828 4.887771298356528 5.196299433713991 0.23343225578535928 -1.3341094349469929 -1.942141136919062
Ni 1.9370299863053577 3.526399383955359 11.544892820894075 0.9379536027457459 -0.47037663848903505 0.436561489711803
Ni 3.696084020732366 0.3230365685810021 5.998262064683504 0.36835577926984303 0.8430930087204188 -0.1329041790616098
Ni 7.629533160147096 0.7492357045945656 9.781820827938859 -0.8642632150401308 2.6834925082236043 -2.5781415561899146
Ni 4.475011572321314 7.880644166461721 3.193460668318231 0.3350191127909263 1.036340978977409 0.5575740595421494
Ni 6.163557503631284 6.738276075584496 12.902618016068052 0.6618225225402796 0.04400648748793712 0.1581272152944567
Ni 2.7516494146726984 4.300337552309506 0.6471230055538245 -1.845353758184667 0.3057121362966928 -0.10363525489416346
Ni 7.889035816509287 5.90320656090559 10.841452722162346 -0.18248096154847285 1.9235476901875903 -0.2604972303229514
Ni 1.4180520376572194 4.837403155353645 7.5626188723765155 0.8269171702915049 -1.0688816319175913 -0.7296885902546336
Ni 8.529829511228323 2.6613753271501466 5.121993196814555 0.20146058797476915 -0.025692262559781562 1.5082988459106346
Ni 5.040079746719827 7.079068281103095 5.5535328883746935 -0.2737936903215414 1.6783549514321932 -0.3966949925341684
Ni 7.152923922880412 8.079352966772804 3.0460367075641397 -0.868442286118485 0.7446585813009047 0.5999409545441345
Ni 3.209058191776205 1.0287980531139342 3.379199808626453 -0.6274594716793774 -0.5069629222535011 -0.8821223547087389
P 7.7910359381277265 8.128170478788636 6.878963912903668 1.141779605628898 2.039496215231468 0.5666618807760305
Ni 3.3641304118399513 5.994876216316487 6.680609021311982 -1.2698578240567744 0.3585308227596212 1.0197241963563342
P 1.9955891094633635 1.5807497136337534 5.079366350980551 -0.784020885148611 -1.1971156591970415 0.510471706737708
Ni 1.5523458024944963 6.1094039967482505 11.823935251964846 2.070388019714318 1.4534806125191742 -0.5027851367267275
P 2.2406070481347573 2.3149461219256837 1.6760560547772194 0.28307922938852537 -0.36974288942535677 -0.6241797724868412
P 9.018323878942807 2.479614011391645 9.328654394788748 0.2537010333367244 -0.4169763684910239 -1.3444843504234134
P 0.8693904512375706 8.479479610942935 1.9738556479760456 -0.3229824933413663 -0.8286302963278697 -0.5760677474709628
Ni 8.642040466538258 7.312447366012866 5.037994604110182 -1.2555704608998248 1.5728337923692268 2.282268774581147
Ni 5.143278799587378 4.681437042132658 7.482118320751752 -0.21229341692421502 0.2467379717553299 0.9297800657960179
Ni 5.631572497409421 5.096422379702226 10.755598845088759 1.3963483862825563 -0.6707828170573609 0.3984369149259396
Ni 4.406829415684851 6.972056500279151 11.407881803285962 -2.6589155902151886 0.12744649838114824 -0.6045036342141524
Ni 4.713817865685761 6.706059436488846 8.841485360500252 0.33938176063499614 0.016071194530249744 0.18734985960499992
Ni -0.02938536934047212 6.436860775778219 3.215475067654967 -0.06554873243508712 0.6646623059819198 -3.0149069343824078
Ni 1.0317168879130871 2.5235789605538863 6.996657716956636 0.22504403172166404 -0.4263053592014336 0.31185064509426297
Ni 7.840838556888273 1.5183869838781014 7.263378104495607 0.11438272321865463 0.13236579005963656 0.04610116523343673
Ni 3.597217613269807 4.505212391133799 9.982511699505743 0.08006440955275888 0.47393890191899674 -0.27114391140352007
Ni 5.881032537790776 2.2809599392330466 11.17903512153775 0.01615501249330766 -0.06224949285852505 -1.08703824822196
Ni 8.396840100691916 4.098837616221734 7.23251233863044 -0.11143932431961452 -0.49254031907026785 0.25648990893577117
Ni 0.040140363439475926 0.09072012196529727 3.8048790271914172 0.7348359387835279 0.4977804844232846 -0.6108951395627931
Ni 4.518721123438629 2.41095754410032 4.825408568600876 0.18795843972327628 0.2345820531190863 -0.24011275312932842
Ni 0.7151637811297035 2.4688325653522742 3.241760999293089 0.9867297437081844 -0.9575027285222671 0.48800000799775306
Ni 2.2800842887933004 3.6681270561717287 5.189731143280022 -0.8685106774625753 0.47589191188030944 -0.6275255490306224
Ni 6.424136480325663 2.87803496147602 8.570599248421367 -0.36578081945381524 -0.005083842280810599 0.5796132987303759
Ni 1.2602251672517721 7.017499109558464 6.624565568896496 -0.10151229501388968 0.7934493775513625 0.04988480064558506
Ni 7.041187278225339 6.247464882748183 6.5292063238722955 -0.4401355802163065 -1.4891513264479064 -0.5220162170421978
Ni 8.56836725193589 1.1595892161922274 1.4272381580516786 0.9789578130722495 -0.24268976982788526 -0.3992390991122608
Ni 5.280983952596164 8.798727167100285 1.139987416244166 1.2457357341975899 -0.050171992868700686 -0.2346339894029443
Ni 2.596394767434005 0.9127470057713633 8.161581103744316 1.782820415537136 0.4948532834741607 -0.3332087990550649
Ni 6.511938679627681 3.7094468112972376 5.9615896418397725 0.07608639874161735 -0.4530692575588391 -1.1308372476847814
Ni 4.609606341997254 0.25030102965786055 12.130838873329404 1.347410780041589 -0.9092138116088921 0.9637502520938757
Ni 6.3418709457832865 6.044049461323467 3.940261882263128 0.7664653927633509 -0.5460089804123693 -0.444905233690808
Ni 0.9934254238916996 6.123815743569068 0.9194128947439287 0.21288579909257527 1.028019603595907 0.15702164093510376
P 3.903978029302033 4.9013165160963466 12.179499497974783 -0.5452978132779577 0.20499199816679534 -0.3963008424195433
Ni 5.144710852910712 0.24582973959990814 9.53456541996674 0.865203210355897 0.8337683888853834 -0.302975196981504
P 3.393346123907723 8.028054445177691 7.620036913555227 -0.4025992738337454 -0.8322848623613215 0.18697730675692958
Ni 2.3714164539305456 8.169745631959072 4.783062660616291 -1.1526299180798407 -1.588704440852896 -1.2686869436771246
P 4.3470571518134475 2.310057073637102 8.983515861827033 -0.21873865832892653 0.8127197957452004 -0.6112954603250053
P 6.316768966510571 1.4363586046631567 -0.2829354269841398 0.13034567430581423 0.4766503873128887 1.9110922380330573
P 8.570145916891622 6.720297877493463 12.632266415611761 0.5352766815965297 0.33664533554043957 1.1379129235846404
Ni 5.137459372706567 4.5389979039339945 0.6121672224263439 0.8399228385225534 0.27339259822838075 0.7269354529895287
