# total energy = -340874.9230738623 ev
CRYSTAL
PRIMVEC
9.22737593168087 0.00000000000000 0.00000000000000

0.00000000000000 9.22737593168087 0.00000000000000

0.00000000000000 0.00000000000000 13.50519739346423

PRIMCOORD
 96 1
Ni 3.4031668854904438 8.687924858819402 9.61857674863516 -0.4785195793111437 -1.1663680936015397 1.034971609433708
Ni 0.8945922283302101 2.421817025383724 7.127408612989383 -0.6067944871308582 -2.392542103617118 -0.1662426453127395
Ni 4.3451988977530736 5.756110778673207 3.0343071556984693 -0.10276133692964239 -0.03691178542468482 0.5745860207191137
Ni 0.2529712729406477 6.151346961894502 4.875862505863681 0.09940013376689333 3.0515443830997833 -0.6033996025166963
Ni 6.627258090832973 0.4730884747128174 7.918758502860738 0.17858111227343437 -0.4163389920173411 -0.1404987035794161
Ni 4.213515019183954 1.3111916317647503 8.092800649566046 1.1913144791342323 -0.06357772475164535 -0.5722041507504985
Ni 2.3485608897267802 4.796961984493002 0.8329708906893694 0.3066603591425751 -1.137750686975163 -0.14851977411167971
Ni 7.82095754785029 2.5478076131479144 8.575381325658169 0.34774221678454953 0.4711145450963241 0.985205336643858
Ni 4.464536547639867 7.94799082906822 4.370079593581941 0.0399063492766345 0.9688250955136217 -0.1311018357455484
Ni 2.174975498118464 1.3984272416023549 12.67258804239659 1.9282129568737436 -0.825907755190384 0.11159153362676263
Ni 0.44088031984311576 4.123418922880339 5.634881516768569 0.1315795467129153 -2.0896622945628978 0.06627661174004715
Ni 8.603199095171329 7.139598899022433 2.4530572285428307 0.6395505985159566 0.9148692101224567 0.32688131417514027
Ni 2.8268157720922393 1.6349248807114949 3.3571896406059683 -0.573359090290548 0.35742756239311346 0.6140817648208908
Ni 2.9544396053547644 2.01118035212446 5.893816442622062 0.5148662362609777 0.2805595482904652 0.08210946500724568
Ni 6.173631074202288 7.813566419917149 1.898223432532008 -0.6379143484641143 -0.21325038152084563 -0.8910399689133429
Ni 8.281911100784239 9.278956726951225 1.106873542660652 0.6585549075326014 -0.9941844002140168 0.3449389430077995
Ni 4.7501145980803186 5.6942781341289095 5.290296244222182 1.4210196637769914 -0.7051582092134372 0.9738094361020906
Ni 1.0933425189388555 8.98906026468467 2.943768145361408 -0.6957559420629308 -0.07496025555697414 -0.7090626864741659
Ni 8.087527204355322 0.679653429799088 10.09544567917096 0.03941115480777084 -0.9928330283924449 -0.16787529582015603
Ni 2.2281159547563703 6.135854198099565 9.170380042602048 0.517637885468844 -0.08464560116553808 0.2321212502834196
Ni 1.3202713694504074 2.6355876381516303 0.8825514257834479 -0.44532560905767826 0.14268774081093488 0.8868462425469695
Ni 3.656689032760191 2.448825554048275 1.2974013187858735 0.8226586521254672 0.6578331988752284 -1.0768476808422034
Ni 0.2823973740377623 7.899058055748057 6.88531364778256 -0.7193725530406062 -1.9811468287582974 -0.23698372058204348
Ni 8.606668588433328 4.209085878849487 3.2538476464895885 0.902089027638653 0.7209733218688228 0.030903888667708067
P 6.4467060305735675 4.5309551979054765 3.65339855058671 -0.053261430427301824 2.0248635529199577 -0.8642670716948728
P 7.526336669226969 7.89041200472015 11.234567977154379 -0.4242798441309725 0.19963021963424976 -1.4738617472786877
P 2.9826384654842037 3.9503871738138314 2.8783765020108527 -0.3754167998816825 0.37478148029052877 -0.06863816999368824
P 9.00442384521985 0.2639057131413629 8.169766190253105 -0.89941610879218 1.3155488983359858 -0.5052004310364396
P 1.997634564601548 7.56273866635087 11.013879600826577 1.195325400065838 -0.20747722648249428 0.6149909068987216
P 3.809891151454262 9.088808195967143 6.481873404829235 0.7162676888630374 -0.29658497718444404 -1.4736277768910104
P 1.0338628551972437 2.013764017319565 4.697890419849104 -0.5830773460195764 0.45315718928695503 -0.2537905077267371
P 7.995022762994841 3.2862929449146985 6.669082093916315 -0.9448019931261471 -0.33369062378748987 -0.904504836168997
Ni 7.178815245733858 2.7034273042745482 4.537570303542517 1.374220958255898 -0.71534106328371 0.9368241171269931
Ni 4.864589420974894 7.780071046137743 7.958787781371052 0.5691972456033746 -0.14027116094964232 -0.22134961358921232
Ni 5.055420777760541 3.9972714697293035 11.259323180673771 0.4656162409859142 0.7696980407680357 -1.3893580710076523
Ni 7.930495724747076 7.040303109149103 13.268464282769235 -0.5399560893500701 1.238393434899906 0.2374038388385976
Ni 5.370111198524415 1.3264168016644802 5.48883615066494 -0.42482877465590707 -1.3388171248353071 0.836978668292565
Ni 8.50551809604494 5.3615205117506886 7.838470184185258 -0.17320030757749527 0.24710563950739378 -1.2734067177502972
Ni 3.980099323557547 1.7420916220542007 10.447539267321838 -0.20768420028697782 0.27748219491672205 1.16531342708478
Ni 7.521381568477784 5.099629134723939 5.481003031435921 -1.167762402845905 -0.36493209830027473 0.5822016282828425
Ni 7.232463208035089 5.480064607327556 1.6524421307343116 -0.9175511278299939 -0.7667510423245698 -0.2072640820304237
Ni 2.530958425125546 4.012791915651332 10.484098129832585 0.5013736010911817 0.2991239415562139 -0.5861490429663647
Ni 5.440654485726498 8.35904273423384 12.93159125083024 1.8627531846080372 -0.04058666317311075 0.014638575848781242
Ni 3.63698858564751 6.200372008971633 12.05557649799041 -0.5886700096160055 -0.9324280449418264 -0.11777580806060362
Ni 3.629698958847033 5.626392331127508 7.33794041688771 0.6917429642487958 0.31376097474309833 -0.16127218868134163
Ni 2.408861789905408 4.943123615530411 4.964132504516899 1.9659444099862464 -0.33975045682832455 -0.7628069700751572
Ni 9.177824689314232 1.944309560449706 2.4614845907667235 -0.7041688487169743 -0.2916304613926461 1.9866340771251139
Ni 1.4462158203361137 0.715994526243389 10.312514156012906 0.7625100076600287 0.9817541448704641 -0.19780859304447868
Ni 5.891587108653714 0.9054657678513264 1.012601136116663 0.2766753827447106 -0.961817553847537 0.8799101775487684
Ni 4.9726050808817055 4.725357549085786 1.0544685078657814 -1.1556260245936871 -0.5532517780177116 -1.204189278214371
Ni 6.722927522057458 6.787242330664196 3.9722698952788074 0.0496531442507532 -0.6906864979598234 -0.4543319263213466
Ni 1.3215539746722635 3.5726276401622874 12.283476068425266 -0.15910577715764213 2.9037627727057087 1.0471696941617965
Ni 0.47114057570322165 5.939477188520137 10.871197613164435 -0.5590102777680437 -0.3455382671546952 0.20090471547129915
Ni 1.4831437778747316 -0.03389122819679905 5.453722295188315 0.3073406730390513 1.2626250537537609 -1.5497797387632406
Ni 2.0981483680668567 0.18977943595621063 7.73414270634446 -1.3102981914600078 0.06936013576137733 0.7376965481607747
Ni 2.6661394790837547 7.2168320336047 5.935925571614437 0.2194922486654994 0.48651313903958154 -0.6454458809544691
P 1.288935201584054 8.951523300350061 0.3747366453732704 -0.06346870997760683 0.1854323308673129 1.1868785548500658
P 2.348090293566243 2.1608668406780476 8.841636328651939 -1.1329008150820294 0.4800319021906119 0.8590924694724689
P 0.0009734881360130414 5.6013123239835885 0.6831552188760258 -1.0342853819999607 -2.0069074826621693 2.2729004459923696
P 7.942205264506322 2.118716188495038 0.7040893661193698 -0.9174819651549554 0.534229471278938 -0.9652134669029633
P 4.974459783396764 1.0581400806555403 3.2188823517616814 0.41973181974897394 0.4745587948911827 -0.20475365690374414
P 4.4430736717690955 3.6391385641848655 6.452864381113616 -0.4821376356797051 -0.2433952805353421 -1.084050883458862
P 3.4799017417850835 3.904361023838163 12.610463812780273 -0.2609039788430668 0.1854176755792936 0.9980870777025326
P 6.376153515995788 6.536516078230581 6.660222890509812 -0.02816232136682892 0.06792494597674754 0.6191442669454627
Ni 8.398646630724532 0.8427408360771477 5.922096503657634 -0.23187313882835547 0.4335553558956275 0.14303715373055365
Ni 7.21634298269277 2.7238843961943675 11.330320454760137 -0.9041510523740041 -0.5057740441517226 -1.5334200664582944
Ni 0.17825721192360888 8.558713916937027 12.024203420621268 0.9204572457331954 0.041265948628322474 -0.39647773431703975
Ni 7.26513734537748 4.795882381536476 12.592772165356788 -0.09658966090129173 0.06253102865468586 0.2313388635914403
Ni 3.820401132372924 3.753622614455139 8.564590832518324 0.1572653815147937 -1.3219203490799685 1.0077760228555226
Ni 5.952570834633905 4.299846346203272 7.859228088552794 1.7848325608711584 0.6883938452709049 -0.13594296588793361
Ni 1.4902396297855756 5.904699209518875 2.8236932281564404 0.3598222878775352 -0.2687481574778339 -0.2970529179597981
Ni 7.27799107972313 5.201877684820247 10.019168500710883 -0.11082508777438332 -0.2523782007602428 0.03681896860056239
Ni 9.412938222068851 1.8045240460187908 11.932463005968483 -3.5844898454599754 -0.640752846354174 -0.3359776200494536
Ni 7.3102223030320745 7.221390357198922 8.534798404606045 -0.1696994935130884 1.1423344496911036 0.6215608468067554
Ni 5.8389357029277384 2.722804793237841 13.208069263358501 -0.32475784007423425 0.8712923539727705 -0.4070138579616732
Ni 3.4697977653970806 6.911405898040418 1.1726278218760922 0.7919216280529264 -0.6122238856765456 -0.8723637326600783
Ni 3.7969912802301278 -0.04846033168448617 1.6876362643794995 -0.6308124473120104 0.3188833835713282 0.08233726474733562
Ni 4.891136580854605 3.197977732120567 4.26810140559355 -2.616726101331332 0.9823007614025533 -0.42006503471867657
Ni 0.6220026319205829 7.944752020198641 9.441064185930285 -1.4241450967798506 -0.6512863988956461 -0.8903375435296795
Ni 6.478549704103245 8.428248051959885 5.616811546941513 0.4924413315985584 0.423668950019851 0.9096789241707689
Ni 0.6635553501584401 3.9399141023979567 8.80103956653627 1.2200349869973761 0.28909509656530213 1.9168476524595954
Ni 7.064940202259575 0.518863640069533 3.3984074051060316 0.35700358748181743 -0.7121436393923348 0.2597855489679074
Ni 1.4123328967774418 6.639632001642389 13.262008810731752 1.1690566961772964 2.199209544066122 -1.6528087275319732
Ni 5.620782086703849 9.050302357184371 10.340187055727627 0.710592235744815 0.5998761627444701 0.02976231886409713
Ni 3.2710031833850906 8.439745362078106 12.800225716722661 -2.947846907509117 -0.1392180370947796 -0.5692450681221745
Ni 6.155563872587942 3.028221701426426 2.155294428494747 1.1579438740935863 -1.059097298837318 -0.011726544408308837
Ni 5.716866749834691 6.7194026645412785 11.16031713039732 0.46856529631190913 -0.9299592716863596 -0.7713764569117232
Ni 7.302729673966268 0.552021291898436 12.322479262758094 -0.48817304324050764 0.4520603566783505 1.2312624802820795
P 8.49231372142281 8.230099386246673 4.557774565368243 0.6077751058765726 0.07535491989223152 -0.033075956618362386
P 8.830081808804398 3.919844560257404 10.869077162229308 1.315879285092211 -0.07318979392011267 -0.42892634176404837
P 4.532090165116184 5.743524638222763 9.477083246962767 -0.07640392998203614 -0.12351116788248408 0.19547634536687625
P 1.475743422565893 5.657174856452053 6.931677519708733 -1.1053483593850577 0.46625156057706796 0.577647947473889
P 5.9159750626203715 2.0457368741089983 9.42094204774826 -0.09229874683542169 -0.31574226683918527 0.4174597358853456
P 4.326467325088557 1.1016840665687684 12.684418460777465 1.3072630041781097 0.5094594634231097 0.18729818043145807
P 5.7744086646799735 6.341034124093744 -0.011250939187115653 0.0007188804438955362 -0.21970385045567323 0.26346402626075915
P 2.7891034876193928 7.718146127836477 3.045867211971428 0.23279642197357325 -0.6957788248810662 0.6157889773199846
