# total energy = -340866.72129446093 ev
CRYSTAL
PRIMVEC
9.21042934762794 0.00000000000000 0.00000000000000

0.00000000000000 9.21042934762794 0.00000000000000

0.00000000000000 0.00000000000000 13.48039435471481

PRIMCOORD
 96 1
Ni 8.686678262269272 7.554771760693867 8.778082562899362 -3.075517863196245 -2.6243028852373254 1.7281639045345207
Ni 7.8633119326817145 3.195033460144491 6.6187922748675 -1.583941472246614 -0.954627463857001 -0.1641734214885366
Ni 5.883290677920096 2.6543720482856705 9.119203707584598 1.150576892205554 -1.213679991313626 -0.7318074363698494
Ni 5.835893808609088 4.701472859827715 6.957487392468298 1.7237097254179088 0.5629656628713658 0.6360973498600335
Ni 6.017560316632858 6.965249021261222 8.373670111015437 0.4819106072705636 -1.0309041242325534 0.9522610205073535
Ni 5.230584393311875 7.18291909751988 10.850935734836584 0.14167061240033021 -0.08299289605346352 0.4725443355643152
Ni 6.586525377810125 3.5848372500746284 11.687407584311943 -3.5649656593841184 -0.5271663937845694 0.8748219643925836
Ni 5.455595181743264 9.315151907321088 9.370073697391344 0.40561389229035305 0.6378693541587918 0.4651009919123925
Ni 3.1873243307987242 5.8794499288912005 10.273543130826132 -0.6701027602712007 0.023709684912114004 2.4022603593461462
Ni 4.956509647861492 8.764487969214354 7.275759304081877 -1.5811644237221092 1.2191687823423392 -1.1524095745389185
Ni 2.0901411477819085 2.110818561618522 5.55795344597063 -0.11924596484822689 0.6761744203865774 0.2139463791466057
Ni 7.374274977194483 8.220123964766529 6.804606239216719 2.0897895641693816 1.5495912769015183 0.34310446090222196
Ni 7.843251617609935 2.597902906088665 -0.0020677413836613545 -0.24392852733099282 0.9977890868461395 0.9084964738268935
Ni 8.412898250557317 2.949299205729859 10.846068943980786 1.8524847128024935 -1.1621183171862501 -1.7426780389902954
Ni 1.1907887762557932 8.711076689553543 5.655686232590537 4.00521308258794 0.06872095951548164 0.532817935643392
Ni 0.6824384715151125 5.975477865042887 2.889684701918063 -0.15430424200394072 1.0489111023329356 -1.5221774036649398
Ni 1.3588238488772528 6.103539674390001 8.902532962907799 0.19643459551508752 -0.1805392644410697 -0.49268250107508693
Ni 9.16076669096059 3.6575443791731703 1.9409202191444355 -0.4852725817642611 -0.002649007587072857 -0.09453406392384364
Ni 7.126560480474786 8.018701085838734 3.896589098768412 0.0887349407435633 -0.8057279378083995 -2.158470157365231
Ni 3.9108588169230067 3.4618595977154016 10.27897636308547 -1.847395214094728 -1.9468457414835825 -2.957976539743951
Ni 1.7826141230199086 2.417535068599844 8.117165180547113 -0.26798762516272556 2.0861864201991556 -0.68141818528402
Ni 2.476472605856187 8.28056280200299 10.986763778191287 0.9108482618885215 0.8712098215612931 -0.5929712080945206
Ni 3.0293838887184354 0.9536478524022122 1.8692722894183702 1.3183228615366973 0.6459493029534489 -1.3863156846369027
Ni 4.06301510938664 5.315716391571037 8.328538086275664 -0.8038723726568995 -0.527515292483556 -1.8850420779132244
P 0.3631110447007878 8.279549654777142 10.93183185664877 -1.0934822040750911 0.7675028328889298 -0.10204322781669524
P 3.906511494281189 7.541287692160769 9.073950105177722 0.13980810527029472 0.6980871612992687 -0.3318281166574544
P 2.307728330176634 6.497635524386002 1.0371496046706925 0.0089770066876297 0.8465107761527163 0.8244206291218963
P 4.578264946735342 4.827397849571225 11.630209897155261 -0.7515041434678283 2.107995545654447 3.161940096646232
P 3.7401435093677144 7.656998315781872 4.904854797073127 0.2758559721672088 0.542885347181723 0.882842520704215
P 7.365405333753655 6.182951996037788 10.253942416177713 0.4500690372799346 0.828935229162798 0.2947816054271181
P 6.5628177327252954 1.2001834141681966 7.286301561488285 -1.731875806168469 0.21061962876621793 -1.4838962486965541
P 4.421973171504385 0.19920408650318994 0.15118827634148224 -1.605300140428048 0.7577023018587401 1.937174022721773
Ni 2.8939721567692627 7.189909813378227 7.036563533445691 1.255478929627283 1.2921917116672843 1.2617063985942336
Ni 1.195790039379749 8.710975374830959 8.613958238569673 2.197137749138758 0.026204169199193578 -0.12004712059328357
Ni 7.200400492380411 5.652578633735983 2.75652491993907 0.9440915973226837 0.8212021221845986 -1.817839097704166
Ni 3.456710967722232 6.935913803858276 12.697493263451454 -0.17655996807834756 -1.0144822312311044 0.21490694328766213
Ni 0.30229918507662706 1.1576220202532783 6.846369088909082 -2.451985751595732 1.0390763756307007 0.5100292198836507
Ni 8.290040333779327 4.981994905806219 12.251858614076594 1.0454167160264318 0.06871376042663005 0.12550634393564192
Ni 1.8704539875008814 8.803816502435886 0.26542338918457825 0.01981523495371426 -1.1515071173293072 -0.07929307860437311
Ni 7.222910781652876 8.528931239204827 10.521623281590067 0.14475953573829908 1.76951572800843 -0.9433650035693043
Ni 0.1657444388481121 6.407014110248611 0.43619856453048916 0.6999465831055106 -0.1751728579228338 0.45847525906575876
Ni 4.748749993557487 0.6663865352859587 11.626611382417636 0.2393859022656329 -1.1471943488865661 -0.037725025354599546
Ni 2.8440976819695916 0.39607148708640266 4.123464078095361 1.2067536965074377 -0.39515438751992593 0.8482393288080489
Ni 1.6527286486662676 1.8492515791926925 12.981444352267983 -0.9232389222433907 0.4940179320570589 0.3657867329910861
Ni 6.759266979817113 3.1482168478810135 2.508485295064168 -0.44080380992792473 0.6610607046735906 0.09195113368801583
Ni 8.26419586909089 4.867702688301302 8.465930060529903 -0.2473856326416578 0.4447049447545438 1.604537808340727
Ni 2.088170115906169 6.258366991358141 5.124248144658658 -0.5347835440101951 -1.192759696221191 -1.9711030713690505
Ni 3.3922379624410315 3.219164784978312 12.451557300634585 0.18746941590199973 0.07282109772678426 1.3826336077996253
Ni 1.4221547609220433 1.9061720324266664 3.148453555914689 -1.3569806831182114 1.7798636469016573 -0.03899977830196509
Ni -0.1181108615034287 7.3892142935610705 4.509367251205986 -0.29613426280027066 -1.2140165487174381 -0.3846205778681376
Ni 8.409361445696177 4.98550407937938 4.645532396274015 -0.35121397738323384 0.2155350637899643 1.0359159756248484
Ni 4.048388947617133 4.321975540313244 5.549541560867298 -1.7186361675497435 1.1327892292048298 1.0073823869615297
Ni 4.9683266286866035 5.263889305754278 1.4163982425933648 -0.0027189415930598333 0.02369194430030113 -0.40349967416082766
Ni 3.37959204297659 1.169899522544684 9.208134086897756 1.14129932355837 -0.7536957518025084 -2.5663710459175477
Ni 2.8646829915129466 5.018505047654029 3.041095870649232 2.0339608872355357 0.6124378014595646 -1.2396319352926974
Ni 5.376532856409861 2.7573170168610956 0.3542192962295777 -0.0668813352035816 -0.22669827949563537 0.47475934093776306
P 5.516227437995569 1.5841017397590929 3.433389239626156 -0.5214539167808245 -0.16420093229236238 0.16821802387155546
P -0.0039310112362880454 1.4056312507114044 1.2041217937479454 1.6233945360359139 -0.2856179366499791 0.20989586322631593
P 8.544800808933328 2.7384356367430303 8.562167073427284 2.1532276780193693 -1.2031315263738183 1.0553216338449696
P 7.986621160496672 7.630656487909839 1.4077174129537173 -1.3612564276754298 0.9082709880796487 1.00247646501948
P 3.96990687933126 3.095422666985036 8.004226896153103 0.48120406812184224 0.35623457052627683 -0.4179970964460543
P 3.598864733937952 3.484489622569103 1.4173423115992683 0.42012956940802487 -1.0624700719642928 0.6297454395000767
P 0.8617931617780861 3.886893279817052 12.089069801999159 1.251709949503154 -0.4446044146209375 -0.5663415213221342
P 7.054949392466024 4.537821951565377 0.8237411940611217 0.3066729575480654 -0.35909389435194283 -0.008365084135243658
Ni 0.8787366675659855 1.2463460859495359 10.0386477096422 0.08214263223802627 0.46641071186275157 1.174582511091532
Ni 6.281079910075776 5.718985829175619 12.681141988269209 -2.465814172838392 -0.057157165937282206 0.1305297652921623
Ni 5.484543561114522 7.65467728759175 0.13931050668281997 1.018150167000995 -1.1548773193531208 0.7250446637247191
Ni 7.935429594303399 0.5542827157888728 8.695514748164527 0.8905630292769242 1.3637311144681676 0.4244816757291335
Ni 6.608593566474948 0.5280772022708626 4.994351617789826 0.17709861419063694 2.441844549396672 1.6848197332209307
Ni 5.101343649011046 8.884859070074356 2.246655815402551 0.22055308582984595 1.363660152020916 0.02329136642777279
Ni 0.8004553866394172 8.867534252512366 2.7507960328983687 -0.7159056775379283 -0.3109682424893096 -0.8877952367238001
Ni 5.220922652949021 6.910327231190966 3.3140874696108904 -0.18112778995468803 -2.0310046328206894 0.76901104200334
Ni 7.254005191057067 0.8777198361684078 2.1488825028936103 0.92128642650271 -1.2104895094007861 -0.164534147262065
Ni 3.1180803231267156 7.65680489676603 2.8883362950647533 -2.032643453975693 -0.783848878347121 -1.886798912703331
Ni 6.6610653823445185 0.43918182258914357 13.159547345185569 -0.05992135894598067 0.2926866705713024 0.183013179902859
Ni 0.6459089877657169 4.191169023027014 6.2768891647324985 -0.5560280552112682 -1.4464625293301283 -0.9225709496420885
Ni 5.759649874649405 4.827388639141899 9.972944191003062 1.5677669193692805 1.6761743988411069 -2.640436043353762
Ni 1.8911129804788431 4.393945835065715 0.5158650940276707 -0.6343109473835721 0.59483345811424 0.0012886369044364904
Ni 0.9532057517945697 6.291248224051554 11.6575750037254 1.0990807812087908 -0.06105855787421742 -0.539152105391536
Ni 0.502033792308988 6.953459671724088 6.778427435943753 -0.8004510056801764 -1.8337578258169516 0.6147502516428252
Ni 4.460104348913553 1.4980486985673422 5.783790409912552 -0.4237622810646057 -0.18496618986417177 0.5544069746680774
Ni 1.1966834510243598 3.9463466011156445 9.859169599626261 0.2770703041902841 0.09854241375228835 0.647361095699311
Ni 5.701605749037673 7.218287146131281 5.81071065274625 -1.3078577003393153 -2.198415330299601 -1.7385969269423864
Ni 7.794602129910606 7.392944517438054 12.152265320732859 1.6731602946051312 -1.094014165319161 2.9934541638252705
Ni 8.449905755588727 2.5190155789124535 4.187252748477648 0.029545060646968473 -0.1489568616490983 0.6559331536390381
Ni 3.7665958623916582 2.900428667726709 3.81356352569608 -0.11520676178184674 -1.349706518054301 -1.6710468478065545
Ni 8.81249272686087 0.9788015348912062 12.218386992863394 0.19658783326350013 -2.056735204817574 -1.1399816331882109
Ni 5.9824041078959524 3.1759310297226038 5.156642145640731 1.1982340890722007 -0.6674360120723151 -1.5464640441264463
P 6.20023076145315 5.278579940529065 4.605738736371526 -0.9943461226028617 -0.10406694311494337 0.5063695116438762
P 2.1949834647984665 5.088329312373569 7.01794741369221 2.68758647578732 1.4498502148554384 1.5557516400759592
P 1.165395622604326 4.11542245225093 3.7706816088406208 -1.1997641525634821 -1.9002313840591532 1.6031157311822197
P 2.9628753785562143 1.456859658621981 11.076853750556573 -3.442336379885955 1.5188380548790614 3.292831359042871
P 8.973730502639828 0.45997528783526326 4.620041612071693 -1.7991350935367596 0.843886965376624 -1.115812235030859
P 7.7605327518341545 6.0718281662209765 6.8489295882616785 -0.8725966746064907 0.11250118992522562 -1.5091043725310656
P 6.614396136950255 1.5131169609444914 11.156064363802123 1.6596416912934062 -0.6458207477953846 -0.4848802314218489
P 2.456633341088229 0.5217947684276759 7.2869214233819175 1.3407590790530264 -0.000933053337230651 -2.295501985441969
