# total energy = -340871.0359649566 ev
CRYSTAL
PRIMVEC
9.24632213154388 0.00000000000000 0.00000000000000

0.00000000000000 9.24632213154388 0.00000000000000

0.00000000000000 0.00000000000000 13.53292707207742

PRIMCOORD
 96 1
Ni 6.713467643622208 3.961290705078084 3.677356503636042 0.324911334932963 -0.22470053233931622 0.012951932174977693
Ni 6.268996953331175 3.585326013213643 7.587452174014658 0.3417050094515341 0.4242525904374629 -1.030507145904451
Ni 1.9326569422496627 0.2477551933918912 12.862708085896353 -0.5092692017891746 -2.0821315334034916 0.8979081567880859
Ni 8.348679658974175 6.186408806759935 8.056692835851782 -1.367237327849213 0.8360466433965987 -2.5578149288174203
Ni 5.329866537864573 8.720169131073671 10.142874781107961 0.4218545225189316 0.875328471715357 -1.4886592173028361
Ni 5.6443339432483475 7.81991025257365 5.994436672958762 -0.8118931860788469 -0.7623927653558741 0.5235717344547757
Ni 6.221082513616423 5.424216005801534 9.535801049039293 -1.1887140653969077 -0.7143051658200278 -0.1134031329142047
Ni 5.671629085285774 7.718376392576025 0.7906844170404236 -0.6206275363592085 1.044445610362414 -0.36113997824769417
Ni 0.790248915282306 5.910951633170168 5.9963589832668855 -0.9258629901297991 -0.3218848894018134 -0.3345072061515142
Ni 3.27102504162278 6.566377155976072 1.9554537487175747 0.2992365558746782 0.8794856884168403 -0.5351537828654203
Ni 3.9669494540370627 4.560137984616028 10.947583094465514 0.8600905717196801 -0.13836185974207138 0.574422755668372
Ni 5.2998159919222845 0.8250021405065181 13.247463255923051 1.036489074519499 0.756512138205381 -0.16869779172145138
Ni 1.5859476126502694 6.800059447545144 8.089564434583915 -0.17706930361459824 -1.949481893554849 0.766457679453867
Ni 7.735056757154453 8.591256912142164 5.456435738844765 1.98995697085076 -0.050244240867532826 -1.4864511539079237
Ni 7.48990902651817 6.0447921416362105 4.563817096071547 -0.6707465645027867 -0.03317802941386544 1.8480796417562624
Ni 2.6878410312621392 7.81586960993464 6.345629544012746 0.4739183330937064 0.7551792783265703 -1.165874698904889
Ni 8.089200129503876 1.6949802396507239 7.115030777468565 -0.08828654035223504 1.7697525266095844 -0.32651570330560536
Ni 1.573520556112904 4.597058547676816 11.570882272078656 1.5755650752574608 -0.26142771255702074 0.8636569489146998
Ni 9.02486317428483 3.347519862109107 11.729555627079224 -1.9018488650579182 -0.44752724469468735 1.6643534949467789
Ni 9.330925673126591 6.7728197834386865 11.977641838792572 -0.4705195918248025 -0.14742088462054612 0.03089386136537905
Ni 8.642999329093872 5.470392137012547 2.6069828715049925 0.11272410456930908 0.3840847599693256 0.39392000089219253
Ni 1.192932703334265 2.6139351808877644 6.551681976694201 0.78386687606925 -1.6928472315110974 -1.390164883179664
Ni 3.524457476617307 1.4674282594538797 9.093571667159463 -0.338401656109914 0.7114923789615811 0.7653276796144819
Ni 4.370939747363374 8.134257455773653 12.080397137903727 0.37387465220554317 -0.7269997305685608 1.6515344888052397
P 4.6762440478152065 6.404002498347596 4.700283559936855 -0.6971715914635348 -0.7722136081010378 -0.6377356567944049
P 0.7444084255536635 1.9999794114822194 3.6653658734889767 0.4469158363629335 -1.0783345498003751 1.5872779928190146
P 1.4212891135301797 5.4738132760890545 2.162493688570304 1.5778212182814892 -1.1477203965933653 -1.3647454146652949
P -0.046679131118478205 8.6195968885462 12.978496075624635 -0.9225652932151336 -1.3867733409996117 0.06563357883940954
P 3.2759533311573157 0.3791306324584838 11.178183586969181 -0.3071282999179291 0.8614468286372583 -2.0188448575297038
P 4.720839057993564 3.402332057907843 9.082149685804845 -0.03211359270509308 -0.045056783129322396 0.6968838850197868
P 4.7993033450293385 3.1302682844290963 13.223644730893103 0.05334704816257264 -1.4659175527309465 -1.5283665631947871
P 8.976236767789292 7.495577021798977 3.88213664243391 1.2472043483233166 -0.8156783641528919 0.42644934097846554
Ni 0.6564925483449014 0.4393611728486603 10.908432318579719 -0.8225347249530931 0.7719513555785866 0.08817341181313847
Ni 2.275778698979638 2.3068093550357376 11.63436566848806 -0.7100939559521576 0.5767575744491357 -0.3812241505920789
Ni 4.515940566276291 9.252054547930367 7.595503871062826 0.7556461906606599 -0.5398753567108057 -0.4628219660702287
Ni 4.161935888754293 0.5983063697109834 4.901991145991147 0.3014502756965453 0.12842017514832724 1.8940905612687378
Ni 6.8877885490529716 3.068669288408317 13.27595024884416 0.5166611233778714 1.081493407144331 0.8748312203639642
Ni 1.0665817155492232 1.1851103150674414 1.649609463070964 0.7024192130157192 -2.421272381672275 -0.9190320832508946
Ni 9.335086517949371 4.053393316810744 4.25609210856504 -0.5948208597087496 0.10097184912938739 0.654799297144911
Ni 8.409113618444577 2.8517690709577854 1.8459181218096554 0.00688078628023331 -1.0697933450985833 0.20050182360592567
Ni 2.3369246252308256 8.554151422644807 9.298473857405467 1.4605791712371685 1.6366339175443234 1.0379412335849931
Ni 4.143064145902535 5.751295394159241 7.0129116252992025 -0.7527755539810842 1.7303650259508976 1.4104501157912612
Ni 7.552488132652758 8.803238086379988 7.769930184562434 -2.097938418528761 -1.26399056664272 0.08664746208691528
Ni 0.11808477607045503 8.381689027901551 9.05420452734288 0.30767877310476044 -0.23956536526629063 0.18058451585670837
Ni 4.691740883199599 2.183814782074404 11.180999091965928 0.5576547921814138 -0.012607147241049256 -0.15963670996044765
Ni 7.020195877635613 7.760058811378437 2.9521267988188384 1.1904842699234528 1.0861447898734133 -0.9309666299049515
Ni 6.241507638535352 1.5266232117992757 8.881009823910816 -0.6137449503067623 0.20608086035559992 0.12892308292667476
Ni 3.8083657883582296 4.682762704704226 3.349777813899601 -0.85547158489043 1.0164614664446625 -0.11805143031949347
Ni 4.823981777989331 8.090827482145675 3.3434986367459367 -1.4805021354133405 -0.9588350741804454 1.1145917323601966
Ni 5.226474167179441 4.48625062688531 5.600101388885663 1.41583426292131 -0.40230231141861683 -2.0636980092886525
Ni 8.663942248035191 1.3193021837629635 13.240967714838602 -0.22259839839464893 1.1068043751052938 0.5470983568218062
Ni 0.8449279640467132 7.33690089290186 1.0637773061386704 -0.2081835085208995 1.368796959026849 1.7525875847945238
Ni 4.517419977768835 0.5047252711179626 1.8719964478944657 0.6255036335045873 0.6105616674827743 0.5286715175751863
Ni 2.277711180241773 8.910430695336592 3.3850044508014268 -0.14903990828120783 -0.1692400373781666 -0.30213830290250543
Ni 7.247294788062867 1.9026618742383437 11.34845552807129 -0.8849446546488823 -1.4041524557080076 -1.4424444093096707
Ni 0.8329382585318311 0.4404013840543549 5.624202851363562 0.34396860867473017 0.772371730945457 -1.1879000541360445
P 7.84470888771741 4.308018527321134 5.969279280528061 -0.17503633234496951 -0.5305911031954024 0.2341112841302549
P 6.0389577125624925 7.062238902989334 8.09066012372058 -0.5210535960186123 0.20701699901662413 0.46055502441292295
P 4.699165679627802 6.082581858948869 12.422184650393865 -2.497973016959124 -1.3423431357106945 0.9574011699473963
P 7.373257430331115 4.841189182911976 11.379635049908826 0.6351442419181449 -0.7014632768603533 -0.1589078022142231
P 1.021533635601274 2.790318016086261 0.19922772253991647 0.3165117980153581 -0.1840915005687023 -1.9358187942454594
P 2.29185805263922 4.532380526487181 6.904228509263862 -0.48062145614549484 0.8629959182919332 0.701754839958843
P 7.633485911869514 0.23508680785480482 9.92247668010975 0.26825527700181545 1.3012358241474236 1.0980022034326316
P 7.059354050578873 4.436348227977453 1.5652996513752764 -1.190570401879356 1.1053182774780705 -1.1250602359916881
Ni 3.2031570394023476 1.731456979263749 0.31978404043510195 0.06735518951620657 2.10070389708904 1.2816177928061798
Ni 2.221132936973813 3.7551809452012916 4.959723330223291 1.7462770691954637 0.4607787103879548 -1.9210377792815432
Ni 0.15979678310271853 3.960717433124723 7.879749673550485 -0.18310805360951046 1.3098639321360668 0.7932686289991242
Ni 6.610870456614317 6.687466986640756 12.221883429889672 0.8325286029410114 -1.6677594353045342 -0.4004747712915748
Ni 7.986723144679756 2.1059977375666166 4.580259830178985 0.5853705129291272 0.05702475412447598 1.076506752563017
Ni 7.46112522666637 7.431472272562702 9.989357175158908 -0.5813531642396181 -1.1083454943401685 0.6496180100542877
Ni 3.845129163947935 6.7890100929602095 9.490208360735652 0.9293550624434574 -0.14164824380282703 0.31518150923970883
Ni 2.5558775261272606 4.842705579691833 9.106333440547017 -0.4393303107061917 -2.055037505400177 -1.072723631371501
Ni 5.140168999233186 3.1321637804039177 1.960217453723565 0.3917947270190736 -0.300253941395599 -1.388919440808337
Ni 1.8215346465159905 6.557648628170066 3.897617759071195 -0.3182997431537163 0.2925630005092445 1.2574568792892602
Ni 1.5839596534571638 3.3004098523934253 2.2034308538333476 1.26370697396403 3.43407105455337 0.014109442818188603
Ni 5.66323342506559 6.060520135066314 2.39576082028928 0.05214685720688439 -2.396252976809802 0.33344225522210963
Ni 3.606352149051417 4.582930167923026 0.4502246763648436 -0.8764299323096518 1.3349663836306491 0.12343480611859385
Ni 2.321085675938782 6.71426282729945 13.10659924139616 1.9119671844388426 -0.5220349860952751 -1.8087751877296847
Ni 6.305621634093455 0.7438064900026349 3.8152838863502363 -0.7509539273913132 0.337412038503135 -0.030791531459559873
Ni 7.87082974688263 6.6434267557721025 0.8465118589759175 -1.4650040397777415 0.03964795340892527 -1.3882920916369832
Ni 7.019789039475165 8.778097337328578 12.379136549857398 1.3542242034189969 1.7691418896087792 -0.609599560679821
Ni 7.659218425517942 3.5131492250211775 9.360360414035108 0.8962361684023016 -0.3073645842984513 1.6867897124631077
Ni 3.1757971731121217 1.9104472772178536 3.303414906987654 -1.4352172954336122 0.491562785648347 -0.7091351915833142
Ni 0.9530461298183394 1.5531416628031176 8.531224243039114 -0.309447434969409 -1.7646416877455802 0.5030265633135724
Ni 0.41664758327720364 4.9000142823842365 0.13591353381996968 0.09100753882782392 -0.0792578544910635 1.3333237058209038
Ni 9.0581961644762 5.519601061783275 9.999276629216412 0.2589895354291733 -1.336653284414769 0.8076791479974993
Ni 3.920801061791534 3.0012543559574762 6.829188135201141 -0.5094944304261031 -0.8893718371823006 0.9110914882475794
Ni 8.738319660822814 0.18472209285552765 3.1026809586218915 -0.1480502906744289 0.7788907630108973 0.06991960780927313
P 2.871519214383241 8.556333554596309 1.1827562015299316 -0.4143636134585251 0.5349077282928852 -0.02517649926562761
P 0.7610481063160462 3.0166587281235855 9.9567158098403 0.6720655404245265 1.0320554642281774 -0.4818980088650733
P 2.4987167645841124 0.6991097702841649 7.173277057194368 0.2803176074829882 0.6027655684771233 -0.6157285563956943
P 4.785951656309134 2.955753206239936 4.084210382832607 0.8655168849415739 -1.3282586325931705 1.832253216246967
P 0.3300345128140626 8.052353537017716 6.8149922572980035 -0.8154816747610536 -1.313877424170834 0.6234215541645779
P 6.241711057615577 0.787965998422875 6.2697912123762345 -0.6161227065103195 0.31086257014938073 -0.19714036333286047
P 6.856101404147056 0.5822649259708979 1.6932123429171344 -0.18307720037157502 -0.37667946864419 -0.8225514371236413
P 1.8105222772183698 6.292861709970267 10.546845657158434 0.8100787585779274 3.236530113347981 -1.1646549675651747
