# total energy = -340893.994417419 ev
CRYSTAL
PRIMVEC
9.04775706389266 0.00000000000000 0.00000000000000
0.00000000000000 9.04775706389266 0.00000000000000
0.00000000000000 0.00000000000000 13.24230702431020
PRIMCOORD
 96 1
Ni 6.323278370441881 2.1733798229742316 11.51907230228798 0.23163968266131074 -1.316269064331462 0.055265348231208045
Ni 4.710198999973457 0.14407376936662103 6.140126433484098 -0.3096826909086666 0.1114030717650404 0.03433065496106991
Ni 2.7837596109010945 1.474693925976096 4.784458466182727 0.5588315860983343 -0.3810999663093888 -0.21135393582908116
Ni 3.3209339963181557 4.456617512377089 4.785531530172055 0.2606890346187833 -1.0026191612449311 0.39296740717093614
Ni 4.942174443670011 4.417205482549788 2.801238068022394 0.25816446842471663 0.6702475133791812 -0.06530190653160367
Ni 7.314252059811682 6.276094317285458 2.765351044352282 0.629256158568484 -1.028787592110183 -0.7454245129326518
Ni 5.359701289501158 4.442123005539776 11.756427542342504 -0.8168289328175674 0.10918600950906357 -0.7819213223071049
Ni 5.53169010377737 8.125989681486615 12.418833743013387 1.4013648656605413 -0.8289082325796047 -0.14372466671588152
Ni 2.046159310714891 6.6824200398553115 0.2645120829210612 -0.5274024210547756 -0.9651656443841634 -0.4844254032726174
Ni 2.679448019560654 1.5573994734167214 0.31982645058685333 0.6415838268959015 1.3612217177827524 0.522230647045849
Ni 0.8423850892217697 -0.09091095833373346 4.643229311641106 -0.4573326608208833 -0.577363840574567 0.11942311385603949
Ni 8.626276361300851 2.5439397618188044 1.6018293893189128 0.5002531143334933 -0.09611092149266029 -0.7735559810615451
Ni 6.6306306783467095 0.6372950556794471 4.831667853058964 1.4779976238239318 -0.2501266857219047 0.07494200072452899
Ni 0.968164293778748 7.44856601361937 2.3283018530761455 -0.5950723135979236 -0.4006578338366584 0.9434783892187171
Ni 7.481689852278174 3.998430046242017 3.887464734347169 -0.045930958204159614 -0.5191448090316736 -1.4188715070857372
Ni 7.652475314863147 3.8821935110741235 12.629863629076741 0.5595201275249266 0.1507391503605017 0.5270627783271697
Ni 7.954896595161024 8.803096677856166 6.837215401358147 -0.15808787741608904 -0.49897604739328255 0.38509494640139486
Ni 6.989853777573833 0.8069196910314446 0.4810321479787259 -0.7714296787471617 -0.7488636205211878 0.2752929005748872
Ni 1.6629777507479382 6.544052690877138 9.163477889989144 0.9224174547833598 -0.2940233871048549 -0.7445503378578144
Ni 0.16353730439060887 4.909113939310744 1.4135365167899938 -0.45095606787057824 0.4890006813481255 0.026524271542773675
Ni 6.458877105754499 2.0103482882042254 6.924296444121198 -1.1566709209184336 -0.7324730949783063 0.8709259717722873
Ni 3.3798620381604914 4.455712736669391 0.31668054545118923 0.23662916545610216 -0.4376320970681625 0.18484791911875262
Ni 5.916174540763406 5.710573308946235 4.829734347371615 0.09956956946522207 -1.321113536907957 0.6906381612203912
Ni 5.365537092815807 3.114708469262673 9.419332174163246 -0.5636300359282421 -1.440987622258486 -0.39882926526835183
P 0.3667915480220133 5.586772848861991 12.467658154527864 -0.14639115780445114 -0.8264772545406089 -0.45673462222556827
P 4.124664352979966 6.17138462463363 12.45495962747033 -0.28586759076693996 0.40209199518002364 -0.12517595717941668
P 2.4745977515808715 8.62014198200266 1.2620634916858229 0.9704124946053996 -0.7380387619915418 0.7168089060784881
P 6.303708071884384 7.5998535597034635 5.847524683941862 -0.1943016083324847 0.5096587239181094 0.9098943826156846
P 4.712768562983318 1.0881466003765088 12.765636986100947 0.31278009888706776 0.9581390765546856 -1.9262758877520307
P 3.845984387252071 6.1038793090823225 8.345394171500418 0.254835918272116 1.468130501221865 -1.1603717668087887
P 4.769950387709798 1.0135659387910068 3.661034660963094 -0.16966478362041104 -1.1730575898065734 -0.46284227778520287
P 0.3346240572862454 5.653563391604218 3.65793580416423 -0.6053135317099575 0.02854284463469923 -0.9463809075774926
Ni 1.567831537326473 1.126201466642264 2.4809990397128305 -0.8354398630505353 -0.046828016097132254 0.6618189229958537
Ni 1.9661771381544355 6.533765391080618 4.784485609453958 -0.9769418110834853 0.153740913301303 -0.34591904753288166
Ni 5.9083210876205925 5.74330809405073 9.414803771746222 -0.4756867378480388 -0.3168624964865575 0.825781514025165
Ni 8.806571016573724 2.148245153814396 10.279817301417506 -0.6773221608377754 0.6963562946510911 -0.31559417129709516
Ni 2.0923300150786925 5.151213823176431 6.999605450151396 -0.10020488905637581 -0.5547116503926899 -0.2200283236746275
Ni 0.5715070044213492 0.026980411603538368 8.976417321974107 -0.9969665909448442 0.2996862418175871 0.01934909395057313
Ni 1.4258993720599717 0.9106838930687282 11.693169243963128 0.27990828785971145 0.47506093133858185 -2.5316169302658142
Ni 4.246392876693584 6.90654203040905 1.4490127722888113 0.11257343792405773 -0.5087552382672335 0.1003756103062852
Ni 5.722787781000151 7.736619455679012 8.120937413934833 -0.9990720673236212 0.901273473715893 -0.9310787300027836
Ni 5.1702503040663865 2.664211596643028 4.916338573336709 -0.2271780473455313 1.246393679496563 -0.42383581461501846
Ni 0.995271373981364 7.5217533206150184 6.9565679840633505 0.06629615212407292 0.9148470986352696 -0.28658390010767415
Ni 5.019758960605068 4.512668367468947 7.23956915857121 0.13097559458032926 0.3298457961201029 -0.3933469019975419
Ni 8.330351370584241 7.1466061689324185 9.317935770153007 -1.409046036354883 -0.1608317587098133 -0.800084366369377
Ni 4.352713070105112 0.46613139684865634 10.373798163727455 0.5589894518324373 0.5313158971765689 0.3069753192798326
Ni 8.25634071769459 7.112821844006995 5.085297293767841 0.4094211818515852 -0.17091382553616372 -0.6664371384941555
Ni 7.0326858595762305 5.919060775270961 7.302126255777121 0.06717392674333593 0.660101940304747 -1.8442286434412882
Ni 2.4474544803499474 5.447898825487507 2.4350744343415225 -0.2595433510501143 -0.6667832089796646 0.6665952613385745
Ni 2.3092318954850057 5.220972030239906 11.320053313744308 0.2511782669148706 0.004577334958037278 0.40764454956713664
Ni 1.0638714681389856 3.3438610127512094 3.6587564357311115 -0.12537213235062278 0.27388419315281864 0.4366424794613835
Ni 3.47060199388547 2.5999001393398933 2.591122005423812 0.4092316915485984 0.05682960739453439 0.5449160044585066
Ni 0.8923386608194543 3.1420688866634436 8.260326254686996 -0.10293334373113242 1.277327392960942 -0.9714005695502819
Ni 3.8186239698512994 2.548508879142677 6.922905803858467 -0.7575284952850373 -0.45100748993380385 0.23867319246932445
Ni 3.9092191614630463 6.676756143925125 6.063294689937845 1.274629791524121 0.351626125219988 1.1758824608498781
Ni 0.8207745214434158 7.406412513397745 11.217465320127033 -0.24419772183197946 0.16387337374961453 1.3483623453215812
P 0.02916996881616623 5.80287852664553 7.668712419713486 0.9238863260194025 -1.46455718204831 1.2656527848364914
P 8.421923719960303 1.6241176341023322 7.7573171047682985 0.09496240971051387 0.30237278751081476 2.162418600490018
P 1.8652222646895524 3.2395856124390767 10.342891025552511 -1.102165847892018 0.1575050083294255 -0.15857458724452045
P 4.018796547422286 6.268657060968185 3.7836580078516233 0.192288691667514 -0.44871020925919497 -0.6036849949675991
P 7.0306682097480655 4.0722868872613605 10.409406516479597 0.6594581360731611 0.2665192681473152 0.653845417872074
P 6.047982265860774 7.961392884742293 10.252604362457086 1.5817007558415535 -1.188787084726688 0.7674565530320266
P 2.647663248949242 8.500621111015827 5.868976915971369 -0.7065527755681187 0.29996340673837374 -0.27946682944691875
P 6.746025772106443 3.951607903368673 1.727101014703873 1.210604951932728 0.07365207826851186 -0.6706054109392321
Ni 5.095434400796883 2.7901111363691307 0.7571968372392227 0.5523323515272358 0.2589327140493089 -0.13113423164538063
Ni 1.357751665756199 1.0365472417665222 6.981794940345371 0.8340566095497635 0.49442648034938724 -1.2396519898973555
Ni 6.895413289204372 0.6681931460973155 9.24019020314198 -0.5007339106246538 0.895573080897006 -0.9041240557908107
Ni 2.6139694015945882 1.7331159636086457 9.022063256427446 0.9712051657100241 -0.9884868356086073 0.6011889680186226
Ni 6.65003811727682 1.8679094485414138 2.767152452786308 -0.9443386803364833 0.3134349588622473 -0.5697335777228187
Ni 3.831381307329834 7.065972557862421 10.372394856604815 0.5734807034700768 -0.24518014034990673 0.0857588888343749
Ni 8.402796761499577 7.120937682105041 0.37112270933476105 -0.6496002694424747 0.33768611810012816 0.5121663208313114
Ni 7.39422518461506 3.811322429890181 8.292438554104594 1.3314863955018488 -0.3965834066569686 -0.10576387120139204
Ni 3.2472128716549666 8.433731042945753 12.403804513732824 -0.8599247355657771 -0.017764008851640374 -0.3622954320083761
Ni 9.17469710876459 4.869593336398519 10.165563129825177 -0.5398334477292768 -0.6195898391233136 -0.07019677273005975
Ni 8.509831727720186 2.1859652530683036 5.629198686571633 0.7473050177848162 0.6922767252650787 -0.16484036564857418
Ni 3.6548324234868277 2.791015912076828 11.470168270511227 0.04607699686372064 -0.37152414969549563 0.10855403235201948
Ni 0.9711862446424576 3.19522445949067 12.33460002940246 0.6253305982618328 1.310582041249014 1.1777747927765845
Ni 3.201322647760551 8.406099192832674 8.155593037866769 0.03593965131940262 -0.29960345229579366 -0.36887385655684213
Ni 5.706899919572983 7.759826952581451 3.745202325947358 -1.0972180169684393 1.2722494642174025 -1.5087467320813306
Ni 3.147117535112396 8.26157032128508 3.409920496721617 0.29169216786851704 0.8481154016356748 0.2839744875092851
Ni 3.3647613315990212 4.275273317283287 9.11174010069588 -0.7169649720403782 -1.0452200266345935 0.4793364187854841
Ni 7.469783003964875 6.2646941433684695 11.457773748091478 -0.4238083038111927 -0.15832081936250153 -0.47518614406253645
Ni 0.6584577594824909 0.048579217297692226 0.3374342906343537 -1.7724010199760252 -0.4490187416385492 0.979394900609668
Ni 4.627393927204985 0.20784055169372287 1.4970961724986853 0.6489040147063986 0.6302072096278437 0.8001208760342673
Ni 6.161088277080033 5.6488857011954225 0.2724406324476141 0.019976186011610757 0.5537109770423173 1.4217876522912676
Ni 7.930078597498884 8.902278190933963 11.226695841896962 -0.06285010255700144 -0.1597848055025377 0.8832412988045305
Ni 8.854062693470764 4.7161252808588765 5.598914034083584 1.276261413590273 0.2314455643726337 1.7443824232759122
Ni 8.015154657293676 8.670157983124177 2.675105096163706 -0.5981195850646795 0.2489293229796939 -0.3497836726946105
P 8.692397370019382 1.4503192684107264 3.634218918538356 -0.5892595635708884 0.24915480872693868 -0.7307196026223093
P 1.8109085789564736 3.4152387683314624 1.486408961839363 -0.43526873904230845 -0.6567942160877527 -0.46736022026021445
P 4.840396224311122 0.9813106848115921 8.231722675463848 -0.06291952234235616 0.933246941298696 0.014428516720504183
P 8.491627640481314 1.6412902770344302 12.5078618630994 -0.24974976199846022 0.270425802290573 -0.39748586386657997
P 6.391824178057041 7.639736072898767 1.2052444820181298 0.7025498250563127 0.817359608510057 1.2978409395332615
P 1.859648846330136 3.1108631725049585 5.868368001920088 -0.6974181602567021 0.5427305667714137 0.8263119326073383
P 6.774110010073373 3.8953218065928135 5.951317838801791 -0.22273260997966798 0.6373199094132249 0.0942324735230248
P 2.22072673575804 8.680544808248545 10.147831335505721 1.4780349048197705 -0.26840671497801516 0.5115094039736029
