# total energy = -340863.0672035743 ev
CRYSTAL
PRIMVEC
9.29205226218158 0.00000000000000 0.00000000000000

0.00000000000000 9.29205226218158 0.00000000000000

0.00000000000000 0.00000000000000 13.59985774073963

PRIMCOORD
 96 1
Ni 9.07813063715751 6.077364570948232 6.796120610087512 -0.43964372818155256 0.5685446996210402 0.8033123863883714
Ni 5.83586413259678 1.2484708501909418 12.674169730759388 -0.18259871807325972 0.5239633134662396 0.45962865594391167
Ni 7.50382468226353 4.171044296595394 8.591696347142918 0.4287525351903455 0.23686827805010177 0.8253801648216882
Ni 0.571624754379731 3.7552435418685484 6.099509389904721 -0.17448174539308015 1.0939344611211612 -0.49294861025228004
Ni 0.9217223367503138 2.3578768461930486 11.54950246811825 -0.6400324232483816 -0.4289733929518999 0.4849069708947261
Ni 5.876786330769146 7.7922592766024055 6.943135744193758 1.0510862556073832 0.9700121738431874 -3.6972463459291167
Ni 0.6076528286244437 8.994985353495764 3.2473873545636347 -0.16491081387519343 1.3551472294538984 1.3499003792326623
Ni 1.4801588813511986 4.916861579544253 1.390761904925972 -0.3744788614484454 -0.19477212021100004 -2.1519709227941326
Ni 8.281783173994908 8.579760706009312 6.521703076589466 1.1727097195488514 -1.576899220687852 0.3947247561816751
Ni 4.396803998410971 1.8885167022142695 5.528831495650731 -0.9295118997362959 0.41244917004463155 -0.25723450041127954
Ni 4.4745784758639005 4.0891162717802825 4.0404770242023424 -0.06491855505025593 0.5753969466561832 0.6030974978952451
Ni 5.322942847602549 6.858631033285732 0.5569070727981664 0.2515310222685991 -0.008287179709456697 0.5870931520471889
Ni 8.075676162718512 3.50178423225283 1.0995991640422718 2.016704157037617 0.5593802595129528 3.087894382483727
Ni 6.365892085809751 0.5092611456072893 5.126045189325388 -0.947909171296561 -0.8455365851649052 -1.443746673060862
Ni 3.6238725069546267 5.655300972995187 7.740168960813472 -1.4794459262346844 0.7382038268144964 -0.2880342594009555
Ni 6.653787741117292 1.357317950415986 1.2073247135590042 -1.7428202209951145 1.1043564277854334 0.6859497546057864
Ni 2.390668498634075 6.861920419787325 13.224147720184002 0.9282075791025757 -0.2929522655278632 0.270113927477109
Ni 1.4268782536671965 8.981335328719378 1.0004650460491928 0.9139713808985357 0.4894943331550925 -1.253647532845499
Ni 8.601151010321932 1.2919483627360144 5.293840139910485 0.6707830741676771 -2.8561824518235843 -0.13202717577329517
Ni 7.640696612117969 8.755835804367205 11.15607232921792 0.1254711198223323 0.9755593289136618 0.8258247085582744
Ni 8.361499690371094 9.285538535750922 1.474700729851097 0.6833161736376813 -1.170693460449771 0.14258515379479958
Ni 6.895752782081963 4.89366861709234 6.420179971959213 0.8235986474412332 0.3636979687828575 -0.595107023490601
Ni 8.467865812641547 5.180681527434764 4.803469736556697 -1.3854967882800333 -1.3754962254238956 -1.9295828406380766
Ni 4.917372642418794 8.48834549583226 11.969887921432345 -0.3795891860918172 1.824514967062445 1.110053735280527
P 3.2614174242776346 6.831284523471637 1.5670163398925678 -1.181230869645985 1.0792519194083219 0.467543282805298
P 0.4526613968544475 1.659402569531248 1.5343631390302812 0.8132265601782898 0.9186448751148051 0.6747831964660056
P 9.26724248484234 0.36799128741611525 12.3335611921612 0.921875980457593 1.6035145092825351 0.4560183128848339
P 1.4702442615850964 0.11815216136260244 5.350850597373412 -0.473431623265275 0.13739743894627307 -0.1931672376177254
P 5.267413543270564 5.916101003899773 5.373086478442094 -1.181848448625326 -0.7516740933867893 0.016967481092274004
P 1.9177494986380348 5.784646340515472 6.043192119540717 -0.08496056130279561 0.815092666852751 1.3837666929628039
P 8.975825141726597 4.582236193399103 2.797354679294782 0.6481409112881289 0.22157792754993452 -0.7708031009067564
P 7.793365030821868 3.701489019519062 11.5502774252771 -2.1281763914776963 -1.5691928531825297 -2.287347731765951
Ni 3.940712905065738 7.006662717909701 10.61679692559143 -3.3989945225652107 0.8306216157262857 0.3199251945722813
Ni 4.468696606780543 6.587033637649927 3.3035959079161454 2.608435579187766 -1.3534405311754367 0.50854029404295
Ni 6.898791283172417 7.226986569150611 4.894207556123674 0.6620145839464276 -0.19673387192306116 -1.349376131298076
Ni 0.9475941978700501 6.929538684115278 2.0419637948979243 -1.1248123816469402 0.9826329479309918 0.12419276733054095
Ni 5.574116312361228 2.3847587533939243 8.752977569090678 0.10414356198914967 -0.1640024431283111 -0.5851347427692375
Ni 7.8464505254083186 6.122319519803342 11.027566963222336 -1.3053004811351003 -0.28879633437796065 0.8274661008164395
Ni 1.4548659150875336 1.8006138877931566 9.33256282464531 0.9872277663905256 1.1585956487449722 -0.9193264745628619
Ni 6.07691855243954 3.852549913181222 0.37731214504252314 -1.4903340339020978 -0.37664193053803524 -1.793863303614859
Ni 4.383971674233851 7.74881893226639 8.441649216382801 -2.1523085086392095 0.5402520233239341 0.8867642243561245
Ni 4.92511292195503 4.08377334172826 7.037926756958462 0.11764313913748127 -1.6265971021336116 -0.3500947761771261
Ni 0.5804745049563343 9.220717179154548 10.360820399017289 0.9648640539833448 -0.5602518634846286 -0.5825482129889838
Ni 2.8897446257543686 0.25276519331156866 7.2064148946424815 2.2506454912489113 2.0141186556986277 0.26756236469984884
Ni 0.3627849505323785 4.68321292535621 10.61641595144859 0.08983254468311626 -0.40349967416082766 -0.5074612020461583
Ni 1.2914372998614732 6.061428701314806 8.560934078916434 0.7927253549011444 -0.6070752515960706 0.7265685565684132
Ni 7.46911886705604 2.460070836996791 3.2339101619593658 -1.2649539589972538 -0.20603818004312255 0.16125393384889647
Ni 8.048543370106499 2.0139408236789818 9.876380183418632 -0.26356455639436543 0.23201403528159395 0.3869911349828432
Ni 8.750548626628767 7.377062505272746 9.358578712575145 -0.8971473673626613 0.296802749622205 -1.543454567876161
Ni 4.728623184772276 1.946062381887626 2.6983748093692923 1.5652359254173107 0.6290934077383746 0.2483765358000174
Ni 6.71442767419469 9.037589413127984 8.774492386903644 -0.11785165560386154 1.0907182681767085 -0.23184794201737488
Ni 1.5558333549923766 7.911429846893186 6.948167390494924 -2.3248128185909445 -2.1702805197365973 0.04264560258466849
Ni 2.9901173743142904 5.132279227189566 10.1629693761778 -1.3306582431735985 -2.908407470566572 -0.5394616662121547
Ni 3.9981006198505997 0.6464536512648497 9.529801501240575 -1.007489344853039 -0.4604146421803168 0.36952228877411847
Ni 3.6417597075635744 7.388733322916817 5.793063081456555 0.9882878322239237 -0.21737031722649014 0.6204614430949894
Ni 5.98154492799786 7.564027888884501 10.169266599997377 1.7377834299021555 -2.34753751388197 -0.017990008819517407
P 3.873410570514774 1.768296130017614 0.6720067949919174 0.14196088994723938 0.3584495758997246 -0.08644794448159951
P 2.2737930652525997 8.105224888919267 9.229625469660418 -0.14903785139867884 -0.08813381682445466 -0.2552470376676056
P 7.907536476994407 3.173068591347831 5.284251671178863 -1.4014749088758445 0.6217855612230517 0.8773491016898115
P 4.456672691150424 -0.11552715659791277 4.162834768419807 -1.2391665656205046 0.2726886301828207 -0.50422546871768
P 1.821307288185949 4.941243924686008 12.220016030311282 0.8197088254685239 -0.6421528120254941 0.39193870879610565
P 8.712934399062522 0.3848071143989787 8.477770211150158 1.9036445235057604 -0.0802857815349456 -0.28195462886577893
P 8.178790066696429 6.658824033444591 0.562002834259957 -0.517251962884335 0.024113862329068148 0.7813718775615381
P 3.526705516425919 2.80267809603705 9.507225531059015 -0.2755278994038287 1.1765028680426965 0.32874742084960157
Ni 0.17187880755529536 7.665078957259723 12.742740430444442 -1.0301407637039677 -0.39835643939699134 1.4171090158686757
Ni 5.788576878623308 8.489609214940215 2.500673388571262 0.01563950630946984 0.5103099843488631 -0.20357969120030098
Ni 0.948718536194041 1.774038618317006 7.029100236512519 -0.9243972042175498 -2.3556614285406847 0.18523152771041648
Ni 4.220719608000813 4.962141750228618 1.3282291808023183 -1.1277645222967287 -1.7829191458985296 0.6222252198636316
Ni 6.799264111368554 8.559141642034634 0.0028972618960362586 0.35148677142864626 -0.9694519304643433 -0.45481503660535216
Ni 3.640997759277895 1.9079185073423122 11.928027225981277 0.21661287023517534 -0.5016008866106393 -1.2577235026870857
Ni 4.171927041560511 4.551079942156609 12.285404202095782 -0.6471188977815178 0.17715492134986907 0.7557073829158985
Ni 5.31176450872849 5.314078229742322 9.639129929772915 0.64697928687986 -0.955467186149477 -0.49077577097067737
Ni 2.764227583767012 0.8629110795585477 2.761818154614856 -0.752745214963781 -0.9940509599599461 0.17797998835432574
Ni 0.41817115725949117 2.2763297955207777 3.7407497987465557 2.5854609726694635 1.4416365686963948 -1.6655940522220993
Ni 0.014492813916766364 7.069523451478287 4.5348318595671 1.0929214464756143 3.563670851832095 0.22711068444270563
Ni 7.241788808407781 1.2360938365747767 7.08975503687354 0.23047934380462243 3.1900106296302027 1.3308276788719275
Ni 8.146834698959198 2.016050119542998 13.110493841322588 0.4099500577718617 -0.7905154917340192 -1.4331419009618223
Ni 5.655003627322728 3.0028753620732958 11.116795753501576 1.162236073711037 0.7875332691772438 -0.6700935042998201
Ni 2.376711836132964 9.223439750468014 12.22367431128777 -0.9504959581871308 -0.37757318410305296 -0.12242204858336338
Ni 6.859374397466882 6.118388981695505 2.371992402787881 0.7335953815082075 -0.5895403280361009 -0.22300900356950623
Ni 2.3041594920526203 2.999362966317357 13.358174423635086 -0.6745471691957995 1.1392213579834185 1.6184155947640837
Ni 2.5991635673424187 3.367885759122995 7.125563818684813 1.1882625796817858 0.030633922835773052 1.0588350463148666
Ni 2.6680827189873866 7.687798025046153 3.728373714335617 -2.03917199912283 1.4661882898938297 -0.6622210435302789
Ni 4.06833924291711 8.927664434840272 0.5312201235184916 -0.4740142352416223 -0.005582122073467806 0.6822329678758315
Ni 1.3195643420657763 6.798753048494014 11.071821291336711 0.8160236633074527 0.42553351403241546 -2.1245614204329284
Ni 8.83326647588635 4.7146014779053145 12.852654258269439 1.9808310972900918 2.1681637305039114 2.794872697170509
Ni 1.4847770313265996 5.3859801301641586 3.954512531883581 1.0637718214948517 -0.7755041059268515 -0.6190671338506241
Ni 2.2926001790357216 3.257719187476408 2.55209467659716 1.1456041215813109 -1.1295015595924933 0.5862968813981386
P 5.338962345706354 6.378854498718573 12.129930512813262 1.2115773431483263 -1.2048899038258218 -1.1895337330847255
P 2.523442633439919 3.5507440556338916 4.793923082060264 -0.3464597505277001 -1.37015038773095 0.163638374920673
P 5.21903911918216 0.6216949780063872 7.143121151438375 -1.5722666070118472 0.28587890362084956 0.8014434515004327
P 6.62868990795118 6.306432243369931 8.084367019201395 1.1816777273754164 -1.4388759752321219 2.787265831357529
P 5.8686000327242205 0.7194696687531862 10.549056006173586 0.36211314079424084 0.573920876331289 0.6582435469397695
P 7.649616982291781 8.888916576897772 3.5370782343686558 1.1265987841234018 -0.1759760705504195 0.7320792019739972
P 5.994460880645359 3.9924975123351736 2.5425201459439344 0.013786769371447223 -0.1642976057712267 -0.821446891205553
P 0.4896428356614863 3.791714847006272 8.744232818704662 0.03615896641906031 -0.8070132322787262 -2.119454952444298
