# total energy = -340878.1501192227 ev
CRYSTAL
PRIMVEC
9.17901961561419 0.00000000000000 0.00000000000000
0.00000000000000 9.17901961561419 0.00000000000000
0.00000000000000 0.00000000000000 13.43442303697101
PRIMCOORD
 96 1
Ni 7.670667927860005 5.47071397020898 6.348342052673818 -1.0317034802053973 -0.26395356430266803 -1.0164740648501527
Ni 3.7671338491675477 8.37820510768767 5.027496753330322 0.6753246707917725 0.2952624017182786 -0.4926560187125258
Ni 4.996764478197592 7.971611260646257 1.3395971182463526 2.3597340559481617 2.7327880120246224 1.8570751603866533
Ni 6.565587414201662 6.735555317977756 12.930161644930113 0.5901738478550416 1.5649399914434468 0.6670804285051092
Ni 2.9320633726360392 6.5535170035808505 6.467048804242321 0.8568466108610856 -0.3820134792625937 0.3339780731209216
Ni 4.83892205915921 7.122818149986906 11.28678212317126 -1.15667914844855 1.4346778779903742 0.7134852410218938
Ni 7.036682231153678 2.907050544543483 2.9972738807527155 0.5423143051696016 -0.3153267765683215 -0.721885549270447
Ni 4.415246056858991 5.233564822833099 9.989313032746411 -0.6480928316590129 0.3619431908752799 -1.9583547705644464
Ni 7.934684065264109 3.243498324691939 5.411963656004795 -0.007510706554748354 0.5854283627502562 -0.13446946666620066
Ni 3.0119575582204816 8.664636410670498 13.328465919475972 1.1983978683435748 0.446662839811863 0.3306873181847918
Ni 1.513693744986128 6.861271168823865 13.37013958583304 0.15996581116509223 1.1029348648475585 -0.924971074443149
Ni 8.488656249132706 5.4885671631044 0.1503165409638546 0.5395678527727159 2.3389873103191134 1.45310034636162
Ni 4.155121823715893 4.406663673641912 7.166525887061519 -0.35614483902594796 -0.006085286962131455 -0.1666769046366807
Ni 0.6616062842341466 7.316532177166832 10.043587657050438 -1.7018669185112043 -0.7773445015696999 1.0090194083443202
Ni 3.1639988369452867 7.71384603551042 2.7525924299886704 -0.17608791353793543 -0.1735792881834688 -0.7316125467502239
Ni 5.001482494212115 2.903057671068158 8.672994825812179 -0.3530505163713404 -0.3086740471384942 0.7537497449688955
Ni 1.1950165465577414 9.127626153418577 11.794187305396134 -1.8104700589336047 0.6192525103885529 1.6919918254893376
Ni 5.304169840700233 2.581057667586742 4.878039368590122 1.6725889954826938 0.2944458193542542 1.819302826733886
Ni 0.7785818727280597 1.34722304763325 6.152656372108835 -0.17985432255890316 -0.5610321932940788 -0.7039485051760521
Ni 0.2428272888283772 3.7549624693324173 7.755289308478453 -1.2879334506115625 -1.0291488321043436 -0.8873180399770655
Ni 2.2228556112623745 2.30414500780831 11.658782081583235 -0.43306324675055746 1.1017112768531028 -0.45677447432456814
Ni 2.5297194116154884 2.910474318810831 8.318554331672154 -0.9670600331933991 -0.3711094307555802 2.469972932201772
Ni 5.71341642437238 0.41688811739216697 12.670971835970438 -0.26755773671415856 -0.8998542247708631 -0.10751993466055032
Ni 8.70550140541107 8.427523979372552 3.0163368684160625 0.7283354186608489 0.4186141612047629 1.1565871029553758
P 9.526628951347133 2.3920891934797885 4.082425825210416 -0.08836932987402844 -0.3505676020484866 -0.405265764922315
P 0.23271017355365609 1.4790704834943407 8.20319333270539 -0.1387081873378966 1.1215964458128038 0.7249500471283837
P 4.417357231340197 6.21928136712792 3.878612122892788 0.17464835287793146 0.7609444629451217 -1.0195470473485215
P 1.3761920331231974 9.097876951272532 1.5574528845698499 1.2208351143011684 -1.0577574969799717 0.7777155117558734
P -0.021622098295348457 1.942996486229738 12.008775340783501 1.1272518443263684 -0.371046952948761 -0.12146945486210695
P 4.525284142427269 6.614328007659083 8.020417943043958 0.33638051191482715 -0.5969913849975073 -0.7019312176357072
P 8.540113832357246 7.276484115160292 12.035510152931163 0.6570749805529651 -0.5159741246131759 -0.12736833684504517
P 4.29185249794221 6.612749216307919 13.590262569968965 -1.1232892601341944 -2.4770632633896503 -2.95648761390325
Ni 7.835633266017588 3.9454454816541493 12.230712099169367 -0.42387078161801195 -1.0045310335556634 -1.3208140033896671
Ni 7.395802189426396 6.733177951931528 2.3475177106717764 0.20238387111998693 0.09086124305794675 -1.93537579317077
Ni 2.978747865729154 5.044871719310652 2.347155139402178 -0.7065399200523121 1.7882904375127717 0.14518016821548546
Ni 8.806516514827061 8.347069873599615 0.6037711182724673 -1.2203059812705759 -0.20002308419729423 -0.6784547317803218
Ni 0.276839227622563 8.416674378343046 7.8378307232819395 0.6561432127673151 -0.5589943369284437 0.18851456933706243
Ni 9.176779802752757 3.910078719584198 1.9373513892473813 -0.8611159276604009 -0.8027007209463014 -0.9674359284755789
Ni 1.692950816479531 0.4150082542019448 9.5328247894985 1.5071048256025332 1.2655327143188593 -0.6280487685239442
Ni 7.038802584654368 6.82942915023558 10.243693953398678 0.34459878605956135 0.5236457822258207 -0.14422140384664195
Ni 3.2457012893679806 4.751620404851579 4.77040251451873 -0.237208692108656 -1.8487887520081452 0.647585295894975
Ni 3.7559079083392186 0.5773676687281603 11.047260199258893 0.6007361967519202 -2.2083487873632293 1.1580742290238635
Ni 3.4490532870055883 0.8988279458639461 2.0356513447001516 -0.012519986843881663 -0.03647264100473718 -0.46006008705437546
Ni 5.35695838174988 5.861731021186882 5.891370993001074 -0.2904187004727321 0.8415832569441118 -0.12875081901486857
Ni 0.9051779915426361 4.50010609198401 3.9160671118952375 -0.6341433114574562 0.28640649398954543 1.2461931334499827
Ni 4.693581464657365 3.4223331612891004 2.89100745429021 -0.9443772468839027 -0.032702632439343675 -0.9037612731347533
Ni 5.3826963523816325 2.0691162139331207 0.9107156939970358 1.2045572030767513 0.7355730740598686 1.9311152181222033
Ni 6.21202994173595 7.47368616974395 4.274094766849418 0.5172887296595414 0.03958521849178989 -0.14526450039917563
Ni 5.170734434468495 8.362646669663127 9.051697304251011 0.05709828767488876 1.2996576810270262 0.7401128709117512
Ni 0.86567332748952 5.123985688238996 11.709576939601064 -0.43306093275771224 -0.10266620611267481 0.8516835786029073
Ni 6.473466774665189 5.201263853270639 3.6790565677135585 0.28896525585565713 -1.9465094411900865 2.0548228182862096
Ni 1.6501215115694885 5.464233582453624 8.44595269678959 0.03753373527939988 -0.41159530668476857 1.724336303258314
Ni 3.1301557921095973 5.264755131038055 12.012053168641062 0.8113087743302867 1.0824040918840585 1.5013478685140982
Ni 5.511652397105419 5.533544358573583 1.6643104398870934 -0.9723361939906737 -1.1069990076146032 -1.2627507806983478
Ni 3.3206388044313293 8.980936243052657 7.346627428347405 0.2745022863527918 1.1239767731195225 0.11893743246887259
Ni 1.754679722506114 0.44775991362104517 3.921306496216423 -0.9926831330781422 -0.1702219416754617 0.18438846298383083
P 2.105061254230533 4.22908636271399 6.699907677911609 -0.5552621235795211 0.33497051894117796 -2.09817624557118
P 6.516433764867483 9.0661726179765 10.747753383021811 -0.40435765128574874 -0.45391206517510857 -0.9070581987184703
P 6.280441173946525 3.4352113256244605 6.811856835336354 -0.0807030715780223 -0.9509132482302074 -0.8240822719458711
P 6.769756344573302 9.421253807676473 1.4182851806706624 0.08117409767716988 -0.6648582240428098 0.7535150032502701
P 1.7354129606102333 8.330419132256534 6.0942438458216435 -0.8773591289921406 0.23465892910360875 -1.2615649879203628
P 2.2794442663781935 4.276936591281511 10.300857215134164 -0.04318502002790627 -0.971231133851953 -0.761637118136772
P 8.601347071331718 6.365714264948303 4.282880924299031 -0.1862345150536341 -0.28059888616883283 -0.2851991039450056
P 3.975277294975546 1.8336192900642718 12.837987767080635 -0.5875171269584849 -0.7938363285771362 -0.15892605704666823
Ni 7.799706583759143 1.0128405468685833 4.631262347677993 -0.8112038733213062 -0.521242829211283 -0.5007146273509442
Ni 1.7176882739875816 1.7530366780185662 0.49576802132368214 -0.43744440653738853 -0.07922674414281194 -0.8899061124192157
Ni 6.83827772501768 7.57286547526324 7.320659064326616 -0.14162973186006578 -0.2940565543356355 0.04646909009581675
Ni 3.156517936066229 2.16541330733459 6.22676135010503 -0.18041893681312152 0.1928875015937775 -1.192973354893894
Ni 7.481736169830985 0.59535487530804 7.985219157030555 -1.3778405572863561 -1.101184200705039 -1.1360802412512758
Ni 8.658991313688142 0.3990211559675212 10.077792355253775 -1.4777559401267713 -0.20164750717459468 0.8735693229324051
Ni 5.445848006428159 4.778799481542242 12.471725613747802 0.13449723458034255 -0.1642670096436074 0.9563693862487722
Ni 4.643840358076242 3.0390723817747607 11.086743751567198 -0.8784947852584806 -1.026907858588967 0.1363124334122104
Ni 0.6068387465838553 6.333707024009315 2.1263868701965642 0.29672073143135996 0.0788261662702836 0.7916413778083463
Ni 7.2125338864187 2.1881222015367854 10.963308887062743 -1.3331056762728268 -1.5671241435789591 -0.0038463703292836984
Ni 3.461637722717476 3.5463876096086935 0.5963618137453808 -0.4753044148079556 0.6715232947678113 -0.3421780924332107
Ni 5.174626338729503 1.1626696818978637 7.011411472613636 1.0990103329821717 0.2766823247232461 0.46766592442609134
Ni 5.348871665584911 0.3934981399442951 3.403207756293266 0.9517722537963931 0.8125166785954586 -0.3949890655866552
Ni 6.199555654257865 5.083524570355698 8.112013542665975 0.8145149399724101 1.2012283958138346 2.771583644735582
Ni 8.69176041324426 8.201655846941902 5.634531013029176 -0.2994759255789939 -0.703294673642137 -1.1847926188553144
Ni 7.29969785543408 2.642061431074127 8.744412186903604 1.0347093569112567 2.0540103496872435 -0.46177861240737894
Ni 1.7458036106655628 6.617173503698971 4.2970000920685605 -0.14293816625884415 1.75422023530194 0.27004527902270264
Ni 0.504497268852497 2.756487087955522 10.072041699547361 -0.13587688853668858 0.559116721438921 -0.6269442226058558
Ni 2.5854268808608905 7.499222201947067 8.829142797853907 1.5041861092938416 -0.5068562214723078 1.2451693201711587
Ni 8.969444110659307 1.423537415619125 2.049125227399991 0.029194105065452947 0.20740677825587506 1.0726549829170946
Ni 0.6345685644435292 5.902072811816895 6.30108019925519 0.9916621480127955 0.2325403400987092 -0.21125494835737163
Ni 8.6020813928904 4.9855201793302975 10.011815399010228 -1.6560670865682705 -0.3584161515586279 -1.4873178727835934
Ni 7.659891758986368 1.6129923777587039 0.03079102085742333 0.15495113155932025 1.1019020527076702 0.20784309446234528
Ni 2.143245975281921 2.857419586196162 2.5875105182836466 -0.125190612467436 -0.4824114581663821 1.2502912147787564
P 3.5628272335036546 1.6497543507901484 4.134201920411033 0.15706020748252306 -0.08678141656161828 -0.8127244237308905
P 3.7237538030884947 1.2272624420033005 9.14646425510458 1.0568354993863347 -0.08436689358285471 -2.4081368727315815
P 6.112740487982857 8.997137212441046 5.661332832019067 0.43070991602703246 0.9569692246163003 0.837752313233796
P 7.1313362800675995 3.9187804300545617 0.8660744506409491 -0.9627295241388453 -0.3512846827201692 0.72988142299173
P 6.281790489810601 4.308126899486467 10.451255449371422 2.0499248667639596 -0.31300841284778996 -0.2632984472171723
P 2.551703163278487 7.672439478620322 11.175652652186393 1.5483759164371784 -1.0898644048168455 -0.3056622568953639
P 1.4041880425478928 4.860758946510473 0.5594887745781858 1.3066058302100851 -1.0657757392987581 0.2308747794708282
P 8.646159044450199 6.310373956482241 8.250696594336434 -0.35744787410808765 0.07397655148746614 -0.16371602223614384
