# total energy = -340873.4752353119 ev
CRYSTAL
PRIMVEC
9.19228645847864 0.00000000000000 0.00000000000000
0.00000000000000 9.19228645847864 0.00000000000000
0.00000000000000 0.00000000000000 13.45384040253796
PRIMCOORD
 96 1
Ni 5.4508696169110875 6.258715330098475 0.5431234892978491 0.12707008887833598 -0.3187034063500382 0.016599299119577866
Ni 4.951480269024337 4.071116607754438 7.388512604375567 0.3998690193867759 -1.0929620699055627 -0.16164576997067645
Ni 2.0012894598600304 1.1130204322127755 9.217428308063301 0.4791494995856586 -2.360408199197051 -0.42537590540862863
Ni 0.23967600090304936 5.123045103985928 2.8547031756123347 -0.08764376456191357 0.6440212326928005 0.3518845210876972
Ni 3.2089720582983983 0.8817296350416143 12.410387403304313 0.5473338698713799 0.283456410222286 0.3318306877606156
Ni 2.8936858241391836 5.905290299311763 4.116700237206379 -0.3811174498108856 -0.7081741132216255 -1.2058548388422523
Ni 4.820389071457511 2.7765485174570395 3.1068411593035017 0.3544401976300154 0.13015644111314356 -0.1539165196472188
Ni 5.5730075274412325 7.483734580848114 2.7626516187485666 0.21780920453612165 1.443063273840592 -0.6791720695623207
Ni 1.273131678213685 4.444902553106084 5.2364898691869275 -0.47798556118454455 -0.05413149173708097 -0.1314777310277284
Ni 5.206796026153471 6.115802852111557 4.421214950062122 -0.478970036585001 -2.7389033808937406 0.5833313710119115
Ni 6.153187881247262 1.569187649045657 0.8199326506869057 -0.22623676647818455 -1.79353317396895 0.5492038332005831
Ni 8.331612701678972 7.963314551359048 3.6235359057274725 -1.9984650083217712 -1.7361078419719453 -1.2365137013786898
Ni 8.143106482724978 7.796814666250857 9.952344258733637 1.4272885275048388 -1.1276457373306772 0.5886543258867216
Ni 2.442969633192084 1.175325750010121 3.020723223365993 -1.3983638740506885 -0.4541316373850824 0.38647511457837314
Ni 3.2177690764648275 7.034636232322425 1.2816327047552878 1.536160605317909 -0.7867305707702902 -1.1203335199399802
Ni 5.9534854573541764 3.797802353687091 0.8542033331613914 -0.7549332237540353 1.172814877668148 0.33943781068391216
Ni 3.4148608909960885 8.142040177492683 3.5242068156532946 1.5193139660742156 0.7516568669956086 0.9195470752141003
Ni 7.885713268850168 5.666198927829178 4.713768659743195 0.9784929576206889 0.20868924451272444 0.4860760515021629
Ni 1.9592439414762801 6.295475283753179 12.261332639487918 -1.8494317849087825 -0.05209157848891673 0.47662441917095977
Ni 3.8127306269392145 3.6486666977496265 5.336196762235651 0.023257684976359945 0.18776894942028954 -0.367084111646271
Ni 3.8327146577582507 7.6285774389969445 12.31579325999871 1.0037352771272454 0.6474027475705237 0.7244751643744943
Ni 7.039903412478501 5.088491299087694 7.038471254244091 0.6302334348800888 0.674688065649038 -0.07166101598041205
Ni 5.704438839608015 0.39135792019694116 11.857300394685048 0.38660546950865027 1.1176107216921787 -0.23699169100184345
Ni 0.5602542343918493 0.1495180550552528 4.467495354829649 1.3182680970393619 2.229815441877437 0.8663301248714887
P 8.954803763949707 4.026910902046643 6.7574740871323336 -0.16042166775558825 0.5833370274388663 0.702196555481952
P 2.4219192971407524 2.920803069270811 12.628864153114968 -0.9074204671538952 0.576212243468627 -0.6140586248924392
P 7.639451913909052 0.6488072070193129 5.312046787181478 0.1213630111912297 0.049301417338289286 0.1175148410897331
P 0.9129466399456843 6.800949925293196 4.554609734622163 -2.137803887265131 -1.6463742847605387 0.10763332030996302
P 6.230154895988656 4.044835860692973 5.336626961243162 -1.1086211165990585 0.9532863764480745 -1.594694339887744
P 7.335049346948429 7.266539235773507 7.768745100239353 -1.0512016981393253 -0.23033639046885493 0.5298588530150682
P 0.4458608252255663 0.0684650689711433 2.1895456486216234 0.5127569032274588 0.8216520652378236 0.22711994041408629
P 5.016359427037566 1.9980353904442352 8.035736899662112 0.537794562922377 -0.8823619815233708 0.4957279727696301
Ni 7.006719258266577 1.3763702477300597 7.407711613928759 1.0274832714764628 0.6348855889401195 0.35307674162358543
Ni 5.645838013264244 1.9935403623529249 5.516505300102056 1.0961687497683186 0.08463377409099618 -0.40615279551295863
Ni 2.3548523749440227 4.1686651519364135 10.81342985678657 -0.6146723472170382 1.295542116196756 0.48935137981932497
Ni 8.277130019680614 3.1961304340784373 4.950959066380621 -0.7695090646856811 -1.089335271786253 -0.46543420688209514
Ni 1.376379440016545 8.710583096608326 0.07920257881461915 0.6540436499258091 -1.0768445955184098 0.2704664257205213
Ni 7.1039184955621115 4.2955095131470316 3.021382310306989 -0.5775245345221472 -0.891454173632626 -0.758569534955042
Ni 7.030830625717513 8.09273275278555 0.9533283544755955 0.15942870771469964 1.7356663835591528 0.7957607992933585
Ni 0.24211195682165315 3.987016378700452 12.229338886375839 1.1389891873679545 -0.9214538053185098 -0.34419435153229105
Ni 6.819214998539482 1.6287628577568696 10.020850692993966 0.29258716887896064 1.3385564149747526 0.4140612517267579
Ni 0.8809142792303685 1.2986954269292967 11.672014233686854 0.9524908771299726 0.9165270574408538 0.29789778245859666
Ni 8.69388071206454 0.6077498594327323 8.976967285894407 1.0093734492496294 1.040590498282382 -0.06909788323892616
Ni 3.3993535036953917 8.46694154331552 7.985285035287557 -0.8537690003770264 -0.08155513516567243 0.6555600865703355
Ni 3.484179923381716 6.411812861511103 10.38822134160752 0.4406366882224411 -1.364467735523876 -1.5169783759625037
Ni 3.7128564342764583 2.9187164202386486 0.813032001222393 0.7450421898925685 0.8889254936735013 0.43503811108874113
Ni 1.6799638934799757 1.795336281156943 0.9823897681988631 -1.3349306452967076 0.3173134679810471 -1.0079865962044319
Ni 5.284608731251513 0.020183503435767424 6.926548731685056 -0.8183677380595971 -0.492278580768449 -1.506218309232522
Ni 8.457252873360016 7.496291244187029 12.869701139801109 1.5784161715530105 -0.4319558726189916 -1.8694761051541673
Ni 2.456702909201118 3.619922417910102 3.2696871105337872 0.5621511373898705 0.697067976006135 -1.12039728329838
Ni 7.99814412485184 5.707040256683355 11.043786717650825 0.3708158107745614 0.03942606720610629 1.4281696445582113
Ni 3.3428393263837837 3.0351091517154836 9.051595782953942 -0.9885030335585234 -0.29756045372383594 -1.312717599534778
Ni 6.295714283201797 8.756176837575401 9.016118153263937 -0.9610148554405836 -0.2661505719539868 -0.13795048323626566
Ni 6.112603936414674 6.113808125944248 9.459826144994647 0.7872231941359926 -0.12799131514102474 0.9808961677455428
Ni 7.840974410526225 4.982458274479789 0.1804427452490902 0.209678090788555 1.1105291322550488 0.42829282194510754
Ni 1.5254507499486125 7.388263493411815 2.6200011209264797 -2.5452234653056554 0.39821297184059157 -0.4238550978887281
P 1.9482775436993205 2.323166563429203 5.026112442998467 -0.8655557085993093 -0.43503091199988947 0.060997108508662704
P 5.102298113388611 0.6013667356973418 3.433904550907679 1.0061690833797188 -0.5350463107532785 -1.5184955839379783
P 5.891713292172978 5.286778110862043 12.007283579436457 -0.39301985767542635 0.2633676098922109 0.543454846531948
P 8.181732470536199 2.8941638230364193 0.9196036938183365 -0.14644489386052198 0.5410174407350489 1.444700809444015
P 0.802443406419979 6.33798960874768 10.426753568096592 0.08760108424943623 0.13823561857685224 0.5057668450628708
P 3.543221979476781 5.117787116116337 8.62562063108202 -0.7061604252257064 1.2013145277697375 -0.25321638039082195
P 3.9762797880856247 4.721663914605418 2.0171204156450093 0.32298172201041797 1.024028994379275 -0.2223369172031461
P 0.8199252968577175 6.468593615130785 0.6776149136355865 -1.1796604398350716 2.5938520249466364 -0.30151866704063557
Ni 6.5922022914985785 7.38190243116399 5.586263723781681 0.927316948967506 2.1734530039273086 1.5153585809708936
Ni 1.6284319354433987 4.711460476606738 0.9865979969518324 2.1573851518311686 -2.97153473804436 -0.3755592389968177
Ni 3.976252211226169 0.7688860453767524 1.4543061294670048 0.5823993461159452 -2.195744982556289 -0.04565970682064394
Ni 0.11892704486083171 1.613852969077717 6.708299950579235 0.9445651945249925 -0.0011603388566883244 -0.5975709116500612
Ni 8.549479083667004 0.7590751180109945 0.5087921377325606 0.1551658186732876 -0.18015025653276717 0.06332344264899417
Ni 2.1687545350491777 8.383971965499226 10.846875991163326 -0.9082234226711647 0.40338423162888587 -0.7648044601211603
Ni 3.648041622268627 0.9744926748793441 4.878752736809961 0.10596955945429491 -0.9306146458821715 1.8538455977057624
Ni 8.033295428371618 3.2704592625985525 8.535331235537484 0.7141383012248604 -0.7802778731664111 1.0396913835068804
Ni 5.275710597933745 2.694773936883834 12.154213086617451 -0.9490610255128171 0.818021667574088 0.38867597888443384
Ni 3.0183240365933304 5.674747754260505 6.485867759893956 0.03201691922622873 0.2672240075238237 0.7647278412469539
Ni 1.6075470605488031 6.919934881558885 8.52633106783973 0.7471072999517133 -0.9277360387827959 0.03510738522609437
Ni 1.5675881911972154 4.043732786314737 7.8248750399758755 -0.047650769108743746 0.2190325354202615 0.6688976842195061
Ni 6.298830468320313 7.483403658534644 11.509451404880316 -0.0916521143903583 -1.620609774201925 0.13530738918646373
Ni 7.502532806710548 2.1316268899350614 12.444788616246889 0.8611488377808653 0.6751241247451921 -2.2133536967769882
Ni 7.292084599916149 1.4750770200091827 3.0970467780534174 -0.41231907222467057 -0.40827626961386465 0.5618217790749098
Ni 0.4160557555256381 2.528145359764849 3.038415617164245 -1.1653319390275414 0.016560732572158576 -0.8567388816386277
Ni 2.1525209571161428 7.875840753164958 5.802466301915874 0.40599338711695887 1.4751897220614918 1.0979340691988575
Ni 5.0301386644790265 6.461065132499327 7.557613906559097 -0.25527017759605714 1.4632608318343896 -0.9614722546929764
Ni 9.082273200641325 7.192247176399334 6.58211651476691 0.5883301097780835 0.10462127295651659 -0.5750868716149322
Ni 4.978882475037008 4.059856056809949 10.203997808927028 -0.3963676911017367 1.142271200553336 0.8008448986844853
Ni 3.117821345510189 1.74191990439088 7.033371373702049 -0.6999257571699041 -0.15435412140526966 -0.4053490686647406
Ni 8.740715411707132 5.631249854612077 8.64307034851706 0.13045931706554306 0.1500827477234254 -0.04546970229702492
Ni 4.460419132693267 1.489619217228923 10.23145700711591 -0.6767421199645893 -1.4665636709553773 -0.6157853777755589
Ni 3.7252935978910657 4.849225274161889 12.583632588235414 1.649658097718133 -0.127322056988142 0.9439676701503097
P 1.1126803176128195 2.7935634397413245 9.850848546734875 -1.9538890214836093 0.7575804315688952 -0.5256016204006109
P 4.414696699715398 8.33695342012693 10.070146167728668 -0.16171056177034085 0.713767805259319 0.6769568070785568
P 8.351091156741317 0.19929244791584097 11.438361018888973 -1.6822794832975803 -0.3725528480703261 -0.10409085437434332
P 5.183548733632154 8.610469904496954 0.148380049988373 -1.0622129616481641 -0.1593736861070481 1.5881315990685616
P 1.0851034581569274 8.818022541048483 7.727240088300938 0.1189286907181242 1.0766103680204167 -0.5955587663160389
P 4.2875398007642795 7.610018212583129 5.790021784472079 0.12571434618138994 -0.18780777307802496 -0.46204189337109464
P 7.039076106694824 3.9849848833872015 10.445857897098985 1.471115551992118 -2.4255334709414744 -0.9400711633093809
P 7.356871835064525 6.3165715812369365 2.0219105161324977 -0.044026027871962886 -1.2874773369107504 1.2789852402793394
