# total energy = -340870.8216172124 ev
CRYSTAL
PRIMVEC
9.26180833795573 0.00000000000000 0.00000000000000

0.00000000000000 9.26180833795573 0.00000000000000

0.00000000000000 0.00000000000000 13.55559270053041

PRIMCOORD
 96 1
Ni 4.272787023861643 5.585991023029862 3.8954702196263185 0.9404920528968834 -0.8845255648335928 0.8191038448946732
Ni 8.523392017085726 3.453978346377356 10.19788618758103 -0.5721835819252081 0.010432251076917518 1.2951973312628275
Ni 6.649487411334078 5.7476651469585756 9.494851964950872 -0.523214608225673 -0.6844767696046857 -0.04346707004469934
Ni 0.9511877020783007 8.390040502630775 2.5808491638035918 -0.3729963633656479 -0.7996094836154874 -0.22777480038926579
Ni 8.690864032947264 0.002696112366845115 6.778961932876759 -0.8593688630623071 1.6391093756680093 -0.07615350453412692
Ni 3.6318606346550175 3.8485684229045605 9.956325263209218 -1.7671667681602792 -0.2117599130182482 -1.45254447385815
Ni 3.1101244551664604 8.443564492215103 8.739236604811085 0.3859341544732386 0.40441884354098734 1.070792218676743
Ni 8.383751734863383 8.376935044028626 12.560557714173834 0.03359017725061957 0.9497547091457321 -1.3902340458547027
Ni 5.199912548237905 3.3298701165054063 5.4125173554551145 -0.6108786845025608 0.3414977785367344 -1.2925100142386514
Ni 6.110311247006051 0.9817609309445176 4.44813250287349 -0.575040334647713 0.09820482790721151 1.3938698428350769
Ni 0.3021748281327793 6.800399314135089 8.129261326245212 0.145229276285866 0.0031776263970332373 2.274579376356689
Ni 1.5150651088741245 8.848092488940264 5.274548829612764 0.2882988259162519 0.4291669970199447 0.40323356498363455
Ni 4.170444043258282 4.926457661150643 1.789039583401373 1.0204037389218619 0.5864552613528738 0.10161642469192177
Ni 6.066132421894918 1.752176660586944 2.2822197558495425 -0.7203122912460562 -0.9182620378540894 -1.5293651796626306
Ni 8.551788721025083 6.121721794707711 12.615200530188648 -0.9792146662780619 -1.5751529274207063 0.2654034093753171
Ni 7.85348543002318 4.139861552583866 5.482437524094839 0.41423017320445427 -0.01866569473030334 0.12713642333989716
Ni 2.42794597223971 6.549070886836191 4.980215974482416 -0.7849302843367578 2.0449752360681686 -0.3000181712357091
Ni 4.996097197001926 4.135721524318734 7.661728953062817 -0.07270462675357801 -0.29883932043625955 -0.863713770294564
Ni 2.572170849520755 5.778238375824792 7.531243042064762 -0.06492292592563013 0.6819187790695225 -0.4328950966038093
Ni 1.5157690062972788 1.2250223233017383 3.584573546712165 0.06220861231826061 -0.11644089129926398 -1.1611274140278907
Ni 4.542268595231363 5.691538589270215 11.119042476572778 0.3538858677884421 0.3863455309790443 0.934796802284319
Ni 6.536660063848996 7.921856098151145 5.329814965319399 0.4989763045035987 -1.0363684897812344 0.05005037968917187
Ni 9.205431572889486 7.208057802031645 5.987315360298849 -0.6366884464768131 -1.772965120009611 -2.4680859995917044
Ni 8.32430018803144 1.3784997469739828 2.2117985233862307 0.9728043918763438 -0.7179273359536473 -0.5347760878110274
P 1.7564000451258703 3.2328063665757023 11.386575363497345 -0.0925921097061244 -0.46071468991923875 -1.8658050840604834
P 4.861513862056455 0.6714347854154471 9.837781527703466 -0.4408356916071246 0.4274970655166896 -1.0253916790547568
P 6.499853638064584 7.223830661395223 11.617834378608963 0.8947079046832334 -0.48101920580454577 0.2908611873267894
P 1.9371442321371461 7.882456366070901 7.127341143573882 -0.7011256910152764 -0.3285900693361309 -0.6890013969479167
P 4.098878051301524 4.256884499183275 13.331315204538816 -0.3133035754907056 0.08374391528687514 -2.0250049635938283
P 4.851872319720881 1.3997926440244017 6.4215005930593065 0.8292129083042171 -0.3519295153930197 -0.22446296240721345
P 1.135488423438146 6.522220904866133 1.0835685790339538 -1.9498359344601581 -1.5211965278089092 0.5831683630714859
P 7.375576126934179 4.357847470364926 11.675431711439387 -0.6525822348889342 0.416366759931483 1.2389999581356532
Ni 1.906330196257745 5.279230673657559 12.065087096557953 0.8285529061227149 1.0518277617590983 0.4495666437222192
Ni 8.214547760868559 7.134852470023595 1.2353742463262067 1.5718716855662735 0.4276150791517926 -1.011402563864516
Ni 4.227228189328799 8.683713917017327 5.602946615300501 -1.181427044817191 -0.05109784711707974 -1.4551104348131132
Ni 7.026128103570846 2.0496566781434478 6.640613672898233 -0.7299546994318268 0.049678855282366055 -0.015251783952747925
Ni 2.0165457138305958 7.652420835822422 13.237157810022085 -1.2631009649489149 1.7402023237562931 0.2070655928663724
Ni 1.7968093142998491 1.798689461364327 9.666533472639035 0.30656342855339463 1.0646187428761793 0.20199486321168436
Ni 2.851886718950811 1.5814630118556174 5.545823487049888 0.9674780945674242 0.885121803656695 0.46372905126553043
Ni 6.113302811054457 8.128524086312538 0.019931411245107136 -0.0549429318947828 -0.5982813074535245 0.2359856183348323
Ni 8.624206799336188 2.212942356698856 8.347222237144132 2.0257737234390527 -0.45645745730478166 -1.3676283926400445
Ni 0.26887862765593906 5.80107799484451 3.0454260939895565 -0.19634152158064896 0.9237860529961123 -0.990961779511661
Ni 2.151453212063045 2.4196566539012476 13.338675563514881 0.02970858280802625 -0.7497660777307992 -1.722078617572389
Ni 8.603201018339949 9.170153345457972 4.335715453491642 -0.1454035970802012 0.2996559028002839 0.24763734364114773
Ni 8.19479232397924 7.701100899718464 9.94317627410853 -2.098358793895631 0.35752423587197785 0.7707935878250597
Ni 1.3392945128659262 0.9286351991127637 7.523190826016204 0.9816664702526642 -0.7388872260347661 -0.5005493054176734
Ni 6.932426390017525 0.7038964969735213 8.751395506615257 -0.51307494868851 -1.2900270999157977 -0.2633264722416304
Ni 6.312885515943312 3.0037803734209585 9.153888684079007 0.3477884966414526 -0.11682115745681816 -0.5167403133552392
Ni -0.0047698312226906025 3.2032982456524164 3.378813215754312 -0.6126278059831837 1.6818457381942713 -0.9302714036101398
Ni 6.7382988901581164 3.7527272316571776 3.387528577269946 -0.4911231270077671 0.6293199219268839 -0.44745551091648744
Ni 3.6963598669556337 1.821260487946263 8.2444439515554 1.0857334133676073 -0.040702105705052484 -0.3910071981207718
Ni 3.807325590992636 2.623212674507644 1.375350732186187 -2.2426745572282925 -2.755422975815319 -4.493334960875539
Ni 5.167792597402388 1.0023591923799815 13.386228465353055 0.5397007788061544 1.2611939777341894 0.3658839206905828
Ni 0.9430558344792281 8.858873233684365 9.65625842262262 -0.08812327530149339 -1.0271354012187408 -0.29018858673979697
Ni 6.3212118815145715 8.578860986391929 2.7573292143198644 -0.27247342884822107 -0.03449443423244382 -0.8130093019611612
Ni 2.8425693399022154 6.76261113668154 2.3334190315758216 0.14404451194914547 0.6063730833227234 0.4504773284619467
P 0.8180362426804577 4.916251148514904 4.802610614269916 0.26471023996303444 -1.0751211850694002 0.7296307404335047
P 2.985997701678112 8.54399954032939 3.705868965433957 -0.5468615582206517 0.4236018442273414 0.1925789692144232
P 7.926070220881871 4.28301206011378 8.024789055936807 -0.7642208197035484 -0.1174770458732622 0.6681109266521525
P 4.9011266157252855 7.27904030007184 1.7481023911600284 0.34357420144978895 -0.4533297103090773 0.25966522133995923
P 4.555911238709078 3.1014554026918226 3.0055456740637636 2.365084007406166 1.7837712094861795 5.91537072462187
P 1.8516670042648906 3.001390826905513 7.632869158713491 0.4047402314361482 -0.04401342946647259 -1.1848527826692885
P 7.45620016730995 0.5904689843171189 0.2783099269453873 -0.01647974282257807 1.2986243546665055 0.6658894935208015
P 7.523626131001577 7.868054254320835 7.777602509264682 -1.0735371284117319 -0.9016321426068924 0.12606864419701516
Ni 4.590337379786246 6.325926141888065 6.101724624624389 0.26302668161302445 -0.2827555275005195 0.9829291390151715
Ni 5.02099293744191 7.873639124665072 10.295567700117633 0.0960489579064733 -0.16756342100669208 -1.3758222413047467
Ni 2.855572918614172 8.009602469032252 11.304279566741581 0.43964655639503 1.1826562892386019 -1.138882486586761
Ni 2.783006651371879 4.4436025524831635 5.611716621484513 0.3209621204772279 -2.5116037203686807 0.7387188187777021
Ni 1.9508053992312602 4.392079113469906 0.9579571576912417 -1.0238191923613142 1.637407305375238 0.20432916777181584
Ni 0.08575230357577764 3.8701299123927617 12.68132428364744 -0.2831036548685576 -0.6429807072434282 0.15928446882735148
Ni 5.393669575769337 3.3951658643111706 11.17033714892351 1.9237441224691125 0.6228487123802434 2.7610999715954385
Ni 3.8719359649916445 1.7503057753306657 11.428326668679414 -1.5880310689349555 -0.9147938767998309 0.011220551306167772
Ni 1.177546294471618 4.127135828117892 9.26900277200852 0.7874306821611083 1.4084217725073227 0.0021646117514865946
Ni 6.44532937319472 5.861066726552019 0.7964747531922564 -1.4645828930799227 -0.0833343385532823 -0.4433548584845526
Ni 7.608890337285246 2.187778023821089 12.185894417987637 0.7089187046971339 0.8385650389430784 1.3743477136417492
Ni 1.0488256841163675 0.830594328418023 11.59196985303132 -0.1788654762830726 0.2835713385335955 0.9559312702700893
Ni 6.894804925111566 5.854916885907618 6.87467808971345 0.37541859965389535 0.8484277906697711 0.5953484500774457
Ni 5.916933953610795 3.605621932026119 0.8175740784513076 1.459112613993971 -0.6375235407835989 -0.9449341478286373
Ni 6.587340678316109 0.5906477372153673 11.207804867813358 -1.9410095944177796 -2.426438242143931 -0.22434726276495554
Ni 2.4393935671741676 6.193408190171061 9.877336858161462 -0.5395616821251288 0.09162408936590027 -0.13544700008812158
Ni 3.907918089846311 6.527648324470981 13.52860375953668 1.062014729594429 -0.7393960473503847 -0.9053242467464989
Ni 2.335040774191536 3.4729094823369278 3.2642548363167623 1.2883291433880844 0.8987435082051876 0.781819506621918
Ni 0.49975513008892314 4.742119892558 6.94606162404868 -0.15832878978230153 -0.7960914431598999 -0.30369870541108984
Ni 5.158660454517781 8.754511178893534 7.6993050351086 1.1613562422092452 -0.051418977901924345 0.05163649322936913
Ni 0.7003455197098718 2.594000931446739 5.458918088353284 0.20751090793390714 0.0034625046273037145 1.9461412592173903
Ni 0.7039918935979752 0.36515790243115387 0.2799307433802821 -0.08807056768668703 0.7565167661910713 1.834506788167834
Ni 4.0596542935770685 0.3008716917191238 2.1017543492650685 -0.18110902090161066 -0.9136427939145233 -0.19210922866685626
Ni 8.224670917230503 4.445325248808252 1.5249502367653434 0.27017486262203144 -0.24211409983007334 -0.9817456602300318
P 8.061116646237313 7.498304347384419 3.2052330373852707 0.4886931774100357 -0.4421209860774514 2.4980280385667752
P 4.304027102918217 5.762011687859443 8.719391328382232 1.0399068419517963 0.9263425008693787 1.7754135815501038
P 6.3014471828170535 5.614813770146393 4.69370564255728 0.05719547537438537 0.3194225439042499 0.9041950182380621
P 1.1577075013085047 2.3758483011180895 1.638017465082789 -1.019251884705606 -0.4004197496839233 0.8473720957117471
P 8.47816660764806 0.9380822434761508 10.221350978654208 1.3566112155939345 0.6420440543617717 0.6263806367929019
P 3.0738644760658125 0.45153630424121083 13.295514611124858 -0.45598488854373725 -0.8896230339611582 -0.4294559890152733
P 8.002619065649906 1.9614935258933668 4.617102153120869 -0.47732375923082954 0.5838828726400074 0.15433149569745033
P 0.5335783274523092 6.7819312685854864 11.034469201180784 2.0265985333331935 0.739166704948398 -0.9338334099297853
