# total energy = -381166.5112945511 ev
CRYSTAL
PRIMVEC
9.31651298226920 0.00000000000000 0.00000000000000

0.00000000000000 9.31651298226920 0.00000000000000

0.00000000000000 0.00000000000000 13.63565847711777

PRIMCOORD
 96 1
Ni 0.2184144663362953 7.522385469999881 2.5714665778616794 -0.27474191316742363 -2.783713081009264 0.9025765087980326
Ni 8.710604215342563 8.035604218968372 0.14607174326659955 -0.5720195455435181 -1.7977554395804134 0.49920307580242423
Ni 3.940158290544992 4.619462515902853 4.408763053941834 0.3838608168839776 0.47714918132617823 -0.837326538550287
Ni -0.05340970544931767 8.899114538406597 11.706076477450159 3.1312804627788458 0.025778394515684637 -0.5690062126384909
Ni 1.7367750279368461 5.43799271081043 8.503960231469405 -2.5925914130666574 -0.8003029101380862 0.022632392687535214
Ni 2.1597819819943433 1.2265655126517439 8.026807567439407 0.6091023093284285 -0.7333367285301822 -1.7028318535276352
Ni 6.674526892320458 6.29516780144152 13.027780357061737 2.3361392993473578 -0.9818094235884317 -0.23896038469244008
Ni 1.4589193456663239 7.481048102033334 10.297948897093733 -0.3869371418164562 0.6956847225053632 -1.336589521056369
Ni 7.745255092829663 3.9834055436666307 4.904501229659111 0.07766582741359529 1.0718862230718702 0.5894778502292816
Ni 5.278950518212518 0.23400471910961515 2.484334822132507 -2.1538084902235033 2.0196992351101986 -0.5588336429808634
Ni 2.7297382948384867 0.0710728823543835 11.81497067578313 0.8105749814880557 0.0929687763192528 -0.4263354411084206
Ni 3.6679577316361316 6.3300674589584665 13.277694885338914 1.313219478871861 2.967501705625567 0.7027156612102157
Ni 3.704180333992213 3.9297144795261727 8.516845900532855 -1.7331040221486151 0.7871483750339991 0.8499375424460781
Ni 1.2372795025461614 3.548016943896368 1.583700061884478 0.3120149385862691 -0.22261176813108757 -0.7352064347490692
Ni 2.150884712125501 7.987661443319093 7.305249229240555 0.5490757922631511 0.08534494122540785 1.0281088208756035
Ni 7.3510547968187225 0.1543084723671685 12.558032457525726 -1.5313744967831757 0.9305866208577135 -0.6765852826717509
Ni 7.382432812439936 6.885275731800121 8.542099240539644 -0.6366077138375489 0.017960184022846486 0.8256107927752554
Ni 5.394065352243318 5.448063861311182 8.422569311021048 2.076473820897082 -0.05170822700756901 -0.954583240882627
Ni 3.411129419097522 2.692388394415253 2.872037782010956 -1.9672595292532442 -0.051977421508555645 1.0814658963405053
Ni 5.604450847717867 4.083967984466927 6.124292705743698 -0.15531828509075188 -0.11889423793576298 0.5390515752579297
Ni 7.3119627084735255 4.789964019431314 10.180968897170011 -1.1602573527181115 1.9771665039543111 0.4425758142266829
Ni 0.9123418904230937 1.9521075917887298 3.3152243031217647 -0.76805536295829 -1.357505702383746 0.3060736334011696
Ni 6.270534941197313 3.2457333646665742 8.705795031356914 -0.4912316275611734 -0.9501663427618541 0.2696688695198904
Ni 1.5023249795081413 1.2442762037728634 10.229457620478257 -0.8343656561497501 -0.3225729166077735 0.7352537430472369
P 9.247766402596838 5.962745302813084 9.88722949196819 -1.354794216989854 0.09020741152403174 -2.301779590920565
Ni 6.846015946221795 4.409850291003293 1.4818957299077256 1.2200015626562795 -0.358656292593892 -1.0106692852429175
P 3.2970953005691155 2.4485473009312675 0.6791719308739479 0.2983991475750474 -0.8381017261534148 -0.6884979749489368
Ni 5.375721138241486 1.0254219980252492 10.974141407125739 1.2578692842363304 -1.3849015778981957 -0.7235022589382637
P 6.004492597349504 3.681121964436837 3.5911002263900578 -0.7628213682528604 -0.21280712333583998 0.58615135695921
P 9.07520594970606 2.040260437337405 0.9741066446874664 0.04139296112449 1.0868711265164768 -0.7004523190973355
P 7.396910673566828 2.46264318502714 10.974550402044315 -1.6712155121739347 -1.2705841606998376 -0.5434995837269543
Ni 8.216493634437942 4.086884053020798 7.629586857929535 -0.3189103801545217 1.434846799468071 -1.459698825514744
Ni 1.2193545316271535 7.18702826979167 5.281308527640586 0.5952376355311942 0.37519439945823124 -1.3685462764686238
Ni 1.2627415324430675 3.222190536437711 7.453346382422847 0.24506186960448764 1.6049741245471971 2.702419169924778
Ni 7.49991404076046 0.1975790167711868 10.036880639510821 0.7655217979031591 0.5845986677601094 -0.4935692745554144
Ni 7.18814625134587 9.112518584077486 6.464269964724641 0.23200606486179398 -1.3625031555983373 0.6935435077926443
Ni 4.465563038454262 5.137311571808323 1.688408350948266 -1.422624546370266 0.5417082961544863 2.566657723920031
Ni 5.600044137091728 7.093909722839756 1.0117649216894005 -1.1613559850989288 1.6023266596220211 1.6086798555335584
Ni 5.969965600350625 0.8639360840801165 8.351186188785375 -0.17602852105490974 -1.022435167529594 0.3909655462495589
Ni 4.286816420963576 0.1438022407115734 6.78731259811334 -1.807613820431732 2.0662385163223185 -1.2480358430856764
Ni 8.376383629714454 -0.12062089318523513 4.2888921400492075 0.8559932617218547 1.0040576934636707 0.24550024269348686
Ni 8.678322497965036 1.8137946405082788 7.987509584157981 0.30770217014352813 -2.2448697651073983 0.24982586665203424
Ni -0.13803811414837694 1.9632874073307305 12.206791534386216 -0.33522248705098395 -0.7638333544571426 -0.18158338943486793
Ni 5.096048735945389 4.256947680440532 13.491502336020611 1.5447205790727783 -1.0774773440064025 -2.092634232707028
Ni 3.567917015561129 6.376184198069219 9.12556915542018 0.16362089141917627 1.9915677669813057 0.5284444891660447
Ni 7.470119832341029 3.9394036529959067 12.463332898325914 -0.17062380509957067 0.12917222282300334 0.986410926916185
Ni 3.470531505677352 7.341076811447486 11.333605084596389 0.887009507597711 -0.3607607405314045 -0.6371345328752963
Ni 9.039421223458705 4.772476924621036 2.8656969632960516 -0.6728091034587703 0.7243615216147653 0.4404500261329318
Ni 7.59340524823044 2.0853150939716674 3.65383855625788 -0.36153541391389993 -0.9634121520281665 -0.8896734275831194
Ni 9.218484602389749 6.713702829282218 7.290331628702345 1.4651575346364702 0.591176320977627 -0.11510803142045338
Ni 8.941495355823731 3.3269919906310155 9.719933800546398 0.7056662591981073 -0.35240902613259956 0.45666931620527157
Ni 6.206735460504296 5.805044688080213 3.1902125373824086 -0.44488852152025965 0.5425842710015366 1.6147229764038449
Ni 5.6633405260853555 9.147334392977866 4.757536032800446 0.34812813936905845 -1.3127643936123135 -0.37776987349489133
Ni 5.002166234931438 3.5468523797774094 11.23428267166996 0.6356417503798537 -0.0865926975895799 -1.040906486860904
Ni 3.481590206550981 8.85822436306173 9.389964339778135 0.1379723376131366 -0.08885706814372439 -0.048479949878258446
Ni 7.606411100310967 7.40195090707368 11.163418479205694 0.2771924315904452 -1.094801694217463 -0.41484132442589206
P 7.653999848468083 5.810560063747601 6.177485336441242 -0.03780447244228328 -0.24704881812752935 0.45014797014698604
Ni 2.4741677115483527 7.964481959095345 1.585486037417313 -0.2326753230146767 -0.46123456697845083 1.036889138171395
P 3.571885850078539 7.568884186141653 5.19569070526606 0.3182899729617034 0.20578569771268432 0.5900342369533838
Ni 4.353131360153544 7.353821801165367 3.049519217042807 -0.6426022408580869 -0.020117339575165354 1.248976609732391
P 7.703060605671563 6.4540050307544945 1.7754851392510231 1.0353613886729587 0.15001024261427712 -0.6819786857731803
P 5.4929508207123146 5.68057607504594 11.479833345280577 -1.1272325610526588 0.002722284027169505 -1.0553175200799116
P 1.6716339693787892 3.364490955261476 10.070860757199437 2.1376925584982476 0.7455594958486191 -0.6447617104032508
Ni 5.369637455284047 8.302857709499898 12.416999084463388 -0.1661608842322106 -0.14935563974941374 0.07329572337035764
Ni 0.2821720227210297 5.9759095356137895 11.892925666254909 -0.11010954976459747 0.6433779426818468 1.0599015399061682
Ni 5.303723126151001 2.6110831858860535 1.8457223303936423 1.4896650328595313 -0.5511151912906832 -1.1782586743915386
Ni 1.5841146467108274 0.7463011332958907 -0.03207395913870464 0.5790132032525318 1.3287142320733503 -0.3891508616383233
Ni 5.400940938801649 1.742541949453928 12.999896033797397 -1.1160505762939104 0.8135147808426698 1.6211589618371756
Ni 6.983499727849548 8.399991673533979 2.575066478466203 2.029656346322911 -1.3803720654589582 -0.17697854367300486
Ni 4.3405261181299375 1.6581809246765817 4.947194150260126 1.7817462086363507 0.8344880406602273 -0.6615013917554349
Ni 7.062233578804087 1.196081882273889 0.8728603718365184 0.8550254984919468 -0.01772672785580173 1.8323681445582767
Ni 6.860400642219169 2.032574314152279 6.585899836262542 -0.2698575884919288 1.0512163534273444 -1.6000144665490768
Ni 0.6142367672521227 3.9329845755722084 12.94487643491003 -0.1153923954300916 0.24896788952711318 0.02377627648399131
Ni 0.3256428721535088 -0.0817719658280781 6.305592047783141 -0.5009311142371243 0.25561213431650814 1.0616074668536815
Ni 0.9638864299794875 5.928460535150949 0.5290540260324392 -0.5758630876593244 0.12346977312158736 1.0495945015532053
Ni 2.6377656789796284 2.849772247707767 11.998779886411754 0.1853909361064162 -1.7246852019573007 -0.11150334478833054
Ni 8.039423989278555 6.928904961952778 4.3200353795440405 -0.23542717472820102 -0.9612891921478928 1.013229589770926
Ni 5.556088828985762 7.432537019094003 10.032694730241637 -0.30864550789340395 0.29805821929586085 0.3906588136424175
Ni 2.9507073490261293 5.040736598551341 11.000171744312697 -0.3992211013901318 -0.5117749989301638 0.09997966041944717
Ni 2.8246083462253138 4.499279498826346 -0.017908201195694674 -2.021483837814448 -2.467629628780576 0.7019332745182363
Ni 5.652225926134016 6.399363682292967 5.5977783611418825 -0.3494915953754884 1.0351024785846175 -0.21217771728195714
Ni 2.2280440723912087 0.8086155618244119 5.270031820363888 -0.49432903553957447 -1.4005732229971815 -0.5581469013264839
Ni 2.716583378550733 2.9975414596341605 5.74928442641319 -0.2571990191876538 1.6762582168041644 0.3254193849176331
Ni 0.6244215792108853 4.865148278951269 5.834112208489414 0.470856406338931 0.10446520699462655 -0.9045793981606743
Ni 3.416812491998039 5.93165609909337 6.710871540996206 0.18458026727966276 -0.32683349165634035 -0.528824755323599
Ni 3.9954517949131363 -0.13929491174555683 0.49554159729399716 0.6573261773318227 1.0762221314430627 -0.5256443007130883
Ni 1.9996497573810874 5.65531900843397 2.6090195782672594 1.2666488302011734 -0.0364448730905953 0.9245373293398401
Ni 0.33678821659758823 0.14720463124152228 1.6638910154646585 -1.2987701362157502 1.565337998212814 1.1862450350311247
P 1.5871518299330711 7.750444390543742 13.289449529730033 0.14245531308515466 0.7537759702211406 -2.137079607504597
Ni 5.072068031607797 7.801042372384248 7.7365320417530175 1.3248982007613699 -2.051282409233119 0.5960503612404767
P 1.700608324658474 3.8234503327994567 3.861673190486262 0.08848682928849923 1.601094586987133 0.7753464973030647
Ni 9.532469721886836 2.4791986285422527 5.699350711946139 -1.1941439781632275 -1.166610548629649 -1.2493306506377
P 4.461147011315173 2.5379392427025147 7.22556229901106 1.0383991470580183 -1.9668964894868708 -1.113614970269224
P 0.5305260350788027 9.196460365772008 8.675251775296168 -0.24520765115373253 -0.3453202376066182 -0.2105332396999987
P 1.5793911746443323 9.063131748920698 3.372711846290027 0.0021640975308543377 0.019569437491495333 0.9834770410988417
Ni 4.0999551206919875 1.831840726095658 9.443224981020226 -1.5546440088340774 0.7023492790097324 -0.5973819355677066
