# total energy = -340857.7877210821 ev
CRYSTAL
PRIMVEC
9.40518338023348 0.00000000000000 0.00000000000000

0.00000000000000 9.40518338023348 0.00000000000000

0.00000000000000 0.00000000000000 13.76543656747947

PRIMCOORD
 96 1
Ni 4.220886454218037 1.565737323723051 11.438940595380377 -0.07378011920594389 3.8701221802876575 2.4459207763485744
Ni 8.620405558124148 5.0032472361720615 7.874889582422586 1.1909164723648649 -0.5480051849067917 1.342983597508171
Ni 3.78701593546057 8.11471705837273 3.3492958751079187 3.31754814506326 -0.9134021386586268 -0.14084734516808645
Ni 0.04347640111873288 0.746760281474938 12.141569874966914 0.1445016540912221 0.13551102055683759 0.5246076319184578
Ni 8.44551617145802 4.822423178734957 0.877469759298609 -2.026299514035536 -0.48555643155326705 -0.8615890106420775
Ni 6.877126585995802 6.593118260684856 0.18579657793887258 0.20716663722061096 -0.29238250906732227 -0.29306925072170176
Ni 7.248584307231546 7.070243218231112 2.6622349957229643 1.539339517266523 -2.2938816762297267 0.31839410263973555
Ni 1.6925850332130241 5.679715057412243 7.1144598072891085 -0.4272083306316772 -1.1619128860436634 -0.7183847352060402
Ni 1.5429109434359474 1.3772104210221898 0.3958923878966 0.5861367016711905 -0.8474304597535082 -1.54614368467255
Ni 6.365794976161044 8.136320764808442 9.823098097227364 -0.5974546977871711 1.6866693848351597 1.819364018989125
Ni 5.6749278190248775 1.7026485795283106 6.401547840612381 -0.29467567597687316 -0.5673882174190938 -1.9025091243497363
Ni 3.065186914333821 4.207136075981636 1.439506594268856 -1.0795545382504055 0.6096656380310661 -0.32143906011364637
Ni 6.737619499552206 5.365760627925716 6.625910373379135 1.0083794607674763 -0.9563881553018498 -1.4974580465413887
Ni 0.6438788605089024 3.2525663846510695 1.4768799718324583 -0.10265617881034579 -0.37809408960352947 1.2402333163221222
Ni 9.237686559773584 6.313868958210859 4.434521434716364 -0.8957515154563992 0.9571065215251128 0.6607454874260169
Ni 6.843521865449522 0.16838099970334328 11.955474212193625 -0.5133677973385804 -0.08522229960461451 -0.04859693507209695
Ni 4.582562784642662 7.6705290533462245 13.740603429218355 -0.15963850973266056 2.3413442405870644 -0.9740056112732967
Ni 6.137625225124731 2.9690753444310967 0.5059875845858361 -0.22920227686441172 0.46051260121076176 0.6245957769783372
Ni 7.8645673935618134 8.987988343769334 3.3692010054085477 1.3229392772627862 2.1766877088145224 1.1450487632984732
Ni 4.9069381574164215 5.21271948246558 10.711147747413886 0.6984049496500037 -1.2415065266075909 1.8560366918198101
Ni 6.256252804259975 1.2037318118768974 2.0830271172874664 0.07573261494662441 0.7952398937928821 1.576467532467072
Ni 1.179240714115209 2.760487185383968 3.8717491143985896 0.6748569871267345 0.31172003305366963 0.13847601672243248
Ni 2.022716378271788 7.900260064838928 4.688466091058325 -0.47444000992513125 -2.0386994303617856 1.521582450393418
Ni 1.2315429394042832 8.332710400892088 13.628718426114354 -0.11203222070860706 -0.375605775964037 1.2875354438421955
P 3.9232970439731907 3.804791732223086 12.34703269154622 -0.2874825006625436 -2.0176135562257644 -0.6291504862285551
P 3.2595638411544092 6.1311732692627805 5.282954571081157 1.7110370150462468 1.2098806721721937 0.4832596650992903
P 0.2643477297805948 8.89288312849814 4.99897352080228 -3.1011175660422206 0.8402593959263658 0.620034639970216
P 7.147516205638958 5.5169395470583495 4.406178914322798 -0.31425102700563945 0.6277471781231253 1.0506321987891
P 5.105387528680485 6.480735723375173 1.8591461299144907 -1.2098302785502326 1.0567766211239413 -0.8193689256306018
P 8.373538302345041 0.1902499323129737 10.3817688170329 -0.4159972924072062 0.46387663258698825 -1.5258656511498045
P 5.113786357521187 8.175389896952089 11.663510042183518 -0.7189907442211553 -0.4835625410516898 -0.2445635898118304
P 0.7943862495416188 4.257698342328347 5.581554098030921 -1.0558070581218204 0.37604414905303624 -0.7212409737079127
Ni 4.218676236102063 5.153570283608723 3.521845252126155 0.10853269219578082 0.18737017131997408 0.12093903627993365
Ni 0.3262046809591078 9.170166747626439 8.524136921657439 0.27010338595414773 -0.4927539777429707 1.2742765219497603
Ni 9.216825862832176 4.371021397985253 11.494607995315814 0.16124930586320615 1.9516562754983482 1.8672947812321323
Ni 1.82631733700467 6.52351990299035 12.079335775931165 1.5037374517921973 -0.025166471963298593 -1.0986796891156303
Ni 6.360810228920762 4.975671238231482 2.5185520078176986 0.3592291343782265 -2.901272145073371 -1.2397036690708971
Ni 8.996462414077815 7.1403964817504795 7.071236405605778 2.6694347445789575 -0.26608218060989663 -0.45723341623885766
Ni 7.534464264053466 8.58997038440801 6.304748751797837 -1.2372850323270757 1.551467925098941 -0.7779859918084407
Ni 8.061041676296709 0.43535935930112096 0.26752668179420874 -1.2907292681891447 0.33376724266169616 0.4731932820022237
Ni 2.7905179362108004 0.0917644941018589 8.205714089503253 0.12124911132118471 -0.034474636738101916 -0.507690287337829
Ni 3.519400844941722 0.22729883104678425 1.496275341188892 1.4699207603530684 -0.5101001823309022 -0.8942469058864148
Ni 7.952900876733002 1.6713575341161997 4.87555211965124 -0.9188271663289401 0.20591219598821958 -1.0404249192387953
Ni 7.488538753158564 2.5364086891580753 12.56101566383302 1.9750008637615597 -0.4673738471069692 -1.2087385881479504
Ni 2.080191454470589 3.3133520854320957 6.9097258924289005 1.4678350814686334 0.9091253656601439 0.8266968267505826
Ni 9.10822420927833 7.1177958258667084 12.417264018088408 -1.437866045910369 -0.21116136020230086 0.5860027471964876
Ni 3.5168520402207477 2.5471682190503073 9.028447562030175 -0.23447278123473167 -0.866427055460669 0.3880113487172414
Ni 1.7693407355298976 0.5187711099612919 3.6204614223875335 -0.11241660063121929 1.1656456136132183 1.9627734684574327
Ni 2.307618196012595 1.458367749204067 5.689171969393571 0.4905829382335809 -1.1154149995924403 0.42741633287742514
Ni 4.243722239688612 1.2378444123306778 4.1429287694534125 0.5226057709970806 0.08892545948781459 0.007659573427786809
Ni 9.153453736596285 0.9665518950741877 6.627988918926499 1.7248016729305071 0.8846446069099603 -0.20302844668252132
Ni 0.27926529128589966 0.14532983553125348 1.77744800368296 -1.4251835653466938 -0.38804374461707364 1.1640502441016405
Ni 0.8016978391729309 5.541045032297676 2.181257675026484 -0.26744640794727487 0.897206502735371 -0.4496304070806192
Ni 4.9002416667841935 7.585609651775456 7.977772884425317 -0.36553605043286075 0.33993377648372425 -0.28735060307036964
Ni 3.790279534125434 2.1632204141634404 0.06635074784154477 0.40261624311460986 0.5820499331963266 -0.05257186055944494
Ni 2.7726198720631454 0.23102422422013477 12.506036723327751 -0.0674552054291806 -1.339064979180055 -0.622791891000379
P 7.844703646068463 3.2540712140066264 6.909327112649678 -0.32973986666985794 -1.5037893880760553 -0.9105068193887028
P 2.049389478599034 8.236297865118253 10.750957067496795 -0.6223612312208636 1.1146200144949707 -0.0331515470513042
P 8.215945048084347 2.0383571983861075 2.1948161875200514 0.6792641150554947 -0.047955959053988376 0.4320525460978559
P 5.961296845387354 9.242850005499838 4.3218106565035015 -0.6720053766105523 -0.10979664650986896 0.9093873610722789
P 5.49742379135347 0.7492498335400374 -0.0400463307064104 0.5857070703329397 0.13222875026114 0.12332116335886502
P 2.218334789310711 7.566216163455716 7.419942047503851 0.3967595272235167 3.0228698979832265 0.6585736765856787
P 1.059456297412881 2.131402678476884 8.237251550722338 -0.10836094250460693 -1.8770968549242188 1.7997747840032874
P 7.48687403568398 7.297735796057424 8.438033407487515 1.2073602197431852 -1.6860278945964187 -1.7631481339191892
Ni 1.8905923608538935 4.559679973254725 9.275564055171296 0.3179559866610524 -0.5862984240600355 -0.11035586144744865
Ni 1.2232851883156646 5.062622159432253 13.718552036049363 0.38282800474408907 -0.4783406305311182 -1.0694156500441905
Ni 5.785231810787197 7.1290726408499125 5.578058191334293 -1.155255785738462 0.3158723646591463 -1.5150045400655843
Ni 8.81339992297432 3.001645494795431 9.770280467884012 1.073223968046687 -2.061279886765463 -1.9681948965833198
Ni 4.493495697160639 0.24927498274799814 9.896055045939804 -0.6112203841126957 -2.550009573840389 -1.830397393985151
Ni 4.6233248498113095 2.932000111183564 2.407093059524989 0.02583804410902647 -0.3592525314169942 0.5316547685732262
Ni 6.033265309316861 3.403924002269676 4.474290312510344 -0.5794209802139118 0.18194745764250603 0.3968034930875746
Ni 8.62396071747665 3.8886483480614933 4.142116161601412 -1.1477165399386235 0.3247375283592601 -0.5609622592880921
Ni 6.080526356264819 8.49248565771834 1.4661843971878379 -0.7045593992871737 0.7261443245468011 0.003002277161433539
Ni 7.508741087256916 1.008499013360336 8.32021561464923 0.03194415700676435 0.1784715832787636 0.2808680806698195
Ni 7.320675038546193 6.387953588421619 11.12905296722724 -0.1473509506145591 -0.5130348394791938 -0.3637807583046509
Ni 3.632686279864739 6.9273408605540405 10.1278373279478 -0.3102501333763625 0.9557014136474702 -0.6194623124065138
Ni 0.576829307535371 6.472271058250166 9.445511958441115 -0.02200658617807823 1.0327216370572665 0.44304066967824346
Ni 6.118645564877769 2.0190013308002572 10.104656372243793 0.976755406104292 0.2926311347430186 0.6494735140566233
Ni 1.8433407190894073 5.289785555837037 4.028358586468089 0.822526497422977 -0.8043791370899889 0.42576619886851186
Ni 2.8766129857155986 6.729060782592476 1.1675086882519488 -0.5610946711008982 -0.2622705201732902 0.9760871763926737
Ni 1.8553041124660845 3.2570620623507955 11.271662823698325 1.2550510980612448 0.6841312133398089 1.252889828743868
Ni 4.4393594610944795 5.309875027733722 6.998595471058006 -0.7628941304723249 0.41586153816029026 -1.9168797912491116
Ni 6.44593654452792 4.619421698670334 12.51205227867659 -0.14530486671880782 0.21299687074914284 0.5671737874154426
Ni 4.253531846050149 5.668466457979456 13.01709276128677 -0.5929940909126561 -0.05838512480711235 0.09414942689091528
Ni 6.213835426800215 5.52705952447447 8.831601774548126 0.4505919996629401 0.3367972877372716 0.9698417097035943
Ni 6.061518480467442 3.177108597653364 8.090566428252735 -0.5659777102248124 1.2435232999273036 0.2051146397875887
Ni 1.6226198733631012 1.2414748131509585 10.412754193982163 0.425948232972331 -1.8610927661864787 -1.728732889664113
Ni 3.9802736454479635 8.75787171975427 5.830061617807584 0.21047693254076658 0.4579571817787597 0.6822615071209218
P 4.048752786309274 3.2837351626780418 5.862946841818238 1.294761015056357 -1.2976522205612233 -0.5045077758447892
P 1.9570587924521465 8.393317403187142 2.368825249013178 -0.34483147089565774 -3.4873096021625356 -2.440245323230352
P 9.019956562391446 6.959525398396014 1.039774069960544 -0.7938214161788006 0.5053017325009943 -0.9246368310321817
P 2.497433608849152 1.919296980811141 2.232767983867196 0.7831333403373352 3.3513722927015572 0.13470215150229706
P 5.458034882971769 0.34862945991194705 7.977318614063607 -0.9649103338402478 -0.5360297577124704 0.4245492957422753
P 7.264337989547532 4.164069740862293 10.539355487665164 -1.6275548380611904 0.24581288883789923 -0.06024634638556721
P 0.5563890222951724 2.883685683686716 13.09541818872516 -1.3940151101636895 1.1990272743974577 -1.3841942674185257
P 4.118332333636835 4.585224451565304 8.870626702329453 -1.0335821852853488 -0.5636086957720036 1.0734137154599899
