# total energy = -340872.05574394856 ev
CRYSTAL
PRIMVEC
9.18777600116280 0.00000000000000 0.00000000000000

0.00000000000000 9.18777600116280 0.00000000000000

0.00000000000000 0.00000000000000 13.44723889233529

PRIMCOORD
 96 1
Ni 1.9921394832325334 1.511701499984696 12.673282555424045 -0.9258907580439409 -0.18664409178722693 -0.3374948280249284
Ni 8.028939995348233 6.528511896244092 6.193502621910569 -0.6813395095272847 -1.0705695611429755 -1.4364233999265712
Ni 6.545996233551097 0.1745649834639602 12.952016703112584 0.8977500339436667 0.4990657788936115 -1.4603459721804397
Ni 4.566214308741014 5.8401637348983915 1.7885365344197601 -0.8683101314159948 0.27515791765891967 -0.37342625181421496
Ni 5.370659204827294 2.6642895958802564 12.435455141835341 1.9640549062730173 0.289804721037817 -0.6144782289283611
Ni 2.9610088146557416 4.902266395625428 7.259733894483859 0.7233402794391026 0.5382308791288473 -1.6949393381534357
Ni 1.0726085077413383 5.249738887802858 5.441169871263913 0.3053195288439645 -0.15542344321004847 0.731594806138411
Ni 2.6552120734108278 0.16287905145093834 6.271604228695609 -0.7957458868950231 0.3101110366953369 1.4186421646837504
Ni 2.3826934560366313 4.218043545604398 9.344472375902761 0.2175369247113415 1.74557001582611 0.3293212910752006
Ni 0.8664660577033119 7.754170372908237 6.5998908074918035 -0.04250136369732035 0.0785734268295292 -0.05582327761720708
Ni 3.9714620192536785 6.879347114356553 10.942340512251105 -0.4914206036435278 -1.519809931874028 0.9739585600854452
Ni 5.071165277766619 5.790898881172609 8.871183400988386 -2.8669245208314367 -0.0703618375530143 0.04232755712361743
Ni 4.8657725502321405 0.9675095406079497 8.587500717265403 -0.756332418094407 0.11402045478322943 0.28695928116922187
Ni 5.345098812610747 8.60585881204897 2.3498104065244014 -0.13519220376483812 -0.7030560752687698 -1.4607174965872458
Ni 2.480359512564992 2.5660906483567265 1.5281843697318154 -1.4599407663222213 -0.367270002404832 -1.8468064314707937
Ni 8.448830536213954 4.822580816296127 1.1130549342746543 -0.5034469386804427 -0.9066383375722321 -0.5512702288113087
Ni 5.753036057188284 8.123904845797634 9.918683555081493 0.013022894622229183 0.9520008248674314 -0.1134409281306756
Ni 3.2905283929614484 3.757855420172976 12.680060377616046 0.38406779068846114 -0.4413308860759883 1.355078323889176
Ni 9.098369532670114 8.928818318448632 12.560285776231224 0.12297766397651726 -1.558665985509277 -0.07651165920449403
Ni 2.5716860038059997 1.8708332796253888 9.308971729071159 0.11855922319384743 -1.1845149397138957 1.9337413428911405
Ni 2.254533171698522 5.959972331053596 3.490728189625764 -0.1503146612285734 -0.8859622972801193 -0.470068620330313
Ni 8.471809163436665 1.7747199572036407 11.70208320406334 -0.7774463172548869 0.7071850098354788 1.1357323709935536
Ni 4.344715410266346 2.288463627649532 4.923517721001732 0.9301076243387659 -0.05082402463040279 -0.728665805417074
Ni 7.247896364170488 5.385644467122474 8.526773194478022 1.0527713566192902 -0.21470254058633992 -0.6684084032879134
P 8.632861685062784 3.6672180121153777 8.18156916414037 -0.26903483548031737 0.2097444252501162 -0.5393855615585808
P 6.7382871928250445 1.1281118612209082 10.01411790087319 0.027874357812764896 -0.16875821264574162 0.3380069917746566
P 4.447774691176846 9.06269339932114 11.55279195421163 0.9729882257523759 -0.5079975341656026 0.5560784488332294
P 6.362507163473215 0.9192002155631595 3.56889686717399 0.17385079667730058 1.3864110725641867 0.6037873248734182
P 2.8190760544252513 3.8549058957241598 5.1918173117383155 -0.6132968070257502 0.3305842169480242 0.3764699237365452
P 3.403289965094334 6.1531453168023065 13.166312385376692 0.704902127338573 0.30786697785616657 0.0014637290297200597
P 4.414469003978794 7.1907943377054115 3.505977141085794 -0.7046599294207799 -2.3075645730334577 0.8706819740822812
P 5.405664630544421 6.583252664334023 6.978686264854228 1.301490620470707 -0.9163684203758025 -2.4900280510804342
Ni 5.425115151868083 5.854992805005332 12.720079572575651 0.8907556049037048 -2.023095662386258 0.2870004188198025
Ni 8.57282875812428 1.1015591892202532 7.398993011962728 -0.21185041584952544 -0.03977882255983471 1.0441933851422922
Ni 0.967867863863322 3.576847049555363 13.056649850013988 -1.9552293375615875 -0.3921238282237182 -0.6474107179903237
Ni 0.6115604064970238 5.725252223233273 7.865975497582552 -0.2671435319948754 -0.3765046336292226 0.771158427363646
Ni 0.37007901448110153 0.1900142284359676 3.1224214970923883 -0.4513131940996808 0.8371499037631065 -2.0552115690841957
Ni 4.288844545755626 1.4021005227197083 2.3203883921480357 0.19390463000438218 -0.08483791968200229 1.8703957887549596
Ni 6.384309755396244 8.636812428647657 7.639443535536272 0.6631283858358966 -0.028503249646015427 -1.3498440720734302
Ni 3.9068903310804592 7.832836109126093 7.638878487325877 -0.87126381472768 0.734879904647586 1.0259496084407558
Ni 3.1792093016258303 8.69025772035278 9.88320955279965 -0.8482868942165326 0.9954619813748598 -0.3204862092820739
Ni 1.6825206272636501 5.424334190926888 0.7309757658488969 0.20619553155659326 0.6247760113099433 0.03414682108503797
Ni 7.08699084695683 7.27395289627909 11.651547680947354 0.96780179645543 0.11177433906153007 0.12690888071012335
Ni 4.853258799621451 3.1850251636937936 1.215515172204379 1.437658557885253 2.1901271221488794 -0.6410359248122315
Ni 3.512247798054807 3.8480518149931946 3.052455665759451 0.25976086637755913 0.7565895284105356 1.1000948242956021
Ni 4.918887082009229 7.963872167282959 0.09455415687209026 -1.2762053635413568 -0.9815394577564965 -0.12543718126060333
Ni 1.7653576136850708 8.369788101189167 4.419287073597182 -0.2582110053919359 -1.9464323080952477 -0.32301900300625663
Ni 2.2548363682992214 1.8113240559062738 3.815708087919179 -1.3337952461406835 -0.22382224349942095 0.6378770674682757
Ni 2.6177810748881054 7.477958269670974 1.7633096584639822 0.9439275609409937 -1.096085703136209 0.515520582015525
Ni 0.9315945250887248 6.975267493486947 10.525597703367191 -0.5842975915799227 2.2224962825082044 -1.5218323616206952
Ni 7.826377102753617 9.149334124914972 5.5935675081064264 0.6443714169433676 -1.094809664637263 -1.7488008640585817
Ni 1.2282310538822014 9.038437671265177 8.620204605149945 -0.18963531320506696 -0.06164888316004867 -0.11848800363627982
Ni 3.39799780624576 6.885897998486818 5.4061929276517 -0.2959226610100968 0.24874677465524256 1.0358997776749321
Ni 3.347272096171152 2.295630092756975 7.117233329710241 0.3516184119105041 -0.034444297720798746 -1.9033035952265738
Ni 4.127387761995241 1.03447005048365 -0.1280307366996289 0.12907760622666803 -0.13791191668884636 0.7003163077401036
Ni 8.669337154904515 5.0139897490953125 3.547570202036301 0.6269434512749074 -0.6312767885429386 0.988530287252033
P 7.495295602565519 4.2496219309560415 5.70667178427586 -0.32361061384366846 -0.2459879809631828 -1.0747627732887168
P 1.5680225655085767 3.254833884060914 10.978057071813508 -0.412393891326664 -0.5489948025135706 1.390419165282315
P 0.16352770842091974 6.729659871368778 12.609932841429405 -0.40605766469599097 -0.8007981046069499 0.43005814137564646
P 9.086599991897506 7.323401505520448 4.2572340031887554 -0.5944408506615116 -1.1400749642329655 0.01651291005335866
P 2.6484958093165445 0.23632337469371897 1.4056267910636018 -0.3209554356090085 2.940765832292619 -0.6578586527965251
P 8.310903646223007 9.030030856427599 1.0761246695318747 0.5901651061042933 0.7828106668905938 0.11930072934556228
P 8.208919335078624 7.461365146614508 8.135404265962347 1.3162994033487654 0.5935653900350938 0.9131576267479887
P 6.28180174103247 5.559155612704609 10.60786780402306 0.7902195577601552 0.30347270544321286 0.6029427174849359
Ni 8.362805391597298 8.837491827207625 10.012141610303177 -0.19291758350076452 0.16482416769865804 -0.4975670828608979
Ni 6.159595135399005 7.736125581278726 5.088286697930363 -2.188246617296715 0.10612433986460432 0.6320082673923245
Ni 5.346109467946412 3.708572190895636 6.7057211215771835 0.697645702886476 0.6089249032102996 1.108738101792897
Ni 6.87000314638954 3.374293344736525 10.610382498253712 0.18856470584870752 -0.2725148236091178 -0.15270553005825313
Ni 0.054484429145703894 2.173901251464007 9.64644424609097 -0.04370361153553763 -0.6534332700353198 -0.4767892268835982
Ni 2.393066454890867 8.156346882072482 12.816563162361284 -0.011428296441599673 0.04363290619860228 -0.5490439105839512
Ni 9.009073539876217 4.669971860610701 10.032217819157372 1.057993524250178 0.007870146776696124 0.8138788490503079
Ni 1.1929959337706055 2.6080052814594907 7.633473318835224 -0.5619030259348065 0.8394574688503605 -1.6018756881275316
Ni 6.758959688327286 2.4478807251870283 8.27038831137135 0.18518447652256495 0.5305913603057185 -0.20784695111708718
Ni 3.821076505306716 -0.08871808169741344 4.258189531869748 2.240599676977135 0.8234109569104593 -0.3230064046007663
Ni 0.14608379732734064 1.850684487342539 1.0365694572490998 0.31144801033920555 -1.1715213556677049 -2.432505274273617
Ni 1.8940048501394553 5.414668650807619 11.706304987033686 0.2148169546770171 -0.9053481580058989 0.11694431329824377
Ni 7.434885976820084 7.110529928502048 0.5795116070255065 -0.352002020502168 -0.5875734341177171 0.07884724931620615
Ni 6.810815494822682 2.0285782019711487 5.506939645398684 -0.5461408780045433 -0.33565828903682193 1.236673881105638
Ni 4.453461924383907 4.369531592644813 10.80228757094495 0.324983325821479 -0.5930141455173142 -0.9994546474740207
Ni 0.3037699179081163 6.789398789482361 1.998232816129016 -0.6260597631183734 1.6163044619583518 0.9244180301531564
Ni 6.92161088293891 1.5547278539566916 1.2861379295054984 -1.248928787213591 0.3901749320274635 1.8362093726812374
Ni 6.563342754221422 3.3894256114441648 3.676421407112975 -0.6846084100865436 0.7805925761933524 -1.2060697830665357
Ni 9.310432585419983 2.778943849823569 5.1661466662124225 -0.06715052970456822 0.6028221327466714 0.83072625962495
Ni 7.508029859794899 8.282862554546192 2.8540419727065287 0.7049090693171085 -0.8336269782115128 1.867695873325293
Ni 8.694971049327291 2.3566277361522516 2.985044954870591 -0.43425958105150375 1.5926433708959862 1.852157925590694
Ni 8.00783567438439 4.95708066592159 12.141888248929554 -0.20953436612183912 0.16246415210691373 0.7377564548644326
Ni 4.728194795720789 5.044805549057318 4.937355430102142 -0.06235773630161519 0.10795830774954955 -0.3127549020760872
Ni 6.548936321800305 5.957307876077753 3.6435291698249657 -0.5489765476811255 1.0376291016612131 0.7369943798874274
P 6.43879326576437 4.917049526853475 1.909991579994521 0.448974261553859 -1.7904833313990325 -1.5133693184550066
P 1.3011176791352104 0.34828193522353956 10.961812165459058 -0.012922878709255162 -0.4984132329112771 -1.520118464253382
P 0.6445169582154838 0.7138130006941483 5.679132345156565 0.6039773293970373 0.8969663617001068 -0.48558599923962176
P 1.0512377412799114 4.075467641069393 2.2751248147739087 0.09938162182413209 -0.7122595961449087 0.8576881329257745
P 2.4194629347032826 6.673256115862888 8.844114375988964 0.21544456095868703 -0.3027880206713624 -0.03444918281680519
P 4.722581064719958 0.5349426255002548 6.220867493290067 1.6434488835836276 0.18525929562455834 1.1289482581921848
P 7.50396886290068 3.0290810454006736 13.275691937245412 0.45347523474800616 0.5222355321418555 -0.6803938577845637
P 4.326303107605685 3.1327007806336793 8.731009181041953 1.1202612719411482 1.6549386293907824 1.0753502703610707
