# total energy = -340884.18117074936 ev
CRYSTAL
PRIMVEC
9.08980382647868 0.00000000000000 0.00000000000000

0.00000000000000 9.08980382647868 0.00000000000000

0.00000000000000 0.00000000000000 13.30384671150501

PRIMCOORD
 96 1
Ni 5.365002243615197 3.795711227108766 9.557829732942729 0.6165821626452413 -1.6578231500274287 -1.362849997414795
Ni 4.384185132269279 0.2607619317193568 6.336941343481809 0.9873365240542481 3.383340875188354 -0.16455034521198114
Ni 2.686900586900241 1.780583508404115 4.975745025857377 0.20012335722058436 -0.37558366447684993 -0.08956437862339414
Ni 3.6012803214649085 2.6719660390754227 2.9100298214500726 -0.05099603143189282 -0.36108701352257166 -0.7870373033774316
Ni 5.070583494956732 2.946505386581802 0.6839877466904107 -0.13498934372541266 0.5442230921565402 0.010602200995878516
Ni 4.479828049014705 4.76882927454256 2.3507369137831784 2.4951550878943545 -0.005888597570293084 1.2755993545262418
Ni 5.3997889231803695 4.46387544315192 11.938193953591526 -0.5081980802121828 3.5879173830842856 1.3734676250296411
Ni 5.43433017803996 8.232626311862385 12.57945235005984 0.5583374200707353 -0.2956184995061167 0.33500574305448755
Ni 2.1753355126257823 5.362984307147083 11.787181405306175 -0.46566894860072056 0.49096063328797385 -1.1831676816573817
Ni 0.6313750526765157 7.595267441271639 11.514998134973377 1.0397777725730997 -0.02283602405790906 0.09002666297179333
Ni 8.051784663064602 8.83422589386954 7.451338577173677 2.2015801011808276 0.27442463903732095 0.1558978117433057
Ni 8.602363175722578 2.751629080546333 1.5233038805628398 -0.6838645899419835 -0.14344261669908845 1.133100075577029
Ni 1.3137948081923791 1.320848496026864 2.6943878583812526 0.45889306332946767 -0.498918968903102 -0.5304036697749446
Ni 1.97082401444527 6.5835904456498495 0.5179852027763876 -0.18169600375333225 1.2623576590249872 -0.4172509623086491
Ni 7.847364062923194 4.147513907853704 3.6744959650221585 0.6524436524285409 -1.2723142560170668 0.010790405747284643
Ni 7.432905363823739 4.158794354506534 -0.2895511586644352 1.491133904095574 -0.38103928827478245 0.7555181497232278
Ni 6.995731244752148 0.8803193303319371 9.385717931820514 -1.0412484435813552 0.5386540827091949 0.8694424452482252
Ni 6.70363039609084 1.2568471866936055 0.5827273311283455 0.6446688935791284 -1.4844922304093402 -0.5416743575927574
Ni 1.9886672995214218 6.839559323767242 9.201912097967544 -0.8333966073682615 0.24928002145089329 0.24874960286872
Ni 0.26850189974907845 5.250552522579113 1.543365986773525 -1.223261207244158 -1.246828967261769 -0.2560934448283009
Ni 6.546549494714892 2.092536488805777 7.017752203705528 0.27892921177589386 -0.745447138640471 1.5356109034620264
Ni 3.218135996836846 4.569771658708298 0.4366823606800378 0.41751938547868744 -1.4769069618629147 0.208216418641364
Ni 6.528660760619188 5.750746252161639 4.86524300665959 -2.502228192691052 0.059950155301387066 0.6282763111537178
Ni 6.340201856144476 2.367012207684783 11.684382994922467 0.5927673196138307 -1.2537364930148795 -1.2482698134733534
P 0.21326316138546347 5.695416615758919 12.71243799923005 0.2690800868959559 0.7873674330233408 1.9911360787605255
P 3.9269316363595714 6.283481479743462 12.626122130277105 1.368127186653334 0.9823922926750952 0.059484528518878206
P 2.271841960742698 -0.5666320153441669 1.2287169705320324 0.7664983028838154 2.75189773627088 0.1018701925739407
P 6.5948890719105 8.063492330501221 6.265260058824637 -1.8475335394448054 0.0717502332601087 -2.5606863368279447
P 4.603113059451714 1.254620184735553 12.402751106943256 -0.4315822913296567 0.968991188777841 2.2659985766662136
P 4.08164918871881 6.223561492365982 8.361720615978543 1.1400487389807203 1.373453483962254 -0.37741249015547257
P 4.628000942558441 1.1660400456285218 4.133079299243959 0.9466704137934535 -0.30777647502488925 -0.622140116348993
P 0.3178277206689659 6.052073251792021 3.5054437918961896 -0.4529527865856328 -0.4173738610397586 1.82523718994045
Ni 0.6988223066722141 0.2007774067341122 4.832183389837397 -0.5641306297137446 0.01562665079366341 1.005731738731984
Ni 2.1334133369909307 6.639610907149761 4.733335408233157 -0.29922807123424594 -0.6741085389964842 0.6337417051436635
Ni 8.340131422710906 7.057905503499413 9.44091485708614 -0.5448316722748165 2.9325904955706785 0.22557573585541796
Ni 8.668100637602727 2.5256111063137703 10.159801996910213 0.19127773390449637 1.5858425459240688 1.2370855147217596
Ni 3.331058630815978 4.19647159171522 4.7482226890776404 -0.14099981158555072 -0.16189311009479215 0.6091190214989768
Ni 1.9757415983608064 1.4021386123977393 7.296827363363206 -1.085816459999717 -0.6702925076845037 0.20655882843328296
Ni 1.2182700588977882 1.307104712514311 11.731944484903343 0.9180699764479415 -0.26603050143635476 -0.4791757248379037
Ni 3.8661208481988703 7.443013225772124 2.361951913847853 0.7926160830167898 -1.296822011350444 -0.5018052893119616
Ni 5.997416260878674 8.173624394679855 8.278331663884751 -2.1215848543031073 -0.519107528035835 0.8693704543597092
Ni 6.763604922291783 0.64440437760171 4.773167837949003 1.1417286977863048 2.5185287296232888 2.4105827631689127
Ni 0.6683978240036514 7.26017182011405 6.631754589629986 -0.17916552402199468 -0.28966948101153334 0.5543951475935356
Ni 5.134702971740826 5.009090971502749 6.7891127300252005 0.32601793773358045 -0.5606349578556602 0.4271083147187032
Ni 0.27321950797858574 0.3365027228029213 9.643839275503893 0.2255561954713922 -0.8952138977853744 -0.44309312018273367
Ni 4.591196326525155 0.5442047421559906 10.433528715947 1.0979258416687414 -0.09791814990472814 -0.11058623229069987
Ni 8.019097728202736 7.428896760299244 4.720524238601812 2.1174091256588627 0.8107554729299778 0.48163087124661563
Ni 7.362541191753187 6.28016370131616 7.11886172852268 1.4431761452693725 -1.1057725914066696 -0.24258641148080157
Ni 2.4213056064417144 5.496068126199525 2.629079435245676 -1.4771321904998431 -0.0995780541056543 0.6069065872286902
Ni 3.266493753640274 4.8240498332983535 9.690628132152384 -0.28694591143278325 -0.38349366335254603 -0.6448817809208829
Ni 1.157404731913624 3.3611186123477332 3.7718532187850897 -0.6145527909200384 0.8191138721970022 1.2554185087029928
Ni 0.2577077576054561 0.4749004412213936 0.6783157090503094 0.6126275488728674 0.18968853504050556 -0.5331012712117658
Ni 2.5173939235787515 5.5770219198257145 7.030431571180171 -0.7729384020822043 -0.8709995053227 -0.20714169751994646
Ni 5.536081443013188 3.020023720609269 5.216531204503197 -1.731573958657334 -0.059802573979929254 -1.701036195079793
Ni 4.4829640313637995 7.192043739805461 6.087015367004062 -0.25927569921102445 -1.4821041897931377 0.7241933714680173
Ni 0.9633374184261829 8.020788431730073 2.840184677182806 -0.1569455362815297 -1.1115318624879502 -0.6471163266783566
P 0.2530146918465069 5.664184049522721 8.334980230834873 0.9002967116249204 -0.7193995496237997 -2.147148818815141
P -0.4570844255569728 1.671169538734404 8.083709872358774 0.18465585771260457 1.9154291748455141 -0.3894707068715873
P 1.882880161611968 3.4462446259688053 10.948560641432893 -2.8066918012926245 -1.075354641236445 -1.2369268776567084
P 4.302676860604553 5.993044065197761 4.3244951169307315 0.3777097096809172 0.8554659284634751 -1.4686028128725932
P 7.088719938755732 4.454722010614128 10.748749480854459 0.18032817687152813 -0.3412126431961478 -1.6934977206109025
P 6.513680763774818 7.981920430209123 10.538735015386578 -0.5907268921450342 -0.1456563365209556 -0.593079708647927
P 2.3709935417975463 8.518500644845055 6.236989859682844 -0.21684401240937493 -0.17508055531934363 0.27920380559351915
P 6.668652830643548 4.104082824769724 1.8142721396569093 -0.18757277424908342 0.4453276659402073 0.057316317222965804
Ni 2.8070587047920665 2.0117008626304234 0.4595977563382036 -0.22216799572544962 -1.0397631172850803 -0.47660256479408886
Ni 1.3293474626831057 3.7387636056099924 8.634329289134348 -0.4906145628024648 -0.020904354252834965 -0.25425484895766537
Ni 7.834074769606161 8.899926996534047 11.991502017604569 -0.19997397612691364 1.4567582548291815 0.005697307495093414
Ni 2.7069436045227144 1.898487354926157 9.558654178157404 -0.6016805629430606 -0.6334336869849414 0.1288552058032168
Ni 6.389268617652917 2.101389957814525 2.835435254639612 -0.48208209985142136 0.5314053715665816 0.2063863074111607
Ni 4.437996771418957 6.910677949562359 10.547423049964157 -0.08644743026096725 0.5800354738694592 -0.01899376749368342
Ni 7.420043291290496 6.559320669209031 12.234017985934543 -0.9561541849141727 -0.6428835195439315 -1.6642555359163338
Ni 7.819567442565134 3.8964353442401163 8.351143720148379 -0.021080474819383053 0.4010499270687545 -0.719722223070541
Ni 3.088769907583766 8.620233730210462 12.296054079662367 -0.9605268600605715 -0.18415397837552155 0.5660293893983541
Ni -0.03322232431218962 5.319471415827908 10.700683506756555 0.5471086412344512 -2.0744061397347755 -1.3503927454880487
Ni 8.859468279328773 2.5503171933422886 5.829759372652953 -0.546822220342284 -0.5843323014726001 0.7603022013754326
Ni 3.8592762258543245 3.237279123872188 11.240486965859121 -0.1501393119929737 -2.993919276387147 1.4156229182414524
Ni 0.8257323309086991 3.3916603534867407 12.986111088423765 0.40367245229326604 1.1287477121456042 -0.9099049241386458
Ni 3.582464427370341 8.699533179524956 8.566905668628817 -1.0242519090233586 -0.976125228719461 -1.2247838145362713
Ni 5.739674870998749 8.035732069358803 4.007783624181965 -2.318224366740149 -1.9514716702913681 -1.3471703818960088
Ni 2.9711569347868574 8.68749827914756 4.133212919361442 1.3686627474418298 0.7650571995619146 -0.32744181466430056
Ni 3.616423934779666 3.2916452410604027 7.38415401851099 0.6448321586298701 -0.02579793489971041 0.5385838915928918
Ni 6.277482209162586 5.925615899790275 9.10282505452046 -0.8530280084459438 -0.47696277634698503 1.1368063207840229
Ni 7.8103958304195205 8.986552827800338 2.7554131659142405 -0.23345308172096568 -0.011180699207167842 -0.7005039982708774
Ni 4.4371332400474675 0.6315359422057301 1.7144797274263766 0.299567971072168 -0.6218909764526644 -0.10712809853877034
Ni 5.800858341119777 5.891338249244086 0.6420955674084636 -0.4746405559717116 0.5155853738151894 0.009421036203583776
Ni 8.213210490709729 7.512450237843814 0.9358480334402944 1.0156765086495219 -0.5413853655974289 -0.4035153578901115
Ni 0.18797623588706946 4.955951977842441 5.576906479316052 0.3213729827624014 0.7229389302356259 0.3753620353843471
Ni 7.214831878208882 6.272828229560452 2.825843693553338 -0.19521897794043153 0.3527116449746829 -2.6363757572414594
P 8.433220104557506 1.740624730413914 3.787139542021241 0.4467970513968821 0.7040032696733874 -0.4434646445895395
P 1.7239812994539372 3.4766772894608877 1.7744533446469286 0.6853355180605553 -0.4152930672513299 -1.0988840918169527
P 4.549737730889736 1.588734107070816 8.341831216042156 1.4454729117233494 -0.27783957825614086 -0.02807953184503551
P 8.364710252484679 1.9579801215198482 12.360777119426114 -0.6704100070989745 -0.6965324152176392 1.508153578582022
P 6.192774326521394 7.949124417700332 1.404846464982653 -1.0643243515642122 0.7735166431831775 1.0842576001530295
P 1.848975193026106 3.266730088541945 6.175605504895394 -0.96345508945096 2.319389333582528 0.06533070288701007
P 7.145403955941103 4.1239531361178985 5.969782348010608 1.2395841127738976 -0.652425911816728 1.80778994099828
P 2.1751900757632154 8.774015032766926 10.25762555761375 0.8561179602251772 0.10296496830001622 0.8252582945318432
