# total energy = -381162.9198713454 ev
CRYSTAL
PRIMVEC
9.28163054410323 0.00000000000000 0.00000000000000

0.00000000000000 9.28163054410323 0.00000000000000

0.00000000000000 0.00000000000000 13.58460450288600

PRIMCOORD
 96 1
Ni 7.195741947929516 -0.10379740370464699 4.313301848836243 0.20531570005480124 1.0959594619709898 -0.7614617689011726
Ni 5.352874182680376 6.64672421344323 0.656222424801977 -1.4295135601806155 -1.9818834498140059 -0.9451089828436047
Ni 5.1654687782575825 4.463545460468783 13.261250450167 -0.24929904761428678 -0.28618203668356523 -0.7260569070393174
Ni 2.1232101373548318 8.482389433309176 3.425738492773985 1.2186877289408624 0.6469785155489115 -0.13204388794384356
Ni 9.251771642650889 5.922924092216041 12.063889467136203 -0.167515341377576 1.6855725522265554 0.023596042152385168
Ni 7.9903980375269485 2.1477043606360833 8.298590870556371 0.09471532669671429 -0.4834746093235737 0.6669336185145998
Ni 2.660653678422504 0.864187569274144 5.960870182796087 -0.46495880990757343 0.6544100321262923 -1.249422439020558
Ni 3.4887514832462916 4.164676953588792 1.6577836966515247 1.082501536693871 0.3615241010599903 -0.5637868732210807
Ni 3.938270137181225 8.217296780358883 9.64536847192893 -0.35914583063580086 1.4551891105698487 -1.268572015365815
Ni 1.955333283816372 5.857033796242717 6.544002550730739 0.1691582762976377 -0.3711616241497543 0.12145505668440373
Ni 7.446856465123247 4.695502692004121 8.621387421248057 2.0769011382424876 0.22482034574663215 2.0683175103385345
Ni 8.304265659534831 6.663022756861903 4.193377611879919 -1.6120917094285847 -1.6605675455417852 -0.04696351323373202
Ni 3.4355677396306903 3.207044711435278 9.888519350026293 -0.09017527273451567 0.714301566275602 -0.4141167875550416
Ni 7.5891995527478295 3.408660292380843 13.046885621362728 -0.37923643073808877 -0.23328955955990788 -1.5891114464833278
Ni 5.039145785132219 8.972923613079598 0.15616436382318463 0.8212777126175403 0.8670657174859326 -2.966600019746904
Ni 7.679584072002406 9.440717797761323 1.1127533506918124 -0.03463250247220487 -0.6678201348846111 0.7152366764953618
Ni 4.7137967860122085 2.4762833672217535 11.849320442457666 -0.3253098559229623 0.3643692838182693 0.7762278714667534
Ni 5.037502936507445 6.082874433180727 2.803576867962614 0.6086310261189647 -1.331344727717662 2.0193793898769354
Ni 0.10217590283036332 1.3441379056161409 12.914516574032966 0.020151792357526586 0.6404921364936196 1.2388518625935632
Ni 4.163758072154595 6.180498624341092 5.218131822393806 0.37839182334960636 -1.3850249908499372 -1.3874541691167201
Ni 2.1073756754685813 8.749384820542401 7.539659777324808 -0.5523477781462036 -0.5047060078985243 0.6297881198125541
Ni 4.964280152321847 8.383623601579052 4.237350265240002 -1.0000938237199164 -0.09466261908190794 -0.6003273913492758
Ni 7.2766963304452705 3.5957594029922357 6.636324146301646 1.2286674658613936 0.02717810307668868 -2.1252731017879722
Ni 6.435576397821711 9.151446496971825 7.815820774823376 -1.5699495288428962 -0.3463360804656423 -2.156784542132692
P 3.6614269398299983 2.8845173280323957 7.347600563294885 -1.4979936073298845 0.049088272886218684 1.025116313906183
Ni 1.6798452045398184 4.284539931782835 3.1364003642438187 0.7666466555362216 -0.1885333383901398 1.789698373603892
P 0.6685901976410326 1.339051572020792 8.166127150593995 -0.017846798373433784 -0.12599151110217657 -0.6768722177845504
Ni 7.756612324753867 7.264546675926453 8.91332069370753 1.535796537110271 0.2525697479457586 0.051378611582292164
P 2.047351370065075 1.816424399531715 11.916129619865186 0.15570883566095117 2.1261272222581513 0.2299142153297718
P 7.912608691062315 6.043743078366875 6.241378696090385 0.06431331736608924 -1.2010713014106797 1.2083179556707642
P -0.1540036002082262 0.754311625657829 3.176637161267901 -0.6650202035419709 -0.06928377399748713 -0.81983326686153
Ni 5.370750603309284 4.431356765379969 10.57913300086996 -1.0790711708560836 2.4569621217644007 -0.01471185228887789
Ni 0.1790129539904665 8.502391347356578 4.734329609332703 0.8310533039470654 0.8483257178742681 0.2500888905054338
Ni 4.340368940133244 1.4030020071885911 4.38123874436755 -0.6832994614671329 -0.09948677994342867 -0.4691378809859275
Ni 1.240517781056879 8.256530233109869 9.51764580890178 -1.4049322712968255 -1.3550878369708725 -0.9030693892740511
Ni 8.384839495193999 8.630496413566444 11.64143604817214 -1.496660747451074 -1.4621079491768691 0.11220114218630355
Ni 1.5125716569935075 6.373640076504625 4.3104496037379745 -0.03487058662493994 -0.3665907169496202 -1.7545408518661525
Ni 2.314541671541917 1.2400351362631599 9.541472682939409 -0.3895110731912195 -0.9727213452442344 0.6767765727469506
Ni 2.507256168695621 7.5452324683661365 11.339925061046536 -0.42219262258464063 -3.3093717799000557 -0.43685588102377026
Ni 0.140928567113759 4.690156472750615 5.320410751324368 -0.3793331042169531 -0.22398885098427232 -0.03089386136537905
Ni 4.1181574207787754 8.135906161202652 1.96457871610529 -2.5503864975638333 -0.36860131962174586 1.2385039923358412
Ni 2.80129822763842 8.145921040672325 13.459041999285402 0.836021189475302 0.1858802170380089 0.9856079713989155
Ni 2.7076558560262387 3.443002325780096 5.359561597562582 -0.455486351640764 0.3926298213258593 0.49014276537236884
Ni 5.612249351151226 6.715027733385151 9.120391088985187 0.04465671947742632 0.5527861512352028 0.9866757505417975
Ni 0.9226117215538581 3.3887233497479783 9.496712019137274 0.2095647051391423 0.26823496528684126 0.28023327529929803
Ni 8.44012088733615 9.54634275454065 6.581578304247911 -1.0622481857614738 -0.6200166422480871 0.8446729516130292
Ni 6.281724088193055 3.6842411879638806 1.5826340459433093 -0.9440771991449806 2.0139456204558734 3.1368289034009007
Ni 4.523263472060891 3.744497534133598 3.7634784688096725 -1.6310021731798425 1.0755001656753735 -1.747657751593074
Ni -0.05986558951941793 7.438549405692887 2.3023047696950045 0.6634058078669994 0.8745882511152229 -1.7976487387992202
Ni 5.037994862931813 3.4667261737175266 5.879186264111365 0.47902068731727826 -0.32874742084960157 0.9729792268913116
Ni 6.347215274048496 2.44929238529607 4.025403301219651 2.031631724881727 -1.0701756681386665 -0.15365735244856119
Ni 1.0912970051217976 9.237283017208663 11.451047527658938 1.9033640161508636 0.7596275439059111 0.588463035811522
Ni 4.0626996776543045 7.33825210490577 7.115914355374483 0.9894268309243734 0.9702142625516644 1.709057779832689
Ni -0.3467700744935614 1.7629250804740668 10.602498577864363 0.07788180007914329 -0.32710422881922374 -0.23700634628986278
Ni 3.711371394349291 1.8434339447186958 13.949487075401597 0.04661795696885519 -0.6027388290042459 0.11948404900096196
Ni 7.439449723865787 5.386334461168026 0.3452107605446223 0.4722211478969416 1.1690178725195608 0.6299303018173732
P 6.375811978076361 7.794054422789702 2.13848862956524 0.7490150584973874 1.4541107899040056 0.7799950518186696
Ni 7.101273511189623 6.174196397130796 11.290558852116641 -0.38880813358692395 -0.3054452557885514 -0.8513146252992629
P 8.589796463173004 4.521861945832975 10.431360159316037 0.1224431316292859 0.2749303750291459 0.9682113731890227
Ni 1.9821293514984382 4.957430308903294 11.18090381130976 0.5326893804853278 0.9039651616154432 -1.4189527539456337
P 3.782162391304996 6.124400448701879 10.148623126503047 -0.9009759970801322 -1.3503570071541067 0.9122888509897902
P 2.966214241000025 6.198532832691025 2.2061944124934016 -1.4807409908970242 0.177164691541882 0.15804031200760524
P 6.039445683376644 8.68406070403863 11.733933066562303 0.9166309300085698 1.5497267740381182 -1.432104203725927
Ni 1.6554252343037545 1.6902963206499695 4.086941440581919 -0.15950892613333176 0.19444918965394253 -1.1499068627217228
Ni 6.676044884661675 2.727416447676782 10.590340569877961 1.9203659500254993 0.695628415346131 -2.026573336522213
Ni 7.063775723369897 0.24770537425655748 9.806780669720746 0.5897617000182875 -0.0940956908348444 2.233486462971121
Ni 1.6440181102368132 2.5267197481654144 1.2885975559788991 0.00782309558884459 0.39168185559029317 0.23576116102885203
Ni 8.57882557574654 2.2374577290065654 1.3697496372274653 -0.39004329154560563 0.9507430412009302 0.8218004178902297
Ni 1.1032795902889427 3.7230476857050374 7.224754469010431 0.5747634268372424 -0.48066747889208195 0.5700621647068311
Ni 3.4996202727356227 0.31052437864831123 11.679132462887743 1.5099307250871028 0.381944059477239 0.30604252305291807
Ni 1.6927466711411596 6.073555676009686 0.1379695832630341 2.170859532168519 -1.690371259166779 0.16197949916101137
Ni 3.4024323182157348 5.1496900061552235 8.238070926076237 -0.36656372036642676 -0.9162609482636608 0.35335133544121083
Ni 5.3952448265905355 0.7540573089780617 2.0631078662538784 0.26302693872334054 1.05335911080196 2.7862417609683887
Ni 7.067126392033987 1.3219733716276496 12.161005953100098 0.14662050020643783 -2.4323826326528235 -0.02467487703886073
Ni 1.3719827975614818 0.1895689525269452 1.2537506018723699 -1.0363849448414668 0.20752530611161035 0.815014505316648
Ni 8.933643752175369 2.963504004850679 3.7379809012553236 -0.9684258031926741 0.5081757116146797 -0.8003569033044732
Ni 1.1028526352791141 5.7640504204065754 8.702175662575204 -0.7295561784418274 0.25468448029591617 1.0536771562630112
Ni 3.954540835707953 0.741492765569259 7.795457805343747 1.8118440564629956 0.6262261134929086 0.4856914144692345
Ni 0.4313758505064146 3.8312622174352806 12.740403392861815 0.3455770908124306 -1.1477085695188234 -0.954988960961478
Ni 0.1818893313284202 7.589478001667283 7.09351406796752 -0.7536106482878698 -1.8032635138828363 0.08949984393404588
Ni 6.508864153421848 4.752751789843741 4.527572005007899 1.242318480985925 1.544755803186088 -0.4371986090751696
Ni 0.04093848830110493 2.111218270557038 5.893313834121365 0.7478729744731443 1.2279696684634205 -0.12342529303689713
Ni 6.099089441923564 2.0753726129927363 0.3707565925783428 -1.5702305504184246 -2.5467193331248916 -0.9970223838834441
Ni 6.441600176112552 7.480168237520524 5.685360755769041 -0.22873202209621252 -0.8476194358358629 1.603236315920484
Ni 5.633559975120059 5.191067515586 7.616467127266837 -1.152222655339093 0.5294081386308946 -3.5257961882735085
Ni 4.895243383558698 7.024718621601232 11.919621369315132 -1.174278349587552 -1.333918144871793 -0.23107326863487948
Ni 5.706068073745727 2.940160703769835 8.282560566263438 -0.9309810280826547 -0.7133667131661585 0.40101701694829
Ni 4.914280008018664 1.1856633439245576 9.89624909203032 0.07091333918111013 -0.2977838825885517 0.15952538119356396
P 6.500343616486574 1.4307448011967994 6.079178487856516 0.4246261717267978 0.05322029277672125 0.12203895421233175
Ni 0.4875501355169452 4.58135719828952 1.3190245975706378 -1.888514095622225 0.023313735025275978 0.6237601684509193
P 3.093948041983952 1.365448529584975 2.506414324795807 1.0204914135396619 -0.8614090334207875 -0.42476526840782325
Ni 7.057241455393391 7.6057672634553075 13.317314283772813 1.8784070890952103 0.5515797896319276 -0.41789528076086735
P 7.792699304715029 4.799150661455328 2.494812286485248 1.5282758032531938 0.4719308703500324 1.3756034404257214
P 2.52023188834215 7.711290122297501 5.6250997687840005 0.15031209012541208 1.6234400445618686 -0.5602078976205707
P 9.919464306608216 7.77087819106053 0.07992504967684147 -2.163450384188642 1.6177730760840783 -0.9235407697545255
Ni 2.6518825374597212 3.879044052013485 13.045201005400033 1.4949296236925804 -1.1416237967773242 -0.32741687496363614
