# total energy = -340869.6617625879 ev
CRYSTAL
PRIMVEC
9.21700906464811 0.00000000000000 0.00000000000000
0.00000000000000 9.21700906464811 0.00000000000000
0.00000000000000 0.00000000000000 13.49002443566836
PRIMCOORD
 96 1
Ni 2.3340600863024705 8.062836799859033 12.00587882958746 0.761338870170063 0.5314146275379623 -0.8672341247429968
Ni 7.391147260581952 3.5299762360210383 12.396348203747793 -2.439763498497927 1.3085277298231464 -1.0582431783671387
Ni 2.7544478720510495 5.876000000155161 5.7129170059718755 -0.14813616552001582 -0.2502850656766399 -0.04880493731784498
Ni 4.839814618404645 7.741034143607644 9.795579211479696 1.6828520679715984 -1.4683349039231874 0.08344566732016596
Ni 3.5291098371642002 2.4449867910050385 1.0657729027115221 0.4435466627803845 -1.1373457382272605 -0.25595511947822375
Ni 8.774998226161372 8.12189939426984 1.0682329224443943 -0.3011162893958943 0.16228468910625599 -0.8434732748779731
Ni 5.170714462652831 4.775553630852813 0.3971452538625411 1.1034472857076028 0.09812589504016005 0.7142280327251893
Ni 7.899262539089903 4.579056213523851 9.817823541278546 -1.1235777379088907 -1.3373438827238904 -0.6130636079690216
Ni 2.4123493617277814 4.324307298586228 0.201944669716101 0.7338874588273295 -0.9150301611803531 -0.7533195994100123
Ni 9.089325888020259 2.1851869550722345 6.377935274051308 -1.7150625912658721 -0.29571414454371653 -0.9709927925889019
Ni 2.073615059731596 1.9371480227705462 9.658857785067063 -0.36811615245521123 0.9466719564553502 0.7874057424604439
Ni 4.3964580459407525 3.2846839724357078 5.694314316474477 -0.5326901518162762 0.22604984727835908 -0.4444632610573829
Ni 8.322092832254034 1.5383188213426406 -0.40376767491188015 -0.14230696043274846 -1.7971769413691243 0.3704481430224975
Ni 8.875482059536312 8.554573453169107 7.322614189305179 -0.09358301286448399 0.4531201654014326 0.8546141219861412
Ni 7.8323009678672895 4.08396456889581 3.4624303064205146 -0.11161467355521423 -0.02517469949341471 1.3157664136634306
Ni 1.3865054642046262 1.1187236983779771 7.616940019682966 -0.7685140477622636 -1.1362324505584238 0.2581924934491747
Ni 5.239325878507082 3.4981867715823878 2.436285012699289 2.304265847677528 -0.2103226663510894 -0.9946950213018483
Ni 9.09306799372107 3.7353035480824524 0.3530003887048384 0.8777779616971141 0.8096894935593087 -1.0638558965682259
Ni 5.824974637692891 3.623040377058166 7.985636053210238 0.43885954171736036 -0.3377743069385602 -0.803771328302661
Ni 4.128178561621877 3.219399896872077 9.845249673602016 -0.5394727219557484 -0.5799205455581496 -0.37745337069573703
Ni 1.4208111721317522 1.895192197277726 3.659290873908619 -0.8540091414122906 0.7635039961421819 0.43367336953073055
Ni 8.718479526266387 1.7155895576570985 9.298862608144628 0.03151426855819734 2.108179379530479 -1.9534876722801324
Ni 1.2080088656778343 8.855259941537357 9.437634819085412 0.1826390843928919 -0.47559109281043904 1.811290497952371
Ni 1.9066305055898063 7.897465222312421 7.493155587264561 0.14867224052914396 0.6799675688804224 -1.9978343167163075
P 7.584722886021365 8.603137874197593 12.356984201218195 -1.4275145274727157 0.09865194274695914 1.4881750785775663
P 4.946888613297021 5.135652959978251 6.501126131082687 0.21466860202461097 1.597127889029901 0.21464083411046905
P 1.3654538153852938 2.443825447856512 1.3260852043511366 1.07674895048081 -2.0776567854615893 -1.1490720255252533
P 0.4156170618305027 0.9408262054436792 11.249155929315407 2.3467214457385777 -1.774540949137163 0.4893022717489443
P 3.0355574330584143 2.3843573050446323 7.63716121598101 0.8953321685307936 1.0268911464184187 0.593929458242732
P 8.36043559017366 2.106151101908585 4.028377708622381 0.1459242454703616 -0.8276265376537036 0.30876429285945534
P 1.259743937841982 5.184005389797085 4.194709698518808 0.10260398541617168 0.6184662670418316 0.4530612871390391
P 1.1150645457592052 9.064439963408963 5.5812004155088495 -0.6414516721934114 -0.26254819931470913 -0.2235592196460214
Ni 6.614328515335822 1.370283528161708 11.339741616601431 -0.3938415822457733 0.6569919339208556 4.805578727643162
Ni 2.665024449614463 1.4016582271901703 5.732248760890294 1.8435912669676058 -2.056041521184659 -1.3703175094364335
Ni 7.384704571210361 6.595184787403355 4.994748854829099 -0.6885869351183173 0.4339698177252268 -0.22093849419372275
Ni 6.346685004645901 8.467214640774346 1.0514598092563814 0.8042886342587116 0.342986447267119 -1.2872294825660024
Ni 4.972945098065958 1.4184700518164675 6.972521766976217 0.8368215738894105 -0.8939126624754475 0.14667397915219255
Ni 0.255191331375157 2.9166764494893465 11.402538021404844 0.9283556746446656 2.687013376892669 0.09430317885996017
Ni 5.3688617246134305 8.014290812848778 12.125454775643822 1.0587226891067185 0.30903862956676453 0.1664357351601521
Ni 9.12240573373505 4.407306465669454 5.690928909026429 -0.0784099046684714 1.1336983712826605 -0.48772541418012777
Ni 3.272213359102714 4.181443657299164 3.1000211948107834 -2.4539621585958127 1.503821012644939 0.507204605950662
Ni 2.0455861350119853 3.4622773040692003 5.335588321707218 -0.4166120431730696 1.9011474681155192 0.4619045964622819
Ni 7.4348819688340235 6.3654231841772955 -0.3019105071787614 -1.0283533327862417 -1.0413931966893353 2.867832634468003
Ni 5.318693543998883 0.041948451885528024 4.892252026663378 -0.7811818730379191 -0.11033863505626804 0.03661353745797565
Ni 0.3764659722114665 6.943606165979715 5.6190804795708855 0.913818400260439 -0.14691566284935342 -0.5753108147002802
Ni -0.20112527760575133 6.696184773288751 9.40740395088816 0.5834619830525049 0.17779101227197122 0.13620881795481057
Ni 3.7792502475441765 6.799645700607932 8.035508367832184 1.055258641817518 -0.9170363929771044 -0.7753727225553098
Ni 4.980291054330848 8.215405951744502 2.8448031341091924 -0.7108418898617758 -2.6127768868755967 -0.010728442161097654
Ni 7.083280722112887 6.534241923133028 10.99260232399301 -1.4198148448356127 0.8055582449997547 -1.3253167763560272
Ni 0.2799703386807145 8.620548804416384 3.3996882819708825 -0.28423519736983954 -0.899443876706322 1.6677931167559472
Ni 0.07129448720771396 7.329162874281597 12.128287162544952 1.258890269301677 -0.12877575871553307 -0.5170768707590515
Ni 4.736021878757315 3.3098648413386917 12.15592897288172 -0.5940670122618608 -0.43133932208091513 -0.859328753852991
Ni 6.176391544231722 0.8419876081958194 9.399848768516351 -1.263932716821591 -0.7820362506184145 -4.846027836797145
Ni 6.124020498438618 2.175020594018065 4.519010164240442 1.3812824930883696 0.16360983567558274 -0.46195241898108186
Ni 5.866239187502064 5.318887101190303 3.5504527434715767 -0.7160524875284379 1.3681942924458435 -0.1590438135714551
Ni 4.726519142359447 6.889059906035403 4.986695032264154 1.4815262058024805 -0.7437286132874675 0.7805146717675655
P 5.14123846750212 5.8528653072757715 12.027004214479717 0.04384759331256964 -0.40359043410242107 -1.3909218159503465
P 7.234485756649292 8.113051065519157 3.220203620066931 -0.06389062800637384 -0.14362670768543653 0.0110076639644133
P 4.332943636127259 0.3103910772657438 10.701838867638287 -0.26480279967684067 1.2267273114158874 1.7681527862226323
P 2.5374610434587876 3.6271511631235875 11.467128056182094 0.11142878279665325 -0.7496622051630831 -0.7246142610555198
P 4.228865169197354 8.38881476123965 6.588541167233051 -0.4062733802512229 0.7248870551009322 -0.05684554823413436
P 1.7480610807702808 7.918129756748911 1.0709418014233791 0.8760992884431106 -0.5514540626873405 -0.7350845644592243
P 7.176519986323205 1.1487987991211828 7.290279077926904 0.5490372257157319 0.21981183678844723 0.5186257033034101
P 7.050025753224905 7.569053970525364 9.078233217550002 -1.2068948500709926 0.18456921153606923 -0.8868459854366533
Ni 2.125313263859282 6.572593898061768 2.7767189311763354 1.0035439870520457 0.1972403792458345 0.8195157356211111
Ni 3.534538655533109 6.5764097398355 13.441892536553981 -0.21849748885239786 0.24831740042730785 0.43172935843048227
Ni 2.195777298545708 5.765285286662244 11.531515316758806 -1.1694863275155472 -0.022935011529618566 -0.7728535556778819
Ni 7.554030245667435 0.0021328159092791317 5.427266224573406 2.487922317591341 1.5045812878497313 -3.3031617944346015
Ni 1.039862968387518 4.302831667347592 9.441479233587401 0.5879267036920778 -0.5687005084726141 1.608742333340378
Ni 3.110169121846723 8.357596751366149 4.353460698417904 -1.6485226985621093 0.34377654726858214 1.2573910590483313
Ni 5.188890404628192 5.309863649266431 9.549817802130397 0.6561869215210571 0.48582819715741493 1.0801060398785012
Ni 3.2686279425568645 4.519071918201514 7.996428249183337 0.7784647312170722 -1.1041160296398533 -0.4299689240959498
Ni 6.826107733777942 4.0324507049504295 5.763316533515217 -0.5628905866590563 1.0611644657789918 0.5793798425633312
Ni 5.457870381639829 1.133341874834834 2.3613885183293184 -0.20869824337378898 0.11823217887173186 -1.1326832997545848
Ni 1.2611172722001607 5.5656172181976205 7.632709400578323 -1.532615568279128 0.7330855317513246 -1.7222094867232987
Ni 2.6928598171426517 1.3032850889026328 11.888367493572925 1.1703170509469585 0.9310267937189257 -0.38157176373948476
Ni 3.970724394905303 -0.19877770538408585 0.0896335702444153 -0.704392020471374 1.3068819666896072 1.3369908702598459
Ni 3.640783119605108 0.2700537585735692 8.700000344691134 -0.8592613909501653 0.12081845154166936 -1.011312061033239
Ni 8.179063284802895 9.061186359191264 10.263170066010431 -0.9420537409570486 -3.0201093045189538 0.7184973495245045
Ni 7.4480530748597795 6.036818375198818 7.5289719629856835 -0.12707960196003276 -0.36196453103151854 -0.4065801128583643
Ni 8.5623433918533 6.328048212214776 2.5965734097188173 0.3228742498982762 0.2238487258619822 1.4823900964646728
Ni 6.541256067069767 8.191626068227041 7.004425522327897 -2.862231229120826 -0.7446418691303562 1.5885254920728706
Ni 2.304842167406987 0.2183749101650249 2.4726267579399837 1.583021788645822 0.02445170528446111 -1.7419000231736905
Ni 0.7525310045264176 4.0341558516367595 2.4227949981581447 0.3177839798595624 1.8082242003222215 1.6173071921912532
Ni 1.2371991335459716 0.40997533055103097 -0.06965754638883767 -0.6394171582618858 1.034413937158025 0.7836488465211731
Ni -0.29489451984019927 1.140485056899187 1.9766936003797169 0.29821634214028 0.6353450450750412 0.29274966259875385
Ni 0.9632511886211906 5.9110615028297415 0.7983358530257849 -1.1264810275986148 1.4044440188064973 -1.1543085913338442
Ni 7.292681952203261 2.7716007260146123 1.5328171886017217 -0.7514342094618414 -0.12328028281860058 -0.544134903318108
P 5.679023298352203 2.0259631226055235 0.05543293622120378 0.5852008201204825 -0.6668197186445547 1.3090900300845199
P 6.328592015752579 3.027308209900226 9.995191056188714 -0.22898990374328954 0.4869090889264195 1.0137723496482733
P 8.715898763714105 5.2362013124169975 11.724652212564331 1.3510715167226282 -0.5822839035840036 0.4119791723867485
P 7.305088046472448 5.022375917951282 1.5638987867403176 -0.8873573778554331 -0.818407847268913 -0.9637361110264887
P 2.0051879840596496 6.685990761207235 9.390810569377892 0.7532432376461221 -0.3712618971730445 1.1878131508491931
P 4.263216962170056 6.004282333021829 1.974157079471188 -0.14953921651512955 -0.027143136073695187 1.5606945859035315
P 8.354923818722714 4.095826859627194 7.672384016315108 0.8611400960301169 -0.840867718934326 0.5015507500989943
P 4.064479811626078 2.2318618892320856 3.668599131414155 -1.3765138680551328 -1.1638538118201183 0.9467187505328857
