# total energy = -340853.6836646566 ev
CRYSTAL
PRIMVEC
9.44427550046300 0.00000000000000 0.00000000000000
0.00000000000000 9.44427550046300 0.00000000000000
0.00000000000000 0.00000000000000 13.82265183692527
PRIMCOORD
 96 1
Ni 8.379914989076475 8.821264866141329 12.107011380516505 0.19822639730818764 1.9561361656465732 -0.672688518720506
Ni 1.6482904935456388 5.850804152201776 3.9212376382919456 -0.20203574375194885 0.5467340315038519 -0.7486900710578008
Ni 2.5476688379966794 7.9894697563105925 6.083044550364726 -0.8194668846610468 1.9555494399051674 0.03671226781936904
Ni 7.606844383559469 9.701820769759742 9.900709653845254 -1.4823294184300666 0.8317323322919612 0.7195157634866899
Ni 0.0587216710311166 5.189279883199644 7.556912499624652 0.7287822763902804 -0.8658508712422249 -0.5347560332063693
Ni 6.771177120822875 7.2334649564055065 10.752253687923409 1.208201484697558 -0.8804567940808579 1.5404278652346952
Ni 1.1901486948548903 0.9519735140430582 3.3068620252701013 0.3088221426805843 -0.5809592712353091 1.1602930910520532
Ni 6.085872166413542 8.892880806348954 3.2558837156231646 -0.5005889004063573 0.054856799938879715 0.6981583808568363
Ni 0.47585737044882115 9.087782317368971 6.719647265493738 0.26372165079752 -0.004516914033747059 0.34824795277637444
Ni 4.013826480836256 7.167855575339652 2.1724506104262025 1.4370224669631508 0.2792480285678933 0.9722793726108093
Ni 3.160507867414174 8.573805962630816 9.22335772373354 -2.2325451821037747 -0.18300109571800094 2.7000866651368596
Ni 6.6845920041377225 4.524091235350015 10.709127348827522 1.6588783307648205 2.052503940345046 -0.4615826943464889
Ni 5.969207032642632 2.8022959465207213 12.001738876136663 -0.5948486276228917 -1.796132816375326 -0.324829316742118
Ni 7.658523458439613 1.5882721235048285 6.738763423290686 1.6524390028973799 4.085815881142673 -0.04593481485890154
Ni 3.0972312223672143 5.726290825589968 11.298649406758983 -1.6650608054264484 0.9344401902758487 -2.260469162207552
Ni 7.1061466800057955 2.5722617310865723 9.588773737886966 -1.4205072429169472 -0.832456097831863 -0.2831879870522478
Ni 8.723752722841349 2.250278050551349 2.5024940355708405 0.4771301551627847 1.0555432629374726 0.07576526795677274
Ni 5.4561184397902105 4.547437484089729 8.291642180380888 0.29265556022305084 -0.20561754756593617 0.18044310518283763
Ni 5.446305837670242 8.62489004816201 9.615671978597153 -0.7328556751287055 1.4451358400989047 -0.3393791895318349
Ni 1.6256242326332953 7.504477882714097 11.55248886271632 1.0377100914107935 1.0696077114503386 -1.7228111248630391
Ni 7.751568459484784 5.411966452388041 3.7518545593490766 -0.6475117623445622 -0.8640269306596087 -0.16604235637647533
Ni 6.267957795742703 3.935693990616331 0.19456340596140687 -0.5951005957326977 1.4384000640369679 0.5261937454586552
Ni 3.482293218166414 2.31892848828961 4.952517565984681 -1.6907204149760817 -0.6853496591279422 2.1043479215995307
Ni 3.7902332612113647 0.6783020242149574 11.719521261517071 -1.0247059658416418 1.8285042907274962 -0.09524291706541016
P 1.7923251373682034 0.9781436011214351 5.646277035714319 0.06180032113624839 0.3955002008951189 -1.019496139505928
P 5.234980731764156 8.483565911373546 0.7385735008359556 -2.3017160846724813 3.403398822280493 0.5648163429268596
P 5.139857990135354 6.076890660527026 9.912610385251774 -0.6727319703639316 -0.2581433853787941 -0.4623357704624296
P 8.94531542325951 7.266576585888289 7.592796023931506 0.06437116718721816 0.5070711656965912 0.2392303505243751
P 4.7529449163616455 1.727074638766794 9.935514641903698 0.6960580466843819 -0.19630835434986837 -0.44147923872839456
P 4.92727679560371 1.8646493982293404 3.6263864164963358 1.7689814527715146 -1.6663993217322142 -1.525106661496593
P -0.05823906855919129 4.615804593566586 11.795283238616578 0.8094845766373543 0.14336882603835954 0.2616735100192396
P 6.161341370976266 4.889613025387699 2.2148997949773324 -0.5789170439942998 0.6120415944624105 -0.4509984910727394
Ni 5.889119577419018 5.377343738844436 6.2407894487566455 0.8822650509341903 0.7541297540161335 -0.813502953768128
Ni 8.671941428105884 9.063671082323465 4.302134708648502 3.258845746126046 -1.7047496393756383 1.7313032214944508
Ni 4.169600358956338 0.26608868112538364 7.750540922323425 0.499982634280926 1.5656655567555617 -1.3251493975402273
Ni 8.444561054053555 6.843803598496177 5.476658794314484 0.47249805570741205 -0.1614007438394059 0.5075997845065516
Ni 1.6421233817224055 3.3888704461060373 4.258661764646165 -1.494387378035865 0.42720498819756747 -0.9941877426481265
Ni 7.794568245290577 3.6127092168908126 5.553982854561869 0.4886371273611198 1.0423128802901274 -1.0083511786327022
Ni 1.2627279511512912 0.2611719913624811 10.420192021130033 -0.06511293044924915 0.3573712552338813 -0.06201809357400932
Ni 5.431582212352599 8.576072588722049 5.928853532798357 -0.9810131529393814 -0.7505363802379204 -0.8911446128120071
Ni 5.087895586993806 6.533738593490694 13.911807683524188 2.032672250331099 -2.5079794933525323 0.3193484961332048
Ni 1.9118707751300565 3.43452407329365 10.275897659734516 0.3945892590450753 0.23480779597664722 -0.7456140032356385
Ni 7.183268632760045 1.3030455627491229 4.480129077882986 -0.8622209877991215 -0.22280202976502275 0.17933650238222018
Ni 8.90920051420584 6.847024096400806 2.2713246182359983 1.6211242519444984 0.1333070709269833 4.345211393761013
Ni 9.04549085221669 0.8363519727016545 0.6751825800568962 -0.22321649159462204 -0.5787409234277516 -0.7454967609314839
Ni 2.7918411336749025 4.6142651766796225 1.518929420381203 0.9355025701020921 1.732156313523365 -0.0038013760239611945
Ni 0.8142948675513301 5.813810925537755 0.13809702789106845 1.4410518998375181 -0.8445901620912358 0.1032436758826996
Ni 5.586524994239228 3.1272451295253094 5.504166190786688 0.3977373177557537 -0.7116702993003421 -0.9922910398460458
Ni 8.834382964644346 7.82712266252593 0.48285557850550725 -0.34272188075182264 0.892004132598825 -1.7859548474010598
Ni 1.3578790256062343 1.3803469567355953 12.786339997465284 0.8588464148999337 -0.9774963980353746 -0.16767989197989833
Ni 7.6461703462423865 9.028198383995647 6.322812980433189 2.2298804907874175 -5.092924959838158 -2.9416898867687853
Ni 8.303529689801875 5.044102482056082 1.1557989208697714 -1.1331255294983258 -0.7043436837319418 0.40177677793245
Ni 3.0734977583369143 2.5044140567556235 2.5216253042083965 0.5789720656019512 -0.9676544722442884 -0.9162727753382027
Ni 6.657524710898231 3.103776105205654 3.302577157530131 -0.11757114824896527 1.644680956218516 -0.8013398360430328
Ni 2.121231471757072 0.30922068678649783 1.1917834989231932 0.03845881819683054 -0.403782238398253 -0.5902702642235899
Ni 9.143324100879592 1.2228164433948059 8.461591915846567 0.7418846181001932 -0.13431262937336222 0.2441380722386376
P 0.25874953472747436 4.759697573258448 5.259187353991002 -0.6065782573549942 0.2739158177217025 0.41004184615471967
P 0.9533240454224187 8.534631108353981 13.242749716051314 1.568987679150259 1.9030855656784966 0.08352742840069487
P 7.171142183171941 6.136672923683332 12.871971242337043 -1.3574684213879074 -0.6744322408844902 0.8047439766285753
P 4.867522865273544 8.408455589275267 11.754589744858619 1.4632634029375509 -0.813924871796895 -0.2917908982299104
P 1.7326845383425988 1.6679440306117168 8.778517242488187 -0.3904600673680501 -0.36282842169371066 0.9131226597449953
P 7.519333727887062 4.0812397184997184 7.637996325900872 -0.23721023477055278 -0.5022832573896446 1.1178840299582231
P 3.1630578217668126 5.693726964079234 13.466525210191042 -0.8259846311749065 -0.4662677585269841 -0.15115438352104937
P 2.5210265371492953 4.880763739356505 8.120863237536836 -1.008304898775799 0.679802504057468 0.44127355047549166
Ni 0.2948030559911711 2.676554864109494 6.305078520124357 1.781448217779958 -0.4816758655519382 0.47759809593813873
Ni 9.128883803823355 6.706068286352168 12.168356671248226 -1.3124710307416108 -0.9051326995609832 -0.21614801478361484
Ni 1.8463463925426227 7.283377951789563 1.764420136902494 -0.8403887224153784 0.27332857775966474 -0.45510685681415813
Ni 8.946864284421853 5.742081654025568 10.004946121215896 0.07697908575921582 -0.2361735659759223 -0.7517702526450214
Ni 3.905122871210807 6.472851350114911 5.443982545926727 1.358806937693673 -1.3995473528358284 -0.737931032769084
Ni 4.925822377195168 5.0373403808839 12.151257810672478 2.140003208909295 -0.8156284847515629 1.151522801058591
Ni 6.316671368153482 0.208683542082259 12.989601581051803 -0.775733191218522 0.1180246908466161 0.541407477084616
Ni 3.4048312714984794 2.811286896682618 8.122204324640816 0.6371008514238834 0.1486778969560988 -0.007804583646083333
Ni 2.8729107935380522 3.6259123138722527 12.434733402772705 0.6523811746217217 -0.9602157565780561 0.864733212698014
Ni 5.719575945794686 2.1054500875968523 7.545716311161493 -1.9489663873710112 1.0047866012098954 1.6602091337611018
Ni 6.629361881714645 7.350592859670043 8.01050310200971 1.743233140162817 -0.659909878898599 0.09987373096920218
Ni 4.38861310502186 7.280780776060025 7.76474983463285 -1.1008514999559686 -1.6975374378979151 -0.05653907273730907
Ni 6.824981157663552 7.601206151157524 1.4491947798293012 1.354712713019641 -2.028558742383358 1.1043289169816077
Ni 8.36047867034414 3.050208175249481 13.801820596874578 0.4752200826242654 -0.6471363812830144 -0.6662512477355945
Ni 8.978814268032878 8.033706742191184 9.608705881076759 1.137170646101977 -0.47506761620680116 -0.017688675529014698
Ni 4.3978590506190205 3.8310419751289637 10.19232526689563 -1.2315129057299887 -0.3075162793849672 0.9091585328909245
Ni 3.418903241814893 7.9516171005869785 13.307190840252646 -1.8931755056536366 0.9174729662938907 -0.03456642512095982
Ni 1.680079924475201 7.056120353317177 8.421574632205825 -0.36535658743220306 -1.109738003812321 -0.4953849876079146
Ni 9.310072226991402 2.5989040319339565 11.36808088607118 1.6042382748224373 -0.7684186598349799 0.10129092303170298
Ni 1.2415633300243902 3.2865322780868054 0.33101335222617834 -0.12139386442916514 -1.200751456177416 -0.383551513173675
Ni 5.754510320425836 1.8690126534549665 1.337345282074727 -0.8646586507063366 -0.6056521459962989 0.04416795276646587
Ni 3.9470932310001636 4.833296811295904 3.6369328388133417 0.6100317631212333 -0.6450355328899279 0.037717312045115685
Ni 3.748111793015926 9.174971867678453 4.123684180913158 -0.4387813801812572 0.5899787011251001 -0.03777927563130268
Ni 9.173186899631606 3.4466599671571343 9.403618719059258 0.16381578103880173 1.4036372066344858 -2.732281504701849
P 1.8231418079336108 8.170299297014196 3.740285322008401 -0.1519108020710997 -0.2694642097082521 0.1735720890946172
P 8.120820738297626 0.03555580795116326 2.5022182627297402 -1.0288107320386346 0.3296912728201096 -3.3112530560831677
P 3.901789042001617 4.141125868685206 6.255316633146381 -0.3656298956982478 1.483482558197903 -0.11083382952513171
P 0.8282185627442753 4.176702454042206 2.159084127480686 -1.241108519838224 0.3711228004920189 1.5744355896387079
P 7.845104562849723 1.6284764037980983 12.264811055705628 -2.0720810911460252 -2.0773063441007062 0.7870666139534703
P 3.6205668540070914 1.667821255031775 0.3785624454825855 -0.2721944641552215 0.8254364719809204 -0.74265389216605
P 6.342161467404488 6.843945262626879 4.6707154994818145 -0.4289337979632161 1.23411486212921 -0.182753241373253
P 6.495649830882577 0.130352722079351 7.738237864785712 -3.0436498108430547 -0.04338145230942852 4.465213262938659
