# total energy = -381166.8688330871 ev
CRYSTAL
PRIMVEC
9.26485587645965 0.00000000000000 0.00000000000000
0.00000000000000 9.26485587645965 0.00000000000000
0.00000000000000 0.00000000000000 13.56005308118152
PRIMCOORD
 96 1
Ni 0.9782575869187182 7.384423552367196 9.316054250196895 -0.8804218270778644 -0.9004106114949655 -0.07846724026896809
Ni 0.8860185362326045 0.5006394502194816 12.185212376180944 0.9977592620494686 -0.9838570501460798 0.09181435099983541
Ni 4.545088070495476 5.8030053276526825 12.07670516531687 0.7176000345212158 -1.2297604418152563 -1.1089733577321548
Ni 7.560539194956675 8.768139020639135 2.202573065310944 1.3333118787463618 -0.16183628871492775 0.1090692814255412
Ni 3.635242178294035 6.133936709506205 7.522846055900911 1.7535728315259285 0.10434770758015577 0.663360813561677
Ni 5.884304436691701 5.262558498299636 3.8152833402567143 0.39611392321971783 0.18299106841567195 1.286033148265056
Ni 4.23397421505044 3.8212156273812363 2.7352930049843858 1.1039327099844536 -0.03381052079154177 1.2181714514260762
Ni 6.330184883599022 4.9163123099228665 8.002736861710947 0.07362739567816352 0.21416183759152146 1.425617824670635
Ni 1.7390690098322248 3.423697727389433 3.3893621720505616 -0.31807785695089735 0.9466693853521888 1.0740289804464858
Ni 5.297107145320319 8.098271421580558 11.696670974574928 0.3469552021068799 0.10484213071807105 -0.8545673279086056
Ni 2.495359183149031 8.19605270896492 7.469175673137135 -1.4312212869003416 0.7126385767508823 -0.6181374229475031
Ni 6.517390558498438 3.073504710471282 5.228309106119061 0.1108816520439316 0.30623535579001454 -0.08029169507221656
Ni 4.8554514726263065 3.361447161733233 11.611879941410919 0.7692352421990042 1.2389863312888985 0.367100052485871
Ni 1.7515024462231488 5.104361086693799 8.041097996864913 -1.2482183914101277 0.13687859032832556 1.252526017646546
Ni 5.093901064573565 1.6031628411150343 4.333155422135748 -1.4178428087109067 0.08571903673537495 -0.5492421426376862
Ni 8.221114143717118 3.5979418691212617 11.80417480156334 1.1145104855003 -0.5604488099867831 0.5107822959995912
Ni 0.08945681451011178 2.995550214351135 7.0696009751730635 1.7364261445433127 -1.311034812515716 -1.1124062946731037
Ni 2.576630497620856 3.0715868853349773 1.4581400543585972 -0.04425896981837539 -1.5194769740146412 -3.3574516661264178
Ni 4.316820554996524 8.786752115802598 4.846498842533498 0.2856130515539726 -0.9580442028480339 -0.6573881409180098
Ni 4.973772945166169 2.9574345978740393 7.366621132080191 -0.14572601341662644 0.07589279467357252 -1.1076469256112473
Ni 2.5191328029546285 6.640863290824704 12.682472933515351 -0.8905789701165243 -1.215515758970784 1.2699357284825612
Ni 3.5191535359853297 5.365083391818241 1.0577722847439561 -0.12617020277188593 -0.5905191470096024 0.13252571267626853
Ni 0.1419412957403259 8.094407976740754 5.89390375371453 1.90970667053944 -0.021343498672782596 0.5366661057448887
Ni 7.821882245415091 0.32161278995934056 11.877616386456948 0.16391862516525318 -1.4118742498322974 0.6900892306954567
P 0.4264603828096934 0.5344839682046133 7.411776185941656 -0.228872918549451 -0.42794803701117917 1.0350474569769659
Ni 4.209487201353559 6.555571028965652 4.951141682072198 0.09408566353251538 -0.7272758670480829 0.012046646751888929
P 1.4065718673601733 3.352636283933107 9.288744234958797 0.11601974460144536 -0.09849099168906263 0.9780124184398447
Ni 2.828588249223827 8.007197889745395 2.2282154065174726 0.062469322178815 0.8599051951817513 0.09846939442250784
P 8.20235281086196 6.445513807737789 2.0836512301197168 0.7185677977511238 1.086359734097697 0.695080513262461
P 5.014806991198512 4.9562253084117645 6.256066037751485 0.5628026549309404 -1.0183049474113044 -0.7772755960049775
P 2.0433176071806334 8.052039791483155 11.304053256779218 -0.2045392269000929 1.4452798218759368 -1.5268562971978479
Ni 1.0519224548354391 7.605038297032391 0.7503022970578987 -0.813817142574437 0.19817497524496192 -0.3476378299962013
Ni 8.27146863461479 0.2517687485460602 9.392086288752871 1.2481245461447408 -1.2297568422708305 -0.8886385585607018
Ni 7.164096018229662 1.9494275592032657 10.5163765317027 -2.879043415582158 1.1355269398509669 -0.9208138577416657
Ni 0.19760176951510697 0.7118920581685587 3.372100819338243 -0.09436257134298587 -0.38757966049646153 0.24032126959570868
Ni 1.2238874420574561 0.8278130065885336 1.1900503359569092 -0.04632973630447505 -0.2524864442033329 -0.27798073181969546
Ni 2.9452049883091957 1.1178882276397473 3.5212334960969267 -1.1806433725736312 -0.6904993216496818 -0.23388528416237783
Ni 7.2772940255503125 2.101815906265802 7.8770350050958164 -0.6807278440852148 -0.7247502724127518 -0.11198259841759425
Ni 3.818880883737039 1.2311603538062457 8.593886540537149 1.4055074270740051 -0.20549593438640737 -1.8426733831390267
Ni 2.7535799772261194 1.634264961803807 10.38975282194234 -1.0273089506821276 3.1439025224182306 2.0924213453652736
Ni 9.169538895182203 2.7159461332470323 4.638907705569289 -1.083614824362708 1.760564946573045 -0.8388964541405681
Ni 2.6345636405064363 5.890938073395055 3.5956376995009767 -1.0872092265821856 -0.7903028615025809 -1.4960483106780558
Ni 3.073004408261811 1.9823363267595722 12.581397063433066 0.7018509992170752 -0.7397855694793194 2.12920020475652
Ni 6.543415538246655 2.7014281043166464 2.0966553816236675 0.13093111449563904 0.38001058989995196 -0.45334308004551604
Ni 3.8476945850602693 8.536045119723305 9.803158672679045 -1.7856959373127181 -1.3426012744680877 0.6297215282406767
Ni 6.499527916649182 8.459267260280987 4.642487645823725 0.49837286659164487 1.7431994587114046 -1.7733397297402103
Ni 4.827814407980907 1.1914048578647731 11.243399025765461 1.3780938109477427 -2.1431682369008382 -0.1555334864253515
Ni 5.7973074413781545 6.934123769276216 6.583323904307687 0.18776277877270242 0.6539392631374609 1.1703664161276555
Ni 0.9790450996558484 5.294929904223547 1.6627340104938462 0.43683505508816384 -0.10507378711290291 -0.47508612814956247
Ni 9.363248498804742 1.969245085611751 10.415761124950242 2.279831625894564 0.40062466660587776 0.8665653808107464
Ni 2.555747512803312 4.189382464417415 12.03713681946116 0.523754282779227 1.19001427226557 -0.6062345008623301
Ni 9.260575367594441 7.428162936272974 11.985608471342381 0.6077054289809019 -0.2577597767871303 -1.4715940342904332
Ni 0.6223138740483716 7.343871278832863 3.1938125680798586 -0.932019239539182 -0.005265876384629642 0.162160761933882
Ni 1.9416265506778125 6.198623932219642 5.922488613101205 -0.0414127586188319 2.2352461259747054 0.23558221224882653
Ni 2.563122337965142 3.008687779777611 7.546955989969541 0.25169197332649557 -1.1822575111382865 -0.7505980867137911
Ni 7.759955949709474 4.45170758958331 6.308665403192762 0.5314879039780588 0.7280474551067849 0.10097519156349706
P 0.6097090378264248 4.916386428768714 12.866429423509928 1.4261500430250214 1.017640831464744 -0.809058287733213
Ni 7.55724090631646 8.166405170625906 7.579513619493644 0.21131845460545542 0.6220591265994125 -0.507274539956649
P 8.456395155004394 1.4667193107654497 0.38122472470336843 0.9285456791682848 -0.4078944607944137 0.12393360013188334
Ni 0.4849058722171957 5.362192756830187 10.662066388071766 -0.4402582218370999 -0.9735896067818008 -0.21444851559400485
P 7.06072802283954 1.4724820510300956 3.8163821521464043 2.882226698406146 -1.4221938865907509 -0.5017428115051423
P 3.414942438723693 0.8425589509699012 1.4669944769806584 0.2067172083880182 0.5004575170348156 -1.5533962524699052
P 5.754522337612663 3.142185086004756 9.3392284338367 0.15771403901643807 0.5274407304918787 0.8092071546062515
Ni 5.874187214233511 0.618227146185453 6.490072204890183 0.8291877114932364 0.811779286208802 0.18682561167041373
Ni 8.181562474601726 4.519887662907314 0.39144200760345144 -0.6924644157958526 -0.16419553297572367 0.712951737115927
Ni 8.425311564027083 0.8198934079097243 5.675451426376937 -3.09981787339419 0.38184764310869074 0.23993688967309645
Ni 1.850136100334759 4.106610243317178 5.553723266384807 -0.20245149113312877 -1.6557251298478195 1.0140466863555826
Ni 9.12348329734369 6.133371553306618 7.2573134376809625 -0.12244955938718913 0.0745805036200522 -0.08476052947684756
Ni 5.1914136711417305 6.505059035520555 9.551335261484171 0.2850705487869413 -0.04893683491001894 0.38533765853982027
Ni 5.3670753358003935 0.1938142964922978 2.2575182922232964 -1.3880326673280095 -0.19008731314082103 1.06054894368218
Ni 9.294873863510388 5.385642106685202 4.835053966249064 0.95104591715333 0.5315413829238136 0.2823068699988751
Ni 4.797573918875111 7.18847185365777 0.46298337058664046 1.9560886002380895 -0.6635557031813024 0.763974250910381
Ni 3.564199264549171 8.770047580919709 13.252524682871051 -1.886274921879061 2.1397545832335987 -0.8201554260876391
Ni 8.002435753899691 6.576222392389921 9.200930079369781 -0.6442554601907937 -0.24865215805890725 1.0938146477138453
Ni 7.665287653850707 6.889115100135299 5.4461508794639855 0.6879631854913895 -2.362711907629563 -0.6511467879939883
Ni 7.8882278773043675 7.2602930152840335 0.18508216996588486 -0.8723737599624072 0.6891196676933358 0.5912498545280398
Ni 1.4388598895825064 1.1346946759356762 5.53446811671919 -0.781427413389822 0.3036534539954512 0.15685811877404598
Ni 1.6100188343559314 0.24754768027504293 9.303769051497666 -1.7547362557064101 -0.2227308102074551 -1.1488804783397375
Ni 0.0613555805925912 2.9641701479904343 1.9129434838203887 -0.35317701464687556 -1.829573869642591 -1.1756505473447303
Ni 2.70549537598253 6.105141537894437 10.187803055632703 0.8869745405947176 1.0919508550322292 0.3432150183381573
Ni 6.368272705508925 5.3475450199195675 1.5581717752000062 -1.6833770872371332 0.06678311906282046 -0.7032111127893954
Ni 5.910199708459684 0.04839312093943006 9.265054925340351 0.7286038418308872 -0.10631691549138464 -0.5723139368554853
Ni 6.146972361519641 -0.10862580101743108 0.09827232473810324 0.5886782371461217 0.030339788634121942 -0.18225727557344096
Ni 6.668129761240867 2.0972483323904476 13.012335151017524 -0.6333344424029158 0.9843442741951433 -0.21661261312485922
Ni 8.520971199449061 3.6731539679450504 8.98057938309292 -0.4724504902989282 2.192592810080553 1.5196353539693763
Ni 0.941309342263721 2.736847647776038 12.822128589346855 -1.3281143937058224 -0.39041327329051473 1.5462843240154727
Ni 3.711630913795653 4.176587698652984 9.596490315345637 0.42038025196625023 -0.9269469672225972 -0.6583489621693822
Ni 2.159776843718576 8.176550187651287 4.770155504824961 0.006934522336304186 0.4844377445677916 -0.6514090405164393
P 3.397496715382329 2.9067928964487098 4.711047578232697 0.0861538102799484 0.05033114415438429 0.24238072322789872
Ni 6.979364059810406 4.8373016202493915 10.600151210193024 -1.8696787080832766 1.465533172808334 -0.6837828288614547
P 5.2837935476349545 3.5800977569834673 0.270707040145679 -0.6629885178239228 0.97324430762724 0.6402707645114327
Ni 8.31532846164507 4.615223028378709 3.0554058148008867 -1.7277263027764695 -0.6903072602435337 0.0727629907953392
P 4.55367659175806 8.490943802025077 7.317723076503424 -0.16937270630128895 0.04321715881742235 1.5757810479230088
P 4.646352943634675 6.959472414556073 2.611503414592122 0.6051397251362546 -1.4089269942785154 1.0948703426718693
P 6.593983120826137 6.461338181326238 12.325939049334945 -0.09931631580383542 -0.621012173392137 -1.1223127551535381
Ni 3.477823014569597 1.0459188283217886 6.183045077308064 1.0782386476524592 1.507697979101842 1.1998690535724625
