# total energy = -381171.28058400436 ev
CRYSTAL
PRIMVEC
9.21938240244114 0.00000000000000 0.00000000000000

0.00000000000000 9.21938240244114 0.00000000000000

0.00000000000000 0.00000000000000 13.49349805542352

PRIMCOORD
 96 1
Ni 3.756548022058561 9.466185343931627 4.4871278449750704 0.70066520643909 -1.0453406113728578 1.5347539547783697
Ni 4.205006443793581 5.516841595554322 10.309086747418457 0.9267685326632039 0.20828223888229289 0.2551845598607863
Ni 2.1206054793865983 1.727850566565975 10.299749356847702 -0.6303090253130307 0.9722485193728738 0.8647386120146527
Ni 7.903361723669476 6.453835094643507 0.38613631814176763 1.871014910396197 0.42958840082807953 0.5189398921097192
Ni 5.246547740150104 0.7512496784256243 13.805737611689944 0.2773086454533353 -1.6415894617773856 -0.9521049545454634
Ni 2.2412964153677906 3.6954327356312966 6.272533172456436 0.18991042124332455 0.4997712896010683 -1.720593034165798
Ni 8.113858664340363 6.524842778466526 11.349934746212854 -1.3408513816565164 -0.36082424677948827 1.5449851455880748
Ni 5.1081555898167705 4.197594060283622 8.406692066019641 1.8354115593702904 -0.4905073478006391 1.8052838867469747
Ni 6.300931636294407 4.126752325345153 10.642524153394454 0.5032440786410172 -0.6901895037187468 -0.6646854459103714
Ni 0.7976821763230865 4.9474709726587065 12.545957859198213 1.972616165579467 0.8056551755889351 -0.8620327830477155
Ni 2.9025566233924662 2.9631187468712263 8.288516177577648 1.8258138883795265 0.8785904302960803 2.4896907223456735
Ni 8.101689079473266 4.283675434453387 13.190231355012564 -1.2897566198632304 -0.9035712686111342 -0.8678475899572796
Ni 0.7871324369568594 1.0628011923440441 2.146518397709288 -1.0745344593279946 -1.6676499063098635 0.7506441094603782
Ni 1.3383408763765776 7.165322498392385 7.989904988901242 0.13288026780220988 1.3300884867130576 0.6674002737383731
Ni 8.608994819546682 0.25478224438990477 13.442155590835196 -2.0993288711183844 1.0315798101433395 0.7885110597094808
Ni 9.000366824996044 6.355132385865366 6.3117321428639555 -0.5973994190692035 -0.08405501876939073 0.7054497723119271
Ni 1.9584273222675732 6.0577243266019565 6.115185971754349 1.9185666920332316 -0.1724369470489095 -1.6869234098274948
Ni 1.3974739955717017 9.14259423843901 4.400296935010081 -0.24486749420549442 -0.544396641619927 0.5899578751894937
Ni 7.201683742874077 8.753278155281588 11.837400375199913 -0.5053397848277813 -0.5329673167370627 -1.2398877600572453
Ni 5.062196968178527 0.8743855946392063 11.229370115771571 0.24318007920074247 -0.29469393080931827 -0.723233064437277
Ni 3.9195559236003428 4.090566249130489 2.2369789785547134 -0.3913764085347324 0.2211326124823998 -1.6224403996527603
Ni 2.7233871443718796 8.417609658746622 1.9972270934139218 -0.7251127979584931 0.175177228798208 0.35306028656335325
Ni 1.6312406576096756 0.39652195249993843 13.437027770302558 2.2259749850854247 0.42393145965261825 0.03109337897069484
Ni 7.657010604553026 3.1507147414740304 8.45252991374746 0.1851788200956101 2.1278323778747157 -1.6124478072164232
P 1.0071990966368733 6.449225403405969 10.212567188410413 1.131771843683909 -1.0182082739324398 0.8961682912788437
Ni 6.840145659114054 6.435857298817113 2.7026260169762613 0.670347272181839 1.1249874737722239 0.017078038528209296
P 6.333319326929342 5.322358722242637 12.351557038390558 -0.012533613690636478 1.3393413727698933 1.2907187266661835
Ni 2.521703933347163 1.9123580680396288 3.620723469744535 -1.4600893760849436 1.612949686553506 1.017900512884034
P 2.701574085435855 7.365733434635541 3.925326335091492 -1.3363370387259308 0.11278221150075414 -0.2957375415824842
P 5.746791433247614 1.1339840444340896 5.354908674009133 0.2634467998695786 0.17291671489880542 -0.13444658384806524
P 8.727251838554455 6.257250202127507 4.236337593196872 0.19718870007229264 -0.16520443385621225 -2.1992139149414967
Ni 6.674759156893702 8.835146271660244 9.154569294335882 -2.0105165401696667 1.4545756453555658 1.6756295820812304
Ni 7.792987276677891 7.838318980307829 7.592953413177965 0.10670283807589365 -0.5861266743688615 -1.6165780273347126
Ni 1.135265538598125 4.913184089233908 8.183158918529 -0.6483478850926125 -1.3207746655112995 -0.4664184251722354
Ni 6.724064414370398 6.538662632796663 5.145341047091734 0.074638096330865 -1.8289416353752308 0.991159497344764
Ni 3.9423093595488257 6.037672169718672 0.7393050464909185 -0.45949444435889253 0.6989762487724414 -1.5734639697540578
Ni 3.3231817294352375 5.46678034871467 8.156495542472838 -0.3211032740407825 1.5767099874951813 -1.0750203978254775
Ni 2.687496088396417 8.773984888320605 11.335158841920054 0.402406698206965 0.8199443385180974 -0.09488090574030111
Ni 8.350225192236309 8.241574769767562 5.232711290931514 0.42926187072659616 2.4719935621762263 1.7447079249361308
Ni 5.628257832765589 4.723688901841238 3.895356888479769 -0.8472401981195732 1.3953469416012354 0.7655107421595654
Ni 4.7684490037577225 4.205965259570989 6.147935062182307 -0.33689421832645206 0.41631919452299915 -0.8669914126045715
Ni 1.0451829524341778 3.157933517952013 1.523821022701352 -0.357094861644043 1.4919088345883853 -0.34679347971803504
Ni 7.748595950060411 1.123289560763004 7.026320946877449 -0.4716115393374007 -0.46223061234313295 -0.06705154223285871
Ni 3.3702282382055397 8.338968326234243 6.638194164059312 -1.4333231637346928 -0.5724319504905883 1.402319773374643
Ni 8.652408891621805 4.999136392049022 2.2381526059437906 0.6465108318838737 0.43437836601755514 -0.04671000246202923
Ni 5.44668209491901 2.243462970249433 7.328777539984208 -0.08988448096697423 -1.7430094541877852 -0.0013305458859654503
Ni 2.185426957568843 4.382673163470731 10.280601621385221 -0.5008390687439503 0.4770363098973978 0.6379194906704367
Ni 6.15425126111598 8.44722231525656 4.15839969956734 -0.99893734151797 0.4003145915646267 -0.31286880194613215
Ni 7.503360376223445 1.8744940642145005 11.620371502045435 -1.1802826468001026 0.845858230170382 0.9612853354931508
Ni 6.100797281525502 7.645762957933436 0.14020836868092387 -2.4259682444860475 -0.3377023160500442 -0.6867745644999269
Ni 9.566768806734684 1.9663098942837614 5.638460923350753 0.1744778887383382 -0.44262980739306995 -2.054328395148294
Ni 2.846539655473917 6.575623137139233 12.049005485644305 -0.2629120104120311 -0.7801475182361338 -0.07350809649147985
Ni 1.414225613528911 5.974233598907688 1.5350603718767146 0.39109435851793933 1.115700134933027 -0.9865790770629332
Ni 6.46408704795579 6.335015693304754 9.301661775910945 -0.5264200025368482 0.6227193858912308 0.8474538567922759
Ni 6.950547764253063 3.0177435880360393 5.245907915006335 -0.09882934886508785 0.11603851365452274 1.8418346892878148
Ni 7.255460400851183 3.5291796114582885 3.059110957201696 0.8541855190891546 -2.383696223190714 -0.1741341322456743
P 6.303798864244154 2.0261990028418415 9.534654009821011 -1.6771035955235953 -1.0985159098442567 0.9837079261627252
Ni 8.441248155412712 1.2981904656976309 9.663652531350493 -0.23710301976872716 -1.3799663453801074 -2.5887843806157416
P 0.3910069179033492 8.079221444381512 1.1223565592565263 0.8686628867697233 -0.8367333850509784 0.9596465143381473
Ni 4.849220013621845 2.4087572786450324 3.6868688512502 1.0189315252517095 0.12841117628726273 0.7856370805957954
P 3.545949668180448 4.145218748442727 4.299756803304659 -1.0973437439130262 -0.1180995099486095 1.7257465533422798
P 7.164870748651106 5.126280895762766 7.004393567598733 1.2339423411070878 -1.789548735399905 0.2634599124957011
P 5.751954287433655 2.456817919487593 1.5634514602087046 -0.5380868973518153 0.35525883687656884 0.43665122121213185
Ni 8.69464288274012 8.262051018244701 3.0756809533241465 1.33265650455055 -0.949532565832597 -0.6529244487197013
Ni 4.8869733848572725 0.45830840997138866 2.557139551828357 0.2696493291358646 -0.9383145856295905 -0.7575164111001792
Ni 1.3079722305036843 0.1426708657400161 8.947700180668937 -0.18135790368762317 0.21707695435578742 -1.159980702017957
Ni 2.8073572799548527 1.439790961132291 6.738990594597543 -0.19506265486822535 -1.6428765560199254 -1.5007269471006477
Ni 5.609164491659711 8.80629882389574 6.834038740162565 0.6335159622861025 -0.14312688523088252 0.04713860535901559
Ni 3.1220055844466503 1.792257172536841 1.4778891372722864 0.8910772499091816 -0.2668023466053727 -1.4330213162235579
Ni 6.362120677781473 4.601071114922756 1.2342014977528855 -1.7262345487222917 0.46493669842038643 -0.925321258693716
Ni 0.2979759732238735 0.43717389758552927 11.356155063568787 1.176080435793297 -0.8054237763044193 -0.2478720853597731
Ni 8.853824740554744 7.899600215619646 9.549631818590017 -0.7398012532086033 0.6196145217136619 1.3592607374016397
Ni 5.42444494438913 2.6654525448985154 12.700984541331323 1.722620349008472 0.20395455804121648 0.35780011524118377
Ni 4.5228169964743286 6.596800058684478 2.73181273801585 -0.0995456582058221 0.9606998953033262 1.024376350416365
Ni 7.040160161910782 -0.3665119406053253 1.8173716923371899 -0.6948123472027389 0.8133584577704637 -0.752087269664808
Ni 4.243340636124938 6.85022244415931 5.1155338616115715 1.5972657001593458 -1.0072926554612007 1.1441540193983457
Ni 4.994895476110488 7.6537285043919 11.310020351725269 0.05886232155384702 -0.2461738717217438 -0.3462401783177263
Ni 1.4005993662307517 4.923694185255491 3.6785566560106737 0.8532889754168144 0.3951487310929711 1.3636485820566902
Ni 5.549524306428458 6.308694356338418 7.18561159340528 -2.1948386686919363 1.6451594385168313 0.22333527656067345
Ni 0.7783896965557467 2.4145101733094787 7.818820908311296 -0.9548881737175553 -0.4485376882370727 1.6307149809567272
Ni 8.504695945606171 5.313692502716068 9.512619685705584 -0.31102917763423205 -0.6170087086596987 -1.046096515702276
Ni 7.834741859907501 2.3669381597380976 0.865316488098476 -0.35177087832796833 -1.014831129930091 0.5577036431414782
Ni 3.62417612848145 0.2623236992545152 8.95514851977055 1.0791413619723866 0.13965126797745628 -0.13124247508847076
Ni 0.6877290551106126 7.579659985587156 12.524462868957576 -0.12402230319094772 -0.702202726129539 -0.40477725532167064
Ni 4.041445379303295 2.934999630322251 10.553777455751145 1.354104904232313 0.2133614531774132 -0.7820470492516918
Ni 0.039987227609138025 3.279721560447739 10.275798323115708 0.5712451292713387 0.5876834773330201 0.6269125980369719
Ni 9.076325317208179 4.119118676655792 6.292004508243792 -0.9325900244409875 -0.632223211616608 -0.004903607949204458
Ni 7.420312178887979 1.1355697782198024 3.7430425486708256 0.7173190129456872 0.48661392628350386 -0.08530354646451116
P 0.41773021994559845 3.009086587891945 3.6950187853581653 -1.2968744618549342 -0.9874460530489189 -0.4816103024213254
Ni 2.7845761858589455 2.5619280990859106 12.577924224054035 -0.49530656896149533 -0.5293626301049399 0.11060191601998372
P 3.7196704921582655 8.358992824970104 13.58741249335947 0.3420125133896239 -0.8006993742455565 -1.4367391313947773
Ni 4.2365551706232845 4.40892996475974 12.495221753561385 -0.6807391569391243 2.54971466830779 -0.41639247096309573
P 0.5099526247820101 9.356013723354495 6.849582619015539 0.2702288557884185 -0.7866922613331871 0.11771307314346825
P 4.204370306402801 7.403910897464823 9.04126492759372 0.9086008606152416 -0.30767800177381205 -0.06409245960453477
P 2.4337418051524833 4.336668444920112 0.4364280495432958 1.1688116700460258 0.3540182796012483 -0.9702070634628129
Ni 0.3316092024311906 2.4628842731561917 12.555699980659623 0.9874607083369381 0.17907630674229805 0.5053233297675491
