# total energy = -340858.9305974357 ev
CRYSTAL
PRIMVEC
9.36612455258921 0.00000000000000 0.00000000000000

0.00000000000000 9.36612455258921 0.00000000000000

0.00000000000000 0.00000000000000 13.70827002509481

PRIMCOORD
 96 1
Ni 0.6662086802234178 5.549925095774851 11.967113970795355 -0.18102880248297856 0.6868031037450172 0.1397399710365206
Ni 3.550641553173592 1.9919311349682152 8.637087730785208 1.7712018574616013 -1.2785697500084754 -0.5278842457872005
Ni 8.713483460848504 6.138763969000148 7.050546810616992 0.8108462328715713 -0.2014312773987305 1.7926101479340482
Ni 5.937158141864764 1.5154482897250825 12.63089588819365 -0.6091560453844993 0.4265251885217235 -0.9354233801247245
Ni 2.6565138560004273 0.45563666222546834 10.005734196920423 1.0973748542612778 -1.3786993057422257 1.3810629208783958
Ni 4.404073439944748 6.883960922513395 1.9042295561739013 -2.0685193419366956 -0.7656747785412555 0.036965521480755686
Ni 6.951481313120548 7.9415743206225935 7.0828983408148245 -0.029627593058445745 -1.3494152120661276 1.581206332703638
Ni 6.533208930857505 3.4923842595716366 0.33164978099653464 0.10993085809488809 -1.0067550377901757 0.8571674845356141
Ni 3.614874434125716 4.77268663078053 0.22691965147911558 0.31609759329607495 2.1998739171229986 3.5405679472660445
Ni 4.114575901690271 6.132666622033127 11.740296410071908 -1.2652529782949111 0.1905917635810653 2.769773073889404
Ni 8.193401306647639 9.04716100777186 10.914757778296892 0.12681837787884612 -0.5628584478695404 -1.174950693064228
Ni 3.312076999261147 9.149691971286426 2.4889829259475627 1.4521276980357056 0.207126785121611 -0.9963618674813098
Ni 8.339746999980525 1.1317743708970265 12.65742075241885 -1.9841172242405314 0.03711593101569092 -0.44512094924603984
Ni 3.5460427861063 8.732730846435647 7.933400503882011 -0.6832542100514942 -0.591814211671942 -0.759615459721053
Ni 7.933781705144004 3.0609337403153534 2.2999323885345926 -0.22562767213927593 -0.8812695197901405 -1.050765639043171
Ni 4.705231803043989 1.3022752989886661 6.047430207173867 -1.400566281018646 -0.3731948525296992 0.13620676107228158
Ni 8.603234810850335 7.468210394795771 0.977241748249434 1.29255526565429 0.07330986443774472 1.4876099501027154
Ni 8.006734447887675 4.315844548348218 12.17483494053407 1.0399793470609444 -1.586910325066951 0.658092623184202
Ni 6.408733137936284 1.9591590657860218 4.252154902609745 0.34736992104679526 0.047885510827369145 1.3851877416800467
Ni 4.323271884976248 3.7093317984304943 12.207214569105023 0.04352029188013796 -1.6011593787867973 -1.596560189451889
Ni 5.3366209792972095 3.475000732734783 8.19063642673264 -0.8811067689600308 1.4518477049014415 2.8383431096493186
Ni 4.060027593340144 2.65022918654594 3.4214058958458584 -2.2997975274935296 -0.7773969520741901 0.5830758033576797
Ni 0.75441602973389 4.488874330020649 5.885632281849902 -0.27493885966957815 0.487094208354032 -0.2193706354859706
Ni 9.143341738961327 3.712703603204884 7.7770986203403005 -1.3810572644514407 -0.9013156398077381 0.6045303736870299
P 2.4323075707522577 1.5665311320570865 6.690527038893718 0.2590242453218507 -1.335267716921152 1.540684718440508
P 5.570961411117294 -0.004255030302792349 8.013388142642471 0.24258409748795645 0.11718702543666913 -0.6087508395262806
P 7.994689611943604 5.374122941287922 0.563126051983263 0.5944223387187505 -1.6151762618911798 -0.7504633609081398
P 4.2036196461072795 4.614839336717225 10.207959124876883 0.28943988149923056 -0.465579731321024 -1.4563772173406788
P 0.4244830593349821 3.004418545846832 11.636072987883086 -2.837475105222068 0.9806495989523756 2.9193973939191724
P 1.91939050169697 0.8163823085876742 0.12775393645187683 -1.0798736121527208 -0.8512832578406951 0.07220377585775951
P 7.881312676404751 3.5716404040185417 4.308988545306958 0.9864582352143526 1.3765902298190227 -0.12165483140003562
P 1.9796427797904392 6.282983552100294 13.347482141583763 0.42707566170855477 -0.9996605928372397 -0.13986415531921076
Ni 0.7687246579389876 3.9938465585183733 3.5769669189496396 -0.0785716270573163 -0.5945159268738213 -0.6299236169491538
Ni 2.803374686173846 7.028152407240421 3.8273758737445664 -0.39185077706798965 0.30159451458389347 -0.28536288321637954
Ni 2.711942580041645 9.33497264363914 4.6926699570345125 0.10416953013107867 0.45042307818524363 2.835497926891039
Ni 0.5226100711692213 9.652634117884144 4.420793845175972 0.19728845887495053 -0.9006983179387134 0.008610624487146461
Ni 9.10174678061948 8.401263704864391 7.914866816972115 -1.1798923533402197 -0.2555802526373082 -1.2279035911121756
Ni 2.036588815980132 3.7257787128300177 12.855958237209538 -0.7389957265881725 -0.4677736536485493 -0.9349821788222478
Ni 1.1484648045302557 7.351171304626956 5.847824047592183 0.26977968406614183 0.11406184954412614 0.5716120256924542
Ni 2.4894315633050437 2.9149814242061454 5.17832598448886 -0.21163290052208067 0.3944859006979916 -0.7358083299991264
Ni 2.071627487260665 7.767551729766591 11.295079561211741 0.5120755608897181 -0.6002363742973662 0.9097421733085365
Ni 6.557579586476844 1.9384692970453916 7.319270285011479 2.1802715695110386 -1.6055459378902672 -1.2238924130702535
Ni 1.4037291582003033 7.261518762125682 9.087760347092823 0.9244972201305239 -1.6525230779707538 -0.028094187133054838
Ni 7.96897023441451 8.880809272777595 3.6745844136179713 -0.7530419202685934 -0.8784991561338548 -2.102656392829721
Ni 7.256404858217858 4.027461578894164 6.288462734858678 -0.6694286170223116 -0.14786234303333887 -0.6273933943281323
Ni 0.4960777140445236 1.2998494727759802 7.512008265590219 -0.12142163234330701 0.014724707804684318 0.9280042048425179
Ni 7.59973887937009 6.211557487629472 5.177805227973705 1.4901314309729883 0.7349274700560697 -1.5359114654215806
Ni 7.920088431310233 5.546422165259235 2.850072309074269 1.0358591542449838 -0.9154893602049587 0.6565831285182111
Ni 9.084241494165774 2.1246959479598098 5.422772464507741 -0.7067579496003892 1.0450667888861809 0.6320450341675308
Ni 0.3831512890880255 4.57724371348278 9.934930979720427 -0.5499836487894012 0.5283385597157998 -0.7145090543007179
Ni 8.588960837305418 2.248975052269191 10.069971760934735 0.4724278645911089 -0.26128424500062103 -0.48976764142113716
Ni 5.894598472712467 5.257439763845291 12.823291068620328 1.2729308065551432 1.2688257832478342 0.6575141249729127
Ni 6.820018391416842 8.721819311540745 13.311867453654271 1.2952991469480144 -0.6250326074054396 -0.1718643623748911
Ni 3.85298004794387 6.7813924945013335 9.748923496116344 -0.9844448043287497 0.611068946136496 -2.794182355971704
Ni 2.0976278485209594 3.5323963428943945 8.174323447911654 -0.46862751700841226 0.4548435758504425 -0.8668533443648103
Ni 2.6872628423179865 8.105003824812389 0.2441252219528764 1.4172828224423784 0.1718407082258073 -0.6010308451742036
P 4.809561062438231 3.46402363496927 6.186117220606702 -0.07174509105378613 1.7920257361854879 -1.365427528333984
P 8.201634129971772 -0.19828553604504826 5.758296074545074 0.9873920598825316 1.2897136824404367 1.7571818890334254
P 4.645532126288545 1.1017840406537047 10.564551831691967 1.2558589386745211 0.5411750493588356 0.6206892428350795
P 5.981928216369161 6.737390442195548 3.6423424670753075 0.5854872410126497 -0.11072867140583512 -1.0884837224192352
P 7.812462296136588 0.8045575765663769 1.1061598939609127 -0.3284499442138408 0.45854467885111355 0.37373786951736276
P 4.4116506345627515 2.511076676731751 0.461955986340137 1.2497687666163833 0.01269199364537169 0.21605391240791177
P 4.653746217363933 0.28476858205839506 4.083529072617641 1.4209620710661786 1.6546712346620083 -1.616940552880454
P 0.29778093865022737 7.392429082491363 3.8719005557903823 0.09542983626523564 -0.9091649606488278 -1.4502474502938572
Ni 1.9164120741462587 2.7104346340175427 10.47581904260415 3.3190478695372394 -0.6254781795832904 -1.8322005086321609
Ni 6.522128805723885 5.6942851707405975 10.450431225877871 -1.2303751925811197 -0.6330513639448581 -1.042331906453521
Ni 1.3661054365927383 6.17295032296271 1.9839980276240259 -0.5646021700335245 0.7800912110769017 -0.45031200652867615
Ni 6.2307018458485075 3.456043697003214 10.926601242566935 -0.4145636452844731 -1.7900328741251752 -0.6972001307086251
Ni 1.2205277654584625 8.876735008675206 1.7526706780148333 -2.860019309071171 -0.2967996642984114 1.0399742048546219
Ni 5.897586266387551 8.63768341629535 2.4072410120919825 0.4248652843207973 0.9104399707065095 1.528542426651019
Ni 1.0473200274229375 0.5306321566949568 11.911252531808092 0.9771192172016139 1.9274195144381712 -1.8545575361711222
Ni 6.4282053105083845 5.539706654083576 7.890232973257887 0.465363758655476 1.2283532770550845 0.547417944944754
Ni 0.17692796263660146 2.5078828283204544 0.09627907549538622 0.4292449014457317 1.0812105857965895 1.4450219402288598
Ni 0.13955618977467815 8.158868406083263 12.82361981958583 0.3424048637320361 -0.9743221140724511 -0.13782501340199488
Ni 3.438201230072069 1.4919393175480873 12.457349096455811 -0.22365589312488576 -0.38427527871357686 -0.5296773331318814
Ni 5.49918880004466 5.902653339673509 5.575728768423306 -2.705814825869888 -0.40885862447989585 0.673592261481698
Ni 5.911092217733856 7.764030067002229 9.526699082785564 1.0117455490262317 1.0350274023723078 -0.4554074187737125
Ni 3.939382545287606 5.517939781040016 7.482316714714406 -0.21032832277804422 -0.28739096939000186 1.2767406672195367
Ni 2.3150436935984824 2.5525498754567444 1.248975495017501 0.5795827026027566 1.3045831433531017 1.6999347344854983
Ni 5.238145547636283 4.521833721690308 3.2470779693352867 0.5652845408125297 1.526760395049932 -0.20761118095719727
Ni 4.837921687040598 0.059204208776096674 0.5362040640846358 -1.3621259747645769 0.2411288530986686 -0.7149541122579364
Ni 4.486813782658523 8.538814607410744 11.829523730526635 -0.1853071181433583 0.6240311627241188 -0.5816863792093208
Ni 6.599848905773568 6.692114596974993 1.3556931161269352 -1.9785690407287924 -0.223188466570164 -0.6465391140186478
Ni 2.876992423748021 5.326898942197719 5.4432936430096515 -0.213966947971896 -2.47565995528422 -1.2261243877245658
Ni 6.621924860921447 1.1759918440633983 9.507576266652588 -1.1067573239174422 -0.4363138924773712 1.2634105257695338
Ni 6.132001627202621 8.753626669912489 5.2337902998026955 -0.7959343487567453 -0.39968030041473745 -1.0995237822834805
Ni 7.8904633799174695 6.588206813177551 12.008321171588147 0.06041038276725724 1.6531766523943527 2.2019511113670016
Ni 5.5829968809369905 1.7080813697108412 2.1732546197732083 1.3557347265262523 -0.4757692702595161 -2.4002302162899953
P 0.8012822428730323 -0.13583596517360153 9.488699779590629 -1.9191372198247205 1.8013364720634526 0.8180679474309911
P 8.162895839563785 7.010974935139781 10.016262657328454 0.4346681293438321 0.6935216534157733 -1.7789940998125102
P 2.6753210337420232 4.601914085082064 2.612152144518707 1.5944035481202026 -0.15193471333049963 0.5928089714850435
P 7.490904514152289 3.976687818666479 9.218414035650676 -0.12314581412326533 0.07634839415375237 -0.6714505325483469
P 1.3871698503083003 5.497699586269304 7.869081454585652 -0.0797543345115078 -0.10100115970542604 -0.5442300341350756
P 5.181939435272081 7.236979516267624 13.457586553266582 -0.8638793493381509 0.07774296050843385 0.1618558290989535
P 1.6346603207485053 1.3171955351153408 2.9980392785361745 1.0949382197953272 0.8382606203287821 -0.10547976430206996
P 3.4807328008512455 7.166293375622292 6.018505741884227 0.6656274981086665 2.1910666032440136 0.5097173450701867
