# total energy = -340892.5873480524 ev
CRYSTAL
PRIMVEC
9.02741703455474 0.00000000000000 0.00000000000000

0.00000000000000 9.02741703455474 0.00000000000000

0.00000000000000 0.00000000000000 13.21253733537230

PRIMCOORD
 96 1
Ni 6.434968589044822 2.259598607950444 11.322021315827637 -0.2031171497415857 -1.2809482775429808 1.1170090835524376
Ni 4.596498988464969 0.4893157968962554 6.124275585935055 0.2581073899345362 -0.654241624869228 -0.7430611549067977
Ni 2.7036301724850036 1.2842493830128088 4.6670906819041065 0.47583303361791596 0.40596536209250084 0.5780588097590625
Ni 3.455595961465827 4.113505091758673 4.720086133946316 -0.24672511623952345 -2.0054604658029976e-05 0.3653635294107385
Ni 5.183985238018307 4.208383245402079 2.842518789938337 -0.26786061266655803 0.7798366718639345 0.27131591820501016
Ni 7.31409457519225 6.263998336727746 2.6165715675272225 0.009653463929364019 -1.0193896958350508 0.4665552078604158
Ni 5.234358225395112 4.765961662127578 11.528586673740904 -0.2787325223840555 -0.5417044394997445 -0.34999990247047463
Ni 5.5522587183116245 8.007093275724099 12.415490682455331 -0.6030882419238646 -1.2885343174203552 -1.0651568747678366
Ni 1.9201496704338537 6.448049316412024 0.44950488751781364 -0.13187110981140515 0.5095849332573804 -0.5414992654674738
Ni 2.609356855786803 1.5630340776670115 0.2618646067975106 0.05693553684477936 -0.3092168070158417 0.43574696423030757
Ni 0.5980564522270845 9.065061421893367 4.495869467391856 -0.33757298956103154 -0.3929946608644458 1.2129770517093303
Ni 8.563841170077078 2.483361195425145 1.2844452779637188 0.6603009436894306 -0.15462922944352725 0.06922643839699046
Ni 7.011414307493891 0.7377205248086738 4.7466041716558784 -1.4059195749107594 -0.0630449921766269 0.45218171274756314
Ni 0.5522450187071802 7.3777107834439235 2.38928919012811 1.305667891776848 -0.020549542016577514 0.3965157866438268
Ni 7.803525020285583 4.012443157406824 3.7798291874728114 -1.1116583607634856 -0.6311785724021776 -0.4235288248975609
Ni 7.620764961245548 3.884488547536068 12.58249789866875 0.19479346036723869 0.9240189949425247 0.24265788814868536
Ni 8.097629241745956 8.775994499170674 6.785668396483941 -0.905550246714376 1.1296411704941514 0.7714016537227038
Ni 6.819238652426256 0.5861637329492707 0.32824049645439674 1.443865200916597 1.1733216421012373 -0.23339600323078513
Ni 1.913297860860557 6.333699024099842 9.15233758760308 -0.16555050434172133 0.13189527818112123 -0.6792162925366948
Ni 0.3600693636395462 4.995980249647463 1.5283733097399081 -2.883118871203112 -1.3158597447081855 -0.9551432271511552
Ni 6.495362009394431 2.161317118063121 7.137108452124654 0.26160280468230435 -2.1465942318632516 0.7463385401064888
Ni 3.375459579934665 4.312713104741456 0.746976335553734 1.1414569321821568 1.0181167426598983 -1.4031538392401641
Ni 6.0158075586004225 6.09537521285475 4.635988521794913 0.047403428984628036 -1.4526874271939174 1.2961915768552967
Ni 5.302072881006833 2.9500425494450813 9.421266148275564 -0.2425642999936145 -0.7884910051048227 -1.073343781454003
P 9.264747887982058 5.619494920817437 12.607178856999965 -0.21997355917729214 -0.5303982704583059 -1.9064351988770198
P 3.849787156232048 6.08844215652762 12.63779173110274 0.6240090512369317 0.3061805912926791 -0.17379114708395876
P 2.233518399969873 8.575062249523201 1.251012238761211 0.2048189629240408 0.0035206115587487754 0.20037326844786135
P 6.3166913702973515 7.976093125428052 5.850088554806121 -0.09184700400998376 -1.248865023855191 -0.42271378519543323
P 4.8067023954665595 1.0363203999811712 12.324668547311637 -0.788849416885506 0.8053456147683161 0.5813781039402826
P 3.859663150531371 6.283280899637576 8.015570923115776 0.4490526802002783 -1.388737406704518 1.6674298198792572
P 4.69546656205133 1.0479657680306473 3.711217206602084 0.16044043680866563 -0.2126860243769434 -0.08673205138092159
P 0.2680050559039088 5.6082287042858505 3.719368964236717 -0.7655768195108106 -0.07117507748292903 -0.8242943879566771
Ni 1.3664801253094585 1.0533099989494767 2.621671155442842 0.11927373276236877 0.3266126338947859 -2.1118324029020337
Ni 1.86670736124556 6.3527920112507275 4.844416235854386 1.2910231452804797 0.91121695808185 0.7611552934043472
Ni 5.889884117575506 5.546616582628739 9.045765317857898 -0.26725948874744937 1.02480238221019 1.0167432593511392
Ni 8.771832859890976 2.412035572976377 10.283833143250003 -1.3655468275206675 0.2810593707450192 -0.7551648801488672
Ni 2.4039379798442995 5.149969930413326 6.905347573105894 -0.31959120827163023 -0.5942346481879766 -0.16409551706274964
Ni 0.6451452652655941 -0.06371099613114556 9.134144633936328 0.5416733291514929 -0.3001600961302121 0.0731669111019772
Ni 1.3817815972814445 0.9937741832236666 11.340505855066482 0.2868348397762157 0.4875873459403667 0.1429296816184119
Ni 3.9365316070750063 6.776367448653417 1.6705804057164877 1.4495460533514584 -0.30326624585936157 -1.4381303553153488
Ni 5.5142171826833355 8.02999583288807 7.985763294617663 0.7193134176678967 -0.4622722642143458 0.3028175883577172
Ni 5.317906970587283 2.590020128374417 5.24846898105258 -1.1079657424032467 0.6859253291257542 -1.807131738588991
Ni 0.7753404800587372 7.378360757474593 7.216120017486077 0.800884236562853 -0.7258298786301758 -0.1143492988775579
Ni 5.104029404828998 4.412782023213117 7.0964408408641235 -0.6331174412961033 0.3886207001664662 -0.4955035154636499
Ni 8.127807897086576 7.270916439238262 9.292271579955738 -0.8518219039529847 -0.8593259256395136 -0.6376466966250245
Ni 4.623229170476208 0.34346072167254926 10.219818825904547 -0.14774947160455842 -0.742323762520141 0.6443199948801419
Ni 8.501236032539778 7.110571456839198 5.143627267164053 -1.156331278190828 -0.4508779063344751 -0.8867197442714341
Ni 7.171100288445195 6.084334681750479 7.1919671630547795 -0.12701506727068448 0.6962099988812139 -1.9602309045412367
Ni 2.227876264286987 5.206102409895219 2.6694216781542406 1.4929385614044803 0.2063539115113285 1.1690227576155674
Ni 2.2022474271610473 5.220780990087815 11.334361794993246 0.8669659586832745 -0.05024526930879734 0.3453606039262504
Ni 1.228595356636824 3.199813125563613 3.7298335461304792 -0.5325178879044701 0.4518253578494089 0.5352661400735684
Ni 3.4963637770560867 2.49893348990991 2.4681545113326315 0.8045781404746725 -0.22987307767919118 0.7187048375496202
Ni 1.273542866340965 3.435871055118459 8.2375812889328 -1.417611923647023 0.16436831110816208 -0.6905720838691463
Ni 3.4772075979855526 2.618239834205938 7.465942049882036 -0.07149363716461236 1.0590656742684341 -1.3854533366366075
Ni 4.12808437036325 6.9593170834523965 6.102593535562007 0.18052512337368265 0.40583012206621727 -2.201355129654215
Ni 0.7649499229851349 7.274193391642883 11.071881518350018 -0.22536002030018604 -0.0039780108111415365 1.351769571230917
P 0.018322948472885035 5.537345425274621 8.074274410985646 1.5391857652974783 0.15143720486879078 -0.20455182530558322
P 8.500333290830515 1.4085659437952396 8.195829484879445 -0.21327403566992947 2.0217316921591957 -1.2678924728002874
P 1.7657898655671929 3.0700891419427045 10.230361946327013 1.929405434519948 0.9456748826494036 2.0485670671844844
P 3.8982734134364945 6.1207242000508195 3.748753206873186 1.0172785630293188 -0.4684673372814642 1.044815592107323
P 6.9204359980344945 4.128680179891362 10.27782178620803 1.1693204913616442 0.022598711236122372 0.6330968724708129
P 6.1666015337154985 7.639244084034135 10.165211077169598 0.5599716132400485 0.22863149196260624 0.5457076471218666
P 2.2210334821307836 8.336106519081625 5.861980371342225 0.8366153714158753 -0.04185935923794726 -0.9527757553602431
P 6.893110006495142 3.933715052942109 1.5941326268093685 -0.12036310917180561 0.7401282975307188 -0.737151474290582
Ni 5.11521437460675 2.8013790447638622 0.41549589910479706 1.1138360851410947 -0.15876947686414594 0.2824883898820619
Ni 1.3922082640234172 1.007297254028407 6.908122601120165 0.02798517235901632 0.10247260204462998 0.8851472575779916
Ni 6.874242704771572 0.7132860149640868 9.396175345208343 -0.8776452927739917 0.3076520336318831 -1.805130391888246
Ni 2.635834270119449 1.340697822092944 9.242461000663804 0.23739509708784926 0.7360888373540225 0.27337357206498725
Ni 6.444600843082644 1.911727090286442 2.526184553887393 -0.4947368125009544 0.2274305296759696 0.2859868899536236
Ni 4.084527082891372 6.758086929040868 10.21667367378948 0.10521571200740588 0.8437980052072435 1.0235597680523405
Ni 8.125424658974124 7.091288893929367 0.48180679135861637 -0.10366250858767309 0.39405138426373426 0.38096986848942777
Ni 7.682368055485568 3.8466456150838173 8.059343965856167 0.8192272578464149 0.13419564417952373 1.0506111157431777
Ni 2.972006255231419 8.311831794519577 12.422480611510146 0.9951058835870217 -0.2594785592504499 -0.817647829174437
Ni 0.02826755114211209 4.967255008458754 10.203474687258364 -0.5556513885981398 -0.7337632745446395 0.1987035940549223
Ni 8.639870076831098 2.2228660478005846 5.857196743024848 0.012161317952882281 0.6711114040413733 -0.3299591817695156
Ni 3.617051316167285 2.8753677552549526 11.67823145866009 -0.4050870732526055 0.02492273138360869 -1.1770991068657986
Ni 1.080374195393143 3.4541606021481015 12.450253460195581 -0.5464985184542782 -0.8273969381414009 0.5395889358186384
Ni 3.139085690781577 8.442810589116359 7.918854787352314 -0.6214076090583426 -0.3944519621362626 0.3149421395353931
Ni 5.459186048086742 7.936941217497371 3.352536259711382 -0.32296449561923735 1.3829143722648376 0.8039762452246153
Ni 2.8918698737002564 8.121326211614077 3.2234496117372125 -0.13148107346183807 0.929959785906992 1.8733731262157285
Ni 3.608050981325946 4.429067483648198 9.333680342159573 -1.3085169311898692 0.32758425377943584 -0.09477729028290129
Ni 7.30919268771096 6.370043405314719 11.62901488341285 0.13057527381811707 -0.6486283924475087 -1.5284192708095934
Ni 0.48413496222680236 -0.23341379908841836 -0.009475176980410963 0.1835086314820388 0.8826743705574669 0.5064541009378826
Ni 4.6501399008293 0.24554664766089584 1.2095321599623443 -1.3999618146654278 0.37031984497474935 1.0672212134960328
Ni 6.0845693945948875 5.710238517432424 0.3991174562736618 -1.0882980887709903 -0.3821152949477806 0.886821302846305
Ni 8.020110811171653 8.952408283994597 11.142278219579957 0.06735827484000012 -0.709540654551849 1.3431170377622415
Ni 0.09733722205943518 4.6872425850799555 5.703442677845102 -0.06788637942932825 -0.09087821233881124 1.567179679407243
Ni 7.867168310788533 8.791431382399049 2.7609317024803914 -0.738177087341619 0.21836173460548197 -1.1187636043496991
P 8.493201631327347 1.7936304198808242 3.479178283136871 -0.12044821268644418 -0.40087380650220633 0.5832650365503504
P 1.7571867370779286 3.259060063942459 1.4619405473553384 -1.421626187012739 -1.0034953932022976 0.3708438357990194
P 4.82916260919299 1.1901114775709971 8.161093789390474 0.23987466897659335 -0.9304015014301009 0.9142706573065094
P 8.362502686660436 1.6748476657761677 12.373184594992491 0.877379954927747 0.11432590183879021 0.4471197248436235
P 6.251964789743287 7.782798070640934 1.383643050685942 0.14040203010055174 -0.7061804798303644 -0.21630665184866618
P 1.8061153377199137 2.9880028383195367 6.044670016528938 0.30663696210380736 0.873948817759011 -1.180233281619406
P 6.8399836569050905 3.994451515141238 5.918410755588176 1.0780429867018853 0.9031544927886896 -0.7595568385689757
P 2.4637085084145176 8.356129330193049 10.217664884186249 0.17666435486669577 0.15855941773586887 -0.08326131922350176
