# total energy = -340870.4294091964 ev
CRYSTAL
PRIMVEC
9.19106378037992 0.00000000000000 0.00000000000000

0.00000000000000 9.19106378037992 0.00000000000000

0.00000000000000 0.00000000000000 13.45205088955071

PRIMCOORD
 96 1
Ni 6.637850438143369 0.7774932057132584 1.7283730681058944 0.2112004409703524 -0.8006916609360727 -0.8215636192890754
Ni 7.798396842393015 8.248795720928918 6.959431965399376 -1.6087040239032746 1.4957012117512822 0.30469603632735265
Ni 1.1573754873225621 7.701311638042866 3.6072884044208173 -0.4946146851007933 0.3937155981908703 0.5974169025707002
Ni 8.025609124579898 4.4646969886538255 3.198749305747864 0.24106920350532676 -0.8091994412967676 1.5507392744630326
Ni 6.01506397153671 5.376799753900454 13.47747505186755 0.17599535382412915 -0.5352298875189943 0.7849747644214481
Ni 4.175527747030763 0.2644655009951785 1.0384982712793134 -0.16421481624943332 -0.4920021871786107 -0.06554847532477098
Ni 5.182050308196079 4.062413327837609 4.34614237894142 0.3873600882864877 -0.6987870155797707 -0.047823033020549896
Ni 5.523424790821587 0.10226253045167737 7.435190826501113 0.4311817134571283 0.15544041249091295 0.5006238674093507
Ni 8.70655664137379 7.352189088839 0.49640934270108616 -2.0942247171225996 0.12156535701002288 -2.5676365428935326
Ni 4.067551132365843 2.0955073445619594 5.536998153482223 0.6910914467077259 -0.5347123244526275 -0.19432012027524598
Ni 4.9768230500369866 6.81722323451727 6.969601877224941 1.1047894015577941 -0.6217814474579937 0.3999278976491693
Ni 2.215616163121815 0.7609382620348064 4.558052459412638 0.25682106702294477 -0.1224207630317827 0.9530130681820297
Ni 2.2378677279927524 6.535590665010758 8.653354169975433 -1.8528865762266027 2.089938688152736 1.7760972378806894
Ni 3.552125479165802 9.413119652300395 10.991387946822565 -0.9505630639796403 -0.08069510115822232 -1.939232962133331
Ni 8.316552241469417 2.0672356330613386 2.6838723590421627 -1.0051231586137077 0.0015290350500167214 -0.6889319771625618
Ni 3.9024336755684907 4.748048287045452 12.413054304932725 -0.4398383606908618 -0.05230703693383249 -0.010024217005221447
Ni 4.759187856076256 1.220315890559315 3.068533993700986 -0.7355049398260946 0.9274033380337254 1.079461978536599
Ni 8.186682513412272 7.0741134609289595 5.00650375158086 0.0649074993066624 -0.7662522483112804 -1.1798265330992905
Ni 2.906370544730779 4.61780172538248 2.812689710322056 -0.06048391631767002 0.17365642127830738 -0.7172434225127454
Ni 5.322462186152836 3.132461517163736 8.713606187121831 -0.2267345320502095 0.5683462104569889 -1.0011718872754436
Ni 8.092740652798538 6.934004888069574 10.17124361067412 -0.7261399536714268 -0.8271447129212788 -0.8011585732701623
Ni 5.945993128907592 8.975606644871085 10.620394342779012 0.6982496550190619 1.1685131649690004 -1.9250630983908523
Ni 2.943502441500125 2.347544689415675 9.549059158730431 0.8122438845500464 -0.047109294782976936 1.6830045343890627
Ni 0.5882970006098828 1.052119427470445 10.872553009671677 0.7159954090382573 2.3565407458218446 1.8670926925236553
P 7.445588676702886 1.2294426166711865 7.747964557550669 -0.13616305231853967 1.5154089745928545 -0.9079971655929717
P 1.0236179393809046 4.894379209932769 7.265680960429981 -0.3585200241263439 -0.5166384976700522 -1.073705792779112
P 5.640307546073017 7.2461885528387855 0.9405794374645652 -1.551150393858522 1.000079425542213 2.671401638497341
P 0.1269579991223596 2.0772630834017733 5.400486962898958 -0.5668300309227786 -0.017187567522880073 1.128006977324838
P 4.4821048630303455 8.425595019506922 5.7555671595003215 -1.5352105826998141 0.5639321405496933 -1.2227714120919329
P 8.515621487045474 8.64926874222445 2.3751482105957193 0.21630845162087908 0.5811011961298121 -0.14745970827828153
P 0.8453710482927078 7.8819895654418275 6.006932637608037 0.4080543834110456 -1.3060949520119378 -0.7491883508504581
P 7.945656062699566 2.6428903257488856 0.4173836591336318 -2.2009118714692093 -0.6232122663672492 -0.27427422950238567
Ni 8.511899106304982 4.965922448658658 0.3773124602388309 -0.3517891331604135 0.3656887739606412 1.1496962893728135
Ni 5.676272177770653 8.073108541041279 3.4249992835803535 -0.34127666366486387 -0.18649471069355622 0.1428414927799798
Ni 5.814101366867959 5.842759103037965 2.5374872088798606 -1.4898192990492083 -0.553530228490079 0.40445355343366474
Ni 6.561288878715484 5.087428308879143 6.754785582457072 -1.2335402205726627 1.6643182708334692 -0.5463532511256656
Ni 0.9637289692449988 2.9814891071802507 3.7707174628427915 1.2856919628755537 1.3745675429620392 -0.15769964083873486
Ni 0.6000440989417891 0.558784495529098 6.908919718304085 -1.2661888598456192 0.8595218437004036 -0.22103028257658064
Ni 5.166149768242868 2.599416595125369 11.025381095387274 0.2147943289691978 0.8853372621016108 -1.3695052979477833
Ni 7.728618287870026 3.576132537176082 7.736355325172114 1.733827016357569 -1.751060863737352 2.32312026137987
Ni 7.384633543194395 3.9269646242015064 12.071076888537894 -0.321420291060569 -0.8902141305779379 -0.853174561326137
Ni 4.0854185599202015 7.963017981758303 12.715712351431701 -2.271271137919063 -1.427878595680354 0.5109643301034104
Ni 0.5770140509875934 3.203747406110035 1.298848014013771 1.5879536787298008 -3.005757920893288 -0.41653619562981165
Ni 7.497407893035949 2.338381199049577 9.894548480510306 -0.8668440883934296 0.8099494320889147 -1.4883044050665788
Ni 8.580960757870542 4.467647320055549 5.635992341733114 -0.37131306212595405 -1.3510560901036603 1.20853341411568
Ni 0.958471680890527 5.3550904617793655 4.447059337688386 1.046126340498947 1.5441392526480116 -1.4710245349402085
Ni 3.3524496233949983 6.772131876707761 1.727068856187189 0.8930852814781458 -0.477174635247475 -0.4672416924044792
Ni 9.109207944732278 6.716259401346163 7.90886423528182 0.3699390645965629 -0.8524181427760869 0.062099083323589835
Ni 0.39132607484383636 4.65125719672912 9.36707977673183 -1.419745167939942 0.49883515094004416 0.35020121984800334
Ni 2.7426593206576113 2.4456776750112965 7.378315606105472 0.6624622130068075 -0.08884704084139537 -1.5268753233612413
Ni 3.035587707275392 2.3190983477074756 12.120930136376163 -0.71698476953472 0.08383338967688787 0.46791737831526514
Ni 3.9976255208259452 6.036074742827484 4.428065085741967 -0.30737024072540614 2.2331655892965925 0.012217882222430572
Ni 3.034705365173942 4.618472673022126 8.156328106909687 1.518438762558114 -1.5695003571206194 0.1661770821821267
Ni 2.217647388167861 4.313016866776469 10.678695097132307 0.3178423439013236 -0.3833972469839978 -0.19252651870993295
Ni 2.724074990145825 6.643107726497839 6.489914755559039 -1.3999268476624342 0.34156642699114076 -1.4934491824923117
Ni 3.0348616132544075 2.4595837541726877 1.335792413086559 0.4313637475609475 0.9933523912310246 0.6878731968807444
P 6.654137002765963 2.28202159731947 3.923303823586845 -1.0860504303873943 0.8496410942515819 -0.6718950762849332
P 2.0215836203748676 1.0025520217087904 0.16470569715000932 -0.14069822118473188 0.20746179986352656 0.46233962711717147
P 0.7481167283731138 4.959350838215568 2.1972717193688602 -0.0197913236943143 3.03679833513886 1.5457927290910345
P 6.238425198093307 6.057820799202799 4.7822574256037464 -0.06290718104718199 0.3616166607737966 -0.6139467819049234
P 4.972411339529737 0.9332697846178669 12.366523626570228 -0.15292433093727859 -2.915985540024146 -0.39779953845225685
P 4.712708647669676 0.9950704959735807 9.161895716571454 -1.105982907645263 0.5246148310073093 0.7545187619244361
P 4.48135119581869 4.285599924186627 1.0844407215741783 -2.025253589269525 -0.01610770419514 0.5763855358216977
P 4.586156893556526 4.059545716007897 6.651985374787323 0.31601788909807516 -0.4966227166697576 0.27150797961115825
Ni 7.192420831031688 1.4247710993796383 11.961200481035789 0.7171140960237328 -0.16071863017071675 1.6428300190527059
Ni 4.112329994014421 7.781843736927274 8.975355728835984 0.5620256675555998 1.0550413836003896 0.6501931658314674
Ni 2.7314462231183536 6.62274032965604 10.955457322060086 0.4969996403932021 0.8725257121592391 0.002557219204214951
Ni 6.431841939581951 2.726446284543471 6.021958188310642 0.2515870723175151 -0.03465435684907581 0.9319269369356917
Ni 9.037444120481025 0.5377084676870713 0.37632625911918965 -0.8787200138954092 1.4328817053219 0.016661005595448725
Ni 1.4612320485093404 4.056485091843493 12.857376052244891 0.2591137197118634 0.19535344663576681 -0.7300094639291621
Ni 6.252175029174233 8.326313150966705 12.820314926664933 3.2235249593375648 0.9548650337891039 0.33919921231054484
Ni 6.010725789537915 0.6363258223321342 5.125137404439854 -0.8980027733844211 -1.245787670481448 0.33344559765621923
Ni 6.239399450830325 3.6016101653554453 2.038819621862876 0.7589546862086026 -2.200329516603178 -0.5574640163268464
Ni 1.4409933265573354 8.104376539261407 1.0782735179275864 2.291128538964622 0.3085753167771008 1.8446531325732165
Ni 1.7079661496908005 0.47457229479655905 9.109553528722012 0.6171069248004598 -1.8363965489913792 -0.6885766507056721
Ni 1.5899620846854452 8.635335089872388 12.246464439753579 0.13675800559006124 -1.0031115275003177 -0.7554885820368731
Ni 2.670472707482749 4.248569129116405 5.590954292092235 0.23224312057326454 -0.2635563288642493 0.20309606669566313
Ni 0.7271601843573252 2.538498225871105 8.201728284454703 -1.389159581843601 0.4816298428053511 0.8302796590058347
Ni 6.659467819628888 5.033228607084877 9.7990652785381 -0.20046942770609347 -1.251679867596167 -0.007627434638270735
Ni 7.977236557080624 6.525894092958367 2.4584027025056425 1.3005210574685862 1.3978223997249217 0.5562442849871324
Ni 0.49444061688722624 6.022609834716817 11.88722712510549 -0.3421557238357075 0.48820878157444947 -0.34888378658816044
Ni 8.42605457268476 0.22904222294103568 9.29737107429187 -0.39764038716657324 -1.8133610073281543 -0.6493485584429849
Ni 1.1353536990405437 0.9659623976892936 2.520469954704503 0.6976598439538629 -1.2672543249956563 -1.117432287132785
Ni 5.324815098423368 6.843408574590504 11.075759152954635 0.09082113384863068 -2.1664637170936687 -0.7473893499685064
Ni 8.09339321831107 0.432123367759622 4.398537874959492 1.8189369587540354 -0.87055187626232 -0.08348680497074654
Ni 5.4049611726383935 2.532726237957454 -0.0707684320680532 0.7523081274263624 2.7216543640053064 2.5041542060691713
Ni 8.446605790797696 8.604131429097157 11.61766150294266 -0.5733328650383029 -0.7176519708050737 1.3648284612974044
Ni 2.857529232990109 0.2137758663732426 7.1355731838267165 2.0120656298243413 -1.5677388943448227 -1.214162073156367
P 0.8474234127849343 7.745208157589994 10.045480449814141 1.5491115090516223 0.22336895801208628 -0.07344716134655738
P 7.260186542635744 6.157801188573331 12.033182133493334 1.8442674670990238 0.6261664638995668 -0.877054196157212
P 3.157755324071964 8.472552163218454 3.0345537126252555 0.4543722926409788 0.9747476316456437 -0.06869422004260427
P 2.2727386231271334 6.636398250101399 13.110542978809734 0.3129377075108546 -0.931079758444048 0.1429502504437022
P 6.5692851040098725 6.885788568650765 8.691100948896727 -1.049192123908464 0.3591908249411233 -1.8817508087564623
P 3.1517167953151666 2.742420353005136 3.703094212723865 0.1236021849343936 -1.2615523895148724 0.20472768876181516
P 4.311059170238877 4.8922652653147125 10.10955227297473 0.21904847625986149 -0.13852615323407755 0.12793989307779902
P -0.09105770486962045 3.060127846971965 11.016005291453014 1.8725706849190913 1.7086152929786314 -0.06566417496702884
