# total energy = -340860.61185768584 ev
CRYSTAL
PRIMVEC
9.34189330413110 0.00000000000000 0.00000000000000

0.00000000000000 9.34189330413110 0.00000000000000

0.00000000000000 0.00000000000000 13.67280514364185

PRIMCOORD
 96 1
Ni 0.5096012163736979 2.2774601795366793 6.357252777072578 -0.133580379193028 0.6617487318795506 -0.47666658526280486
Ni 3.0240456121968062 2.865364211771809 5.7565923894694775 -0.1464775468706703 0.9049074709240544 0.01433415723448499
Ni 3.5432960702106184 6.348722694255666 13.216461365002084 -1.0906586185833667 0.04366967297380866 0.41044319535819634
Ni 0.031667150074217304 2.458076345544974 9.225697945270865 -0.6579059610946927 0.9947377016143254 -0.4810300044378232
Ni 1.4640428418582767 2.1577531581634357 12.212399338805307 -2.11983007639553 -0.13478828345820013 1.012299878867805
Ni 0.48569904805111475 8.392215154868286 7.11229262321349 3.5851771013349865 1.0325704561913829 0.05423279320163563
Ni 7.261827375860546 1.2589042058090296 5.9978766792644205 0.012823377016913396 -0.16875512732194806 1.571970930148299
Ni 0.8004722760647843 4.873731153392438 4.614708476506538 0.7253812211285314 -0.8482074471288489 0.14435510121102882
Ni 0.8429601412050722 8.030767959304672 3.084256917398692 -0.7273743402991601 -0.11976661323838728 -0.09350845087280671
Ni 2.6624863139130044 3.1797002391767486 3.255672252647621 0.1699550611673202 -0.24121549927520392 0.7188907283081812
Ni 4.039444025972516 6.177336318876118 10.608141217104873 1.3468219974176545 0.31192237887246277 -0.31258649481902295
Ni 5.719378023124664 3.8219273812359313 8.577347192121456 1.198858610030077 -1.4864136158017691 -0.4097693092196233
Ni 1.2798113631239447 5.485597142067583 6.867125842542729 0.07174997614979256 -0.3657252836255314 -0.7330137979731247
Ni 4.757275110904624 9.13418569221404 11.44363251457747 0.8321773902491797 -1.1792729745886656 2.0037321702579813
Ni 7.4289351640862815 8.45898166663312 12.109319953403832 0.503159746457327 0.8019209053574834 -0.6363536888452138
Ni 8.247583962040087 4.2778584861306665 5.995812120834307 0.00025299655107053205 1.3086400870312944 2.1659682655144894
Ni 1.8882021674732872 0.5716454010506447 5.252763528996087 0.7079943931106517 -0.23377138429233285 0.6108442317201996
Ni 4.572128126622096 0.05996000827079955 5.969068148554977 0.6056678297255828 0.10762740677269207 2.6321779171100284
Ni 7.755088686577622 8.432852390936151 7.903181985080938 -2.384145652023307 -0.018079483209530154 0.5718765922077506
Ni 5.036252071983847 8.391150179026509 3.9973130211581576 -1.04842799204893 -0.8739621874954498 1.6104534024942136
Ni 6.033088143675224 2.8305656590470294 2.2434753057225914 0.6308666975887135 -1.0163876757839334 -0.3506149103466542
Ni 8.840009470656101 0.3661928773848734 9.876249648493282 -0.7992793539695784 -1.5267763358895319 1.0807920102019322
Ni 1.8438281740658495 5.7587727873771195 10.40154524569319 -0.6787534939676633 1.1031950604874807 0.6133256033811566
Ni 8.0454160480758 1.5010087138400097 12.01715189943391 1.277457490780903 -0.21997278784634375 1.5978663098578223
P 4.702055179319074 2.6539104558186826 7.099685738139103 -0.0007438201445600093 -1.7833019831592447 -0.4786190810034854
P 1.2024231186213732 6.440385351795409 1.1308754258405558 -0.18174948269908697 0.5192221992368283 -0.5623676242760508
P 0.31058619141467725 2.6372071505107884 0.23480755513612733 -1.2355971031016912 -0.12109381669024305 0.7662247375074546
P 5.078141121760467 0.9746490749876585 13.384801348960545 -0.2838932406493885 0.8427268836302518 0.6270691782194943
P 0.6076135588227113 2.6936602120183974 3.886344406823507 2.905898845212105 -1.6701042813876268 0.071198988742329
P 6.818143493146263 5.209189201659317 2.371164974962499 -0.06475271889635299 -1.6331912104113617 -1.1800666741345547
P 6.599234906300686 3.2690928166327002 11.939448833125482 0.4845436740180365 0.7343412585352965 -0.37156143069133424
P 0.36679075855920523 -0.22909125059591445 12.516523742590527 -0.08898099531609836 2.2407549716080766 -3.166622846833882
Ni 1.0066357178144094 4.388036776287998 8.833808321851079 -0.11453570385675112 -0.33087680848777856 0.12725855074005826
Ni 3.388211298724961 7.496327582705493 1.80999183635601 -0.996274449973826 0.20136597137843384 0.0526065704521223
Ni 0.6728704206223566 6.984391827183896 12.715107172076827 0.41883964695200765 -0.11312828198626325 -1.508059733316635
Ni 6.756692518696973 0.07958826038624528 3.011626499178733 0.9092266671246986 0.851980541018036 0.22216619595323672
Ni 6.045456810469213 1.3610764933663235 8.247368164303726 0.15547049439789998 -0.7070639108765823 -0.9527780693530881
Ni 5.7509816483241085 7.238930395262308 2.200131723151541 0.5765763116762651 -0.6909626344393455 -0.6503618301988476
Ni 3.618171345402326 2.028321225813952 11.882447402478288 2.4994639996823533 -1.1870508187618716 1.6194736037149529
Ni 5.425426007007099 4.455279724613626 6.192386109061251 -0.2564652263454228 0.8277851747187549 -0.075407884617354
Ni 8.976204933790212 0.14913491961172115 4.824640438033123 -0.40343719635400843 -0.7208553082337198 -0.6674516958015989
Ni 7.296915527279142 0.8450443176112193 0.6601944055371878 -0.456158180896808 0.2116313578601839 -0.18727889715774843
Ni 4.936396573977088 3.6809955781739094 3.9745477612561397 -0.2406220886655791 0.1803600585507281 0.987694678724615
Ni 7.884221678339941 7.931426265432105 1.717399660428048 0.8677920541289958 -0.31820101279232293 -0.1377144559660596
Ni 6.80132808511818 5.620568817172986 4.427268057406846 0.3160939937516492 0.742560046900663 0.827217218030427
Ni 1.7142747971028296 1.0518598235166001 8.644781649260738 0.27429171300388244 -0.72449470475852 -2.030934698814703
Ni 4.133414131169446 0.4309153828849597 9.481310831084405 -2.1495751688684464 2.188149172486902 -0.26436751191163504
Ni 4.385112763669781 0.2892810694430978 2.117439151605445 0.4867581651708521 0.7913966087873919 -1.4508506310954947
Ni 2.148056272867242 5.9995320627658515 2.948252963078233 0.6508827356993242 -1.0583694195323579 1.6230903745319336
Ni 8.735389607041386 6.831380956021702 6.0073661745282685 -0.5396210746081546 -0.682737675426392 -1.464900938540974
Ni 1.43719424037344 4.18369220117341 1.6349667935170522 2.0301487125782973 -0.3823513222179867 0.20772688059945513
Ni 5.032571366004367 4.683446127767995 12.534762855164985 0.5391945285936972 -0.8126172087290651 0.43893821747409567
Ni 0.45025964144259784 8.544375913735728 0.7343989327864422 1.0743220862068723 0.14487549249087306 2.405440813956657
Ni 3.888927440334488 6.971135680521758 6.502881684110443 2.399843265264222 2.431459863728238 -0.7820208239994468
Ni 6.3913217279268055 7.3525465021720455 10.031285842133526 -0.47221163481524486 -1.3133382638379123 0.27908373507588713
Ni 9.489868939581363 0.926286093120226 2.4151503456066212 -0.3621247107584667 1.1360200774373015 -0.2516618914195085
P 2.4088912770628355 2.500553934602578 10.094139968963825 -0.47972979756916095 1.1389724751974064 0.9349202152360607
P 2.7655834489118427 9.117996191040337 7.288466718934366 0.9698355390560072 -0.9900621505155272 -1.146484467303735
P 2.7678722127823314 8.874948151781114 3.524110623839912 0.6007382536344493 -0.40497394471350906 -0.13672123881485485
P 3.2500166704141766 5.2249116081655735 5.8021369221135375 -1.7052461193960826 -2.3098803656508284 -1.3134704185404025
P 5.481085007580049 6.787903784375762 12.120545172451912 -0.9498202722763447 0.863015715786275 -0.9667805542797673
P 2.578100991292081 7.936321417546947 10.006210332006317 0.8307149467710403 -0.7582849138350876 0.20369590506319113
P 5.013233646772073 5.706598313023321 8.54580428922878 -0.4543830912742562 2.5213895961108514 0.5810957968131735
P 3.365902857407706 4.301269270863096 0.507680523101157 -1.1811025715982368 2.268143648033674 -2.109135315685845
Ni 3.9894929222357645 1.2344097614481242 4.182771090489205 0.3807868059443442 1.9859226528803864 -0.829308810452133
Ni 2.5166593587361406 0.5441111045939959 0.33530951216263166 0.17963115080450354 0.049138152287547636 -0.48785988287546295
Ni 4.9377231228326375 8.259083832752625 8.197830906442332 1.397090920875536 -1.7850243651669901 -1.1496667216864587
Ni 2.9175947374857008 6.403989335307961 8.346618307621474 -0.9300184070590694 0.17229605059567102 1.9367659886500774
Ni 7.051373202495755 6.133186530909055 7.529326886771268 -1.1292673320945001 -0.8065830867198431 0.4433528016020236
Ni 3.788950497714193 2.4810013518232585 1.0629290329457524 0.9932302638308637 -2.3695363867505645 0.7111349956221623
Ni 3.0384041022741184 3.4004211533320183 8.321747384958606 0.44019471558901613 0.43765189456250436 -0.8789182459491445
Ni 9.296295567498095 3.7290222518807803 11.308722495968171 -0.6416823001469788 0.9040543788951397 -0.6450453030819406
Ni 0.4000348202307226 4.810776134113969 13.434515168606234 0.26825399145023476 -0.8226704792000089 0.047837431198253094
Ni 8.676115293742399 3.7321984956194174 1.9406634379528973 -1.4473906975713524 -1.7584859525568297 -0.8748391907837643
Ni 7.21462278876838 2.323702551613904 10.112256702735412 -1.1907871458758525 0.9523636075234887 -1.0434719335952352
Ni 7.339897578577588 5.143917392830314 9.829297292521538 0.5811284498233218 -0.7152757572634133 0.6944757897989265
Ni 2.5752330300339583 4.267713189953724 11.989792296382888 0.019741187182669227 -0.04313411218531281 0.852258477269771
Ni 7.9161335860199 5.522553672155968 12.34096434345201 -2.4150878501281183 0.06740609735880003 0.062483720356518196
Ni 4.851693626982302 8.283690379833716 13.869283148308295 1.0939270049219934 -0.5684979055435048 -1.1134864151111599
Ni -0.029958517780697226 6.433369589890359 8.782152322578147 -0.5316341997479359 1.394733476386953 -1.6864071323127088
Ni 4.670227348679254 5.204294049544476 1.8906618879920616 -0.5812922290946957 -0.7133646562836296 0.24592216072225387
Ni 1.9742877146837163 7.139541991922996 5.1221750702500035 -0.29264964668577986 0.4379182608500135 -0.26928808914170393
Ni 4.4422477833918625 6.149478792909596 4.222982336220357 -0.4810708849780876 -0.6991117459090411 -0.5176779946781601
Ni 6.984494588010734 3.7140285130557404 0.35999172857985084 0.16673938244349995 0.32819591922150576 -1.0857560390754268
Ni 8.110519702824522 3.4114912969505053 4.074919865965094 -2.9707132705843287 -0.27479359234096545 -0.6631299284977935
Ni 4.462734555506076 3.5878849271650815 10.479671499770328 0.29465176471747323 0.4228281992861105 -0.4842467116029079
Ni 2.0139066843765465 0.48359431947959985 10.876566509646473 -0.4381108364767939 -2.706431890628597 0.6802581035376478
Ni 8.94800175776978 5.808826651940709 2.807395895163002 -0.36314081072780685 1.4281873851700242 -0.06002934527875468
P 7.98985046643634 7.52089676221319 3.9665903365015174 0.5658584110381286 1.2521609209976436 -0.16705434258075744
P 8.861654637545582 0.9046091637933591 7.72132054468923 0.018123963294220398 0.5314092282213235 -0.4656326960461465
P 7.92814726086663 3.982813468491277 8.024336999923266 0.6259759451553155 -0.4647963161877801 1.3303407119331798
P 6.503022746700013 0.06949341043338694 10.008534595071533 0.09762607258560606 1.545779873575228 -0.06790926224746369
P 6.55072245413967 1.8369058310942894 4.157531163039054 -1.3296244025924455 0.8424859712640395 -0.7370743411957434
P 6.968762839611129 7.067207711722198 -0.051501858032674486 0.7674023027553235 -0.036694784317872285 2.1705602557605457
P 6.420505802748877 7.802031700656016 6.199236519454025 -1.025118627899028 0.646133651050113 -0.011412612712315829
P 9.163192271062481 6.202232464651027 10.801912637327135 -0.37829514987074203 -0.5953219677148843 0.6235207987466036
