# total energy = -340867.42992706096 ev
CRYSTAL
PRIMVEC
9.26184359120462 0.00000000000000 0.00000000000000

0.00000000000000 9.26184359120462 0.00000000000000

0.00000000000000 0.00000000000000 13.55564429722566

PRIMCOORD
 96 1
Ni 4.333311004993365 4.799848593546364 12.15610588951103 0.4702282858366289 -0.562456070224799 -0.6051582370790158
Ni 0.8702233798837408 3.2209450584279673 9.573511176529003 -1.4338633525088789 1.7042842697034455 -0.5934489190618876
Ni 6.96413769498938 4.916464466997305 0.9125305555120906 1.0415952853978125 0.8898413206195513 0.3974670948135026
Ni 7.224404763518083 7.893304374073274 11.557853769981897 1.2207248139755493 0.4135562870658813 0.5044257576539442
Ni 6.699202657258924 7.409965801131427 1.9407480215565989 -0.49575676912503647 -0.541567656811564 -0.630745855740133
Ni 2.719369915330857 5.094227032253752 0.4191447345740878 -1.8786045498179968 -0.9203214914862796 0.45149599953444824
Ni 1.456239677761216 0.6353263534928203 13.178187384134585 0.3622751202934019 0.7165862485447207 0.7248852553287194
Ni 1.7285471430404724 1.6552118649859455 10.93624698549415 0.6142583996080713 -1.5203066690047882 0.772120019945967
Ni 8.676189494481594 7.391877420474633 6.182024086157462 -0.683879245230003 -2.048425142289982 -1.4161152844968388
Ni 5.20864784875863 8.728917170405365 11.377523821664486 -3.823926655568202 -2.182437981034738 -1.5492480346294868
Ni 5.349909488173589 0.22826832488755777 3.140124358332057 1.9374643002686827 -2.70565001815725 -1.7377080965795297
Ni 5.7992941422788755 4.698023884411295 9.245545587993764 0.567662554126403 -1.2030194262759861 0.5628165388880113
Ni 9.011922065105306 1.08772018060138 9.419085678728228 -0.34531818072408915 -0.26480048568399556 -1.9781031568359677
Ni 9.062862205203805 5.374916466040124 8.112267324641385 1.169717983910379 -1.457178887306368 0.020694295124557907
Ni 5.017205540424825 3.5974297411304774 4.981211237431226 0.7574323360268053 -0.15963979528424121 -0.5407657297355589
Ni 2.101428968561471 9.252794833021964 9.156647634046964 0.5715140666620092 1.0244216018320036 -0.8163357952312328
Ni 5.733210887805643 7.914069427546154 8.116103580282985 -2.1216036233561852 2.8755243466853058 -0.733590239301885
Ni 2.2245188707267483 7.06436010517226 3.0781478053351297 -0.7465915366575594 -0.4964609942809127 -0.7242604772605268
Ni 4.707054181974211 6.935092553289583 3.8045680959051786 1.2572550476910993 0.31264048798540994 1.2585375139479487
Ni 5.2167612237997725 8.04294798199535 0.03301106315255693 0.5515296531202823 -3.0996808335956936 -1.583953556431472
Ni 6.222199185376598 1.251293601379481 7.395823892055718 -0.11728627001869478 0.518745516710726 0.37993654212890693
Ni 3.2925113243445283 8.96919718032815 3.941818430833473 -0.0260064513660907 0.3594379079549229 -1.0785538649000328
Ni 3.482647712723082 0.308512938308172 1.4761554201709974 -1.255348831807322 -0.036936982235665425 -0.22307199559695776
Ni 7.859702405295575 3.326863502458224 9.843091955036442 -1.6854527388192393 0.6451558605178761 0.32775240392618393
P 1.3017058163896846 1.4238973197204976 7.162395794068366 -0.1994913800635403 0.9747399183361601 0.4948941640144251
P 1.8367254769223715 1.2036321539345962 2.729917302884342 -0.9846096120413881 0.7126684015475533 0.33606992265294383
P 5.802646929681723 3.107015119636765 11.28515545490043 1.3785434968906518 2.8974540568788614 -1.9164779278250024
P 8.695852388559613 2.23499401589973 13.580315333362678 0.8206102542368706 0.14488860511699564 0.7842312013872041
P 7.381652345080316 6.754514387562239 13.31198212519547 0.23535775494284625 0.1435601161135592 1.2013235266308022
P 8.478189800840564 3.6446651437672655 4.022691923438212 -1.3895660732534003 1.367335286879658 0.7595725222982597
P 3.3438867710947764 6.383401574179206 11.16948521568659 2.0200015968419667 3.3758833904690437 -1.3281424187302804
P 2.5434041477433396 3.6444984305814887 10.994576224460026 1.256862440238371 -0.5355996121535872 -0.22413694652636235
Ni 1.6515349130551993 5.482659493270273 11.720698283664406 -1.9694981887757756 -0.008143197932424686 0.44859399539630485
Ni 3.7401825373737747 2.2423942289794936 3.2168763305106456 -0.5620110122675805 0.5727281415747685 0.06637894164586633
Ni 0.10073644250569146 4.94459268617533 5.517757249798137 -0.4432000780742432 0.9214093252338197 0.7784963557859561
Ni 4.046647682049987 5.4538736831927945 6.232180674282807 1.083291379585018 -0.3087900038910682 -0.8759571064382914
Ni 2.673255195776236 2.307171563497473 8.608349268267148 -0.38310902631961763 -0.796007625196842 -0.9808858833328978
Ni 5.886290639723455 1.2594903330135119 12.086429039699942 0.5742944576206238 0.9138374264238325 1.5696996176156193
Ni 7.088626135546453 2.2905002449197833 5.335867607009348 -1.0182851499169623 0.7633229904796273 -0.07426168682805276
Ni 4.412258960302382 2.1699388260721224 9.888937154940725 1.481968692656538 0.49404955662594263 1.588726295229767
Ni 0.5758866194727978 8.588702119323338 7.530499434448124 1.1014233132990388 0.01644708981242974 1.918359718228748
Ni 2.8392366959044475 7.456460256275873 0.0007039001177246863 -0.5427961299020265 0.3509519819710988 -0.42408186918755353
Ni 6.889728043070957 8.834400307783872 5.6719252683453245 -2.4154033244860083 0.19533159225889588 0.09943072989451263
Ni 0.4663838419483377 8.970503100283402 2.023803604526285 0.8170294788641478 -1.0497186858358953 -0.5442516314016304
Ni 3.575488433513507 5.041156668114772 3.02529416833766 0.45997575487068526 -1.3978738217881475 -0.45036908501885664
Ni 0.47772311713426313 3.421676995947008 12.029740073245238 -0.13151295514103803 0.275566465951248 0.3400327639554337
Ni 5.786957366531385 3.273700519882702 13.415790721241285 0.16284441826446794 -0.3518390125617424 1.0092873172937264
Ni 2.41220087053692 8.507762867628655 11.20123203718034 1.0375663667440775 -0.7679756587602903 1.9046189716038875
Ni 4.334542830199384 3.523084922117634 7.422596177322757 2.4046255171442135 0.8090055801184068 2.2848887287024975
Ni 4.345601471522585 8.888044906229416 6.449626534860347 1.0764887548408881 1.695373597477377 -1.9413996307673467
Ni 2.6611962753383733 7.0052973281889654 5.6880436548568545 -0.4651069054496635 1.7837773801337669 -4.463056878717288
Ni 3.288389803918377 2.2764870754708695 6.028750761707277 -0.6339818461789275 -1.9822701437294634 -1.447349817031088
Ni 8.72485122104114 5.7764359121401325 2.739975665092882 0.0968151466485365 1.386768455903605 -1.469611713753082
Ni 1.6264167930648132 3.7582060851249883 7.054302669148086 0.029382052706542944 0.594591260196447 -0.5149279427368486
Ni 2.125861712121441 0.18000578378951082 5.66089163399999 -2.0385863018226895 -0.48821135267761073 1.1621944218398241
Ni 0.42035710990843206 7.745726157286101 12.619437027790921 0.10004419510879545 -1.8625431254797602 0.4024090121998102
P 9.03178871974372 5.28951300570408 10.32933318977954 -0.17122441479804706 -0.6524963600433472 0.8256575868527909
P 4.218112193621527 7.455886021969308 1.7953907948777204 -0.10234713221035924 -0.09982488000913776 1.2145911902739854
P 3.7739697430245593 0.34335877268864023 12.803644910046375 -1.0275763454109013 0.5140118586804825 -0.32679415377797266
P 7.638094272179805 8.775115246552875 8.074650346639558 1.45342379113931 0.7405049641438473 -0.8449776273376416
P 6.625413548865338 6.651374496628263 5.384370029858039 -0.08277178118159294 -0.2205044919800977 -0.8988134422111747
P 1.591055073992802 6.104573770967341 7.156200546848022 -1.8550558159637796 -0.9976037103082108 1.2780817546284633
P 6.64078820933143 3.5767758297814507 7.499484298603063 -0.3484662394347676 -0.14266177266900593 -0.28130928197229615
P 0.9224101641381028 7.801649169270597 4.671681348689814 -0.6913768391586286 0.616957543706789 -0.8161694448566975
Ni 8.736697119074954 0.8536465321113245 6.112999270139633 0.7369370442869309 -0.4989683340837987 -0.3989961298635193
Ni 8.190544722469832 1.6739207891675754 11.545288226696147 -0.49434137683474855 -0.2605723065352609 0.026367434249935234
Ni 9.112857637249565 5.178028193637606 -0.03406783951350938 0.9702991089559871 0.41859976302705976 0.7162054681665343
Ni 7.165555008938838 5.170952145085742 11.783067538832276 -0.22535204988038607 -0.5483301723463783 -0.7306306424529287
Ni 8.128203252832925 8.066408231971621 3.7552117310715625 0.5977632301665253 -0.2802330181889819 0.7750418215784523
Ni 7.112697667203906 6.338574250892528 7.639242740792934 -0.9811630482536844 -1.9973144396570954 -1.9580621790246924
Ni 1.4167934856376707 3.033439033647227 1.2377944642533794 0.2962196234252253 -0.7695129213404232 -0.019183514906986315
Ni 8.69794556522548 1.5979088382969635 3.7428082700497605 -0.3423192459967653 -2.3699865869141052 -2.2824371818382114
Ni 6.652495179710431 5.266376920255708 3.4678046820827455 -0.8368969072120361 -0.5481113714673528 0.9739251357443486
Ni 4.863042152799464 5.523235630319639 1.0196215489489784 0.13031584950914332 0.32879961424377563 0.036260010773298844
Ni 8.37037267886118 3.3441738882480587 1.943581219530441 0.3488719595136185 0.16957788033355956 -1.0317813846311843
Ni 8.027786343933306 7.083458026787369 9.575788663883591 0.006852247035143038 0.6006492934650688 0.33991140788622104
Ni 2.3668548840056034 4.90494273349139 8.944854276651625 1.5671994769015847 0.7669947829042597 0.5024781470092702
Ni 6.223569938237431 2.2727730761655063 2.6124030305989367 0.3220252716344196 1.2808397769895745 0.1549742714877718
Ni 0.9630742887021849 2.6772563122348814 5.029577511178201 1.337703322945838 -0.3680426189047984 0.6067446077295292
Ni 6.575584830005353 0.5051752217255259 9.804810902844606 0.3285077940349697 0.25190974576425645 -0.5489050710132418
Ni 8.23129683454863 0.08044837398100821 13.367966265348082 -1.2149560298125721 0.6327433457861361 1.560039725928352
Ni 8.648079798990878 2.705273389289055 7.5930854167575035 -0.38184764310869074 0.7827620730408454 -0.45587638799033103
Ni 1.2909806014380374 7.010382080355161 9.623029623626572 -0.259380857330321 -0.18002530091912866 -0.010531752769259283
Ni 5.387558882628206 6.944595204878866 10.017756433590536 -0.27997436521095653 -1.6841324773459188 2.1329319038848107
Ni 3.2188796672930646 2.7024207414435386 13.050059965205747 -0.3193994039757983 -1.2404279488314314 -0.793360417381982
Ni 3.1136095523186067 7.562471318742672 7.720264422896142 -0.48396928957180524 0.19135101034459304 3.2687933442570607
Ni 1.1831171702403833 4.5777125353423 3.4340647118345973 1.562882851804102 -0.6962953595061686 -0.4264814797679816
Ni 5.6950984011683135 0.6333980376440009 0.8338956505185889 2.3007776320186117 3.0568531969072064 0.6974585265763343
P 2.87451505838357 4.103191237559319 4.818529732197032 -0.7558752759523305 -0.395184469426913 0.43357772449313065
P 5.000580531065404 1.173401496247052 4.831868639427914 0.5626936401569019 1.6637433721666057 3.1802934023424387
P 4.19836594295062 0.5285632293212941 8.532383626614806 0.323197694675966 -0.9254341301224964 -0.5424199775095303
P 7.63249085676897 0.18629920655258875 2.1543307671459426 -1.2356387549729044 0.9187921993259467 -0.40048119904947804
P 1.1469218852394878 6.55272659986661 1.1712536747036262 -0.6196605444602489 -0.3206294197281575 -0.055889869189084396
P 4.477193746162484 6.010927269778995 8.24383829704088 0.15447933412922427 -0.7321177685214165 0.4689630459709601
P 4.150315498072255 3.3030883497977075 1.3139907258127113 0.2827195320562615 1.080093698583327 0.8847577354490569
P 0.18049295676572552 9.118442528973091 10.988842217053666 0.5587374837226313 -1.188804568228185 1.0626770457687764
