# total energy = -340873.0855386345 ev
CRYSTAL
PRIMVEC
9.17826134650908 0.00000000000000 0.00000000000000
0.00000000000000 9.17826134650908 0.00000000000000
0.00000000000000 0.00000000000000 13.43331323349014
PRIMCOORD
 96 1
Ni 3.917529681503324 5.89860228603491 11.895118262258768 -1.3141538177606722 -1.9760904972813131 0.0042991415959861435
Ni 8.604913553639236 4.914307201366463 4.863812997525584 -1.4123378197322773 -0.8853033235398818 -0.6324623242106074
Ni 8.400935877340103 0.9948225502333821 8.553380370633622 -0.31979535386263636 0.1525180966377954 0.9490574259683913
Ni -0.004661638849546862 5.910873621222633 9.87369985726481 0.41465389100543426 0.09167216899501632 0.15795572271359892
Ni 0.14604082047341965 2.0847869557815955 10.93593948928905 0.010172569657627643 0.30242986600099525 -0.48417934870008233
Ni 3.243781063608686 6.910358728131679 6.9673493052305 -1.5356504984507102 0.5860045469687004 0.9657395146097625
Ni 0.7322820606965675 3.59277526643438 3.3192906182753963 0.4277881143945471 0.14722342389775933 0.10702448308137051
Ni 3.7959085427056363 3.6809141084745423 8.05751563252451 0.5553634250440758 0.9879214500234405 1.7489415034015041
Ni 7.716136632993695 6.414292068276768 6.541607400305917 0.38491779739358223 -0.25740085078581476 -1.1379208940044403
Ni 9.069810838552108 8.714658022479622 6.369861941592605 -0.23923189318627183 2.168776167276929 -1.8596784023374553
Ni 3.8422679398882735 6.700635460338519 4.6936397749511345 -0.785454275161028 -0.3591404313191621 -0.539330282840613
Ni 3.025375160746278 5.175713257822348 2.8141448224685828 -2.6814423105627947 0.5096443257404062 -0.13340785817090572
Ni 4.417038189297947 4.265835514741076 0.5983923401895094 -0.8006798338615307 0.7085068139706959 1.8226550310355705
Ni 0.6541007142025231 1.7660259452583378 5.157572424614769 1.7174832848922228 0.26584281090558093 1.4614304634938702
Ni 6.597572765631762 2.376747443680957 2.142666906388038 -0.670235172084007 -1.8627683541166886 -0.36501128827764234
Ni 8.760650289215356 4.40893378468257 7.620570742012691 -1.687212144712507 -0.36119859939977145 -1.2338492671726493
Ni 7.8881464256287765 7.081019316374393 1.3945523451687925 -1.153094516421085 -2.089508799704169 -0.7553183750075959
Ni 6.607090622467715 3.8076658952676947 0.21663541628221997 0.6316177168221251 0.9251153133304971 -1.548325008594585
Ni 5.891158716223958 4.906294579362812 4.383276873400775 0.17266808922310906 -1.0128747775346685 0.33490032782487483
Ni 7.3749714869482 4.412788654375048 2.3308276852084857 1.485751813848054 2.5988667045524076 0.7994421047996877
Ni 0.29837425680675134 1.3137304129354008 2.733504619806408 -1.626392442321973 0.8672266685438291 -0.9767122115711823
Ni 2.0836121383515067 1.8888677927919768 12.476511544930565 -0.30331381126784535 -0.43896135740254716 0.4348738175967349
Ni 6.980104334782016 5.730410650047617 8.581670525045828 -0.4824618517883432 0.21134673674022955 2.216886135410279
Ni 7.511782647986488 6.99087961339861 3.736999709021749 -0.9868487857845522 -0.5057120805655355 0.7323674226383774
P 2.3705245826059564 1.3278924699246717 9.98232182476379 -0.2645780852605443 0.7866932897744515 0.9861748996459788
P 1.3853759196484599 3.8195242087026515 5.329075577233124 1.1334587444680284 1.0828694615562513 0.33630954946757563
P 1.857395535231244 7.09888939087738 10.400500842482177 0.1355470160010956 0.44314505646659164 0.9743532244207026
P 2.4071917359903616 4.217888278375584 13.395484944833854 -0.31372780751231777 -0.4531834145392002 -1.4868247351972588
P 8.20081307073345 0.6963124551612767 4.5223789284277345 -2.3163911701861526 -1.0671458801734073 -0.4814562933419643
P 8.077998757983329 3.964623339579766 9.694862356143457 -0.5684930204474984 -0.7429529114637076 1.1291529180038231
P 0.1580037660857437 6.100413892697317 2.950855940460088 -0.43609637714992633 -0.6697757159490852 0.38945810846609696
P 8.633513015452955 2.8891605866842087 1.0489384959329553 0.18392463597353484 0.4225754598453561 1.0423154513932888
Ni 4.649679575239006 8.362992945652712 3.3810034107475033 0.12677364068383973 0.06232045530577654 -0.8840856490826967
Ni 7.112959665254926 6.871617287722273 10.900985917265562 -0.029227529406549664 1.0832741531938375 -0.4284468310244686
Ni 6.185643225945776 8.799556938325868 9.742348843798084 0.16529673645970241 0.18493302263339118 0.33659365636689775
Ni 6.410198563793804 3.3251922402093568 8.327928316669036 -0.2744143546246758 0.18531791677663567 0.8911063033749039
Ni 5.646402025535109 1.1994794178592847 4.755970264400155 1.2516204751131412 -0.963696773148121 -0.7111828181409623
Ni 2.3136377198583853 8.571275226441777 5.542289337750211 -0.6320308931001437 -0.21402299802081207 -0.4557354915370926
Ni 3.6334716764735426 4.696929263755382 5.756711875263726 -1.3690077894860744 -0.7935769042681623 -0.6877227873458092
Ni 1.9943535484482913 8.271742673075048 12.395065490937437 4.595739428686395 1.185793549316003 -0.7177216477007446
Ni 4.812823167581387 6.77382291492857 9.998884914875804 0.47184679527665835 -0.25859358554233525 0.07342916362442838
Ni 1.083539622727416 6.245714945320228 5.291449295556186 2.027113268186083 1.2049492963088473 -0.570141868904831
Ni 7.541373362006844 2.0369865715948654 6.61004969386975 0.4576252523606376 -0.5066878142152434 -1.2000220342105592
Ni 5.919427760635465 6.421423577207853 13.182029796047926 0.45451627441801074 -0.5782094764043139 0.10723017133427339
Ni 2.495587569343356 3.7188662184231074 11.049571869562135 -0.2111839859101202 -0.08840815353176387 0.22038544990373013
Ni 1.608297527007771 0.3697691969897995 7.79807831309014 0.2554768942902245 -0.2369119868038436 0.6674226423358763
Ni 8.146523655897713 7.81601447107357 8.383945998083565 0.41120424189393695 -0.2952230638399109 1.1867338017420852
Ni 3.2508758594950806 3.0676961230129853 4.105166381610818 -2.6191115708443733 -1.6886853868239238 1.9463574889932544
Ni 0.4438854916105139 8.191689879127917 3.849006619241172 -0.30998788085391127 0.15181412859223534 -0.1548989381651461
Ni 7.723947333251549 2.877430768905668 4.173770212571289 -1.0910473693813534 -1.0832674683256183 0.5611059839548078
Ni 5.160458987753541 2.8481980070710415 6.255034551714853 0.010564405779407614 0.29660888844384403 0.029411877503213862
Ni 4.3368568996944 0.21729257978217578 6.858968726000358 0.4403975756284415 0.2784404450649333 0.21376588770468344
Ni 0.3138019960117195 4.106262265994823 12.365929100845124 -1.3176176079395565 -1.7042230774482068 0.027873586481816513
Ni 0.7237747304157149 8.977780413774777 10.319820255470844 0.6473430979771819 0.5068875889308754 -1.9186312267225796
Ni 0.7951880271211083 4.74211384350793 1.3298336721626698 -0.2691965578691622 0.2679773407500804 -0.3905132892034887
Ni 4.315076885931898 1.4672827223524494 2.605243009050368 1.3075607379241867 1.3842652298657772 -0.4072519421144083
P 0.6690080459990067 2.31126055021469 7.534140892202861 -0.5635511030611908 -0.4101881419245968 -1.0091592763562942
P 5.880612894136679 7.827110988831205 1.376645557621114 -1.5678553653180287 0.2373143644485848 0.4293330902841638
P 1.3570150926252276 0.2962843667377578 0.5194271701913279 0.38975789909470293 2.5401290815018838 1.343305499623964
P 7.972366150148252 0.209463523001976 11.476804324101142 -1.0472715098469834 1.2296735385284048 -1.5820056886764817
P 4.434174002907129 4.532069336573731 10.087881006509486 0.8185292033381257 -1.292552951661445 0.11455061625508657
P 6.905053693173935 4.254133231746052 6.19396607317706 0.5081759687249958 -0.8771662962550442 0.773541582883842
P 4.435257037725492 7.93031135745555 12.278518094915945 -0.1846913389362303 0.2754391963447643 -0.15616700624429233
P 2.321338280982169 7.421725549361258 2.8907282336924833 1.7255825169605894 -1.2982458882811643 0.2258999519640561
Ni 7.663297383423226 1.8619387745116645 12.855801352234668 1.0900415538246582 1.415522902328478 0.3450448724580445
Ni 1.804739850884226 4.917905079746109 7.189092423855254 -0.1815273393859519 0.41586436637376767 0.1319955512044114
Ni 1.2657648200475646 6.147259737722099 12.666364795111233 1.3706754069964844 -1.8376527899959838 -0.8947482710028655
Ni 6.764112314607994 1.8851964883229497 10.656378832233825 -0.029845622606522793 0.6199063419224679 -0.6458534008055328
Ni 6.129545693659045 0.23574272039127028 12.904483767320082 -0.8017478701147289 -2.098472693765676 0.2925396034704768
Ni 5.121882756045242 5.886854111734024 2.375761698431023 1.5344572494735573 1.5667994132496887 -0.9730154794458855
Ni 0.8644444324509483 7.460329315853076 1.0844620379752592 1.9498583030576613 -0.07106143472320019 1.0368909379436078
Ni 6.896793258118624 -0.08651520763873533 2.684324742965441 0.35882444274064007 1.3907652357678242 1.4387895861659026
Ni 4.47733018694054 3.009395808044838 12.12129448102987 1.0717337566544058 0.9297389281454375 -0.8254385288634494
Ni 4.607055730353604 1.6621096722625324 9.526032831004668 -1.1749074985311185 1.3503320674534423 -0.1820428455697897
Ni 4.087042987099467 0.8398439390301166 11.655762978269975 -0.3938611226297991 -1.893666586357442 -0.26090603572559584
Ni 6.798751072273262 8.567952695897308 6.267393080383713 -1.554373271671194 1.5769647838184648 0.3420274257879593
Ni 1.0489008650621476 3.66892729938317 9.163251962071662 0.6568518087985655 -1.189010513591404 0.9095444554754336
Ni 5.194436910614384 5.61651760715723 7.045571036073704 1.494993129940664 -0.3316432543401579 -0.031151485902139894
Ni 3.3601889500603557 6.735714774540071 0.6038102677596758 -0.17009672895150707 -0.12285270836287873 1.311636193545141
Ni 2.6133079471427028 5.405628700195156 9.428640466050323 0.1350101696610191 1.2901561692944943 -0.7502921254375983
Ni 2.273069805475638 2.536238088076656 1.5653166477627565 -0.01887652518952878 0.2637347634236426 -0.37526433346421817
Ni 2.7875480572427174 2.288764632080728 6.6276609414076715 -1.0271757675383728 -0.588501088138309 -1.317796813829898
Ni 6.378148075779198 4.554813067759352 11.219972713013664 0.29815797809851874 -0.3310192476029138 -0.5378719531275317
Ni 9.125357675168484 7.8698816858953675 12.136622177188057 -3.331637533276791 -1.6217006932732587 0.9643662884113198
Ni 8.431288387037783 0.12504004108446873 0.9680954536988665 0.07729661699963462 0.5191116418008931 -1.2437726969339482
Ni 3.3973517295480797 8.69159305215296 9.114866004822122 -0.4900486629966658 -0.6788895053248953 0.9235911633764868
Ni 3.715809857452643 0.01225297866537716 0.7584621328651979 0.3103023267705366 0.485036554494055 -0.5808641404183416
Ni 2.326845237685709 0.34831317584668925 2.8893579192994188 0.5361747679307669 -0.15352339797385817 0.3787646333079928
P 4.60371484328679 3.7848670945150378 2.8732509887676807 3.013973109714229 -0.12347388688664541 -1.9757359421553715
P 3.505921380958377 0.9453333659909 4.8128470310604365 0.6428508665337832 0.439924749757081 -0.3277562605809259
P 5.015506709055188 7.5196208830278595 8.075207648760749 0.6496864013983779 0.6728085892381381 -0.8244206291218963
P 6.046170369167445 1.0730029789013091 8.136853439926297 1.1795200576024654 0.44837699428949235 -1.660444646810676
P 8.093032749783992 5.868671976351169 12.455555739021358 0.15874839381822337 -0.687444336873442 1.1750419672264536
P 5.1513725091927 1.9345479986478433 0.44286670462035893 -0.010191081600388901 -0.08808342320249346 0.394378685696166
P 5.915958377912235 6.915094710896724 5.232732287530805 -0.7057277085636621 0.7510408306781645 -0.3932656551376453
P 0.762898904316017 7.1203848785435335 7.2315014974292176 1.4261749827256855 -1.6809275972553759 1.3228076367809283
