# total energy = -340868.80547326384 ev
CRYSTAL
PRIMVEC
9.31672839192774 0.00000000000000 0.00000000000000

0.00000000000000 9.31672839192774 0.00000000000000

0.00000000000000 0.00000000000000 13.63597375092438

PRIMCOORD
 96 1
Ni 2.602413773337547 1.579148184477766 0.42348536438445583 1.5128964925836461 -0.08315410422167614 -3.5631712864878566
Ni 8.754910975228842 3.336450848020429 0.8676445489260608 0.16180594969762455 -0.2491257552612161 -0.34866704259166403
Ni 7.259948747911959 0.25180228481534744 8.65040243856873 -0.21376717325626413 0.3789173568357732 -0.29413240187889345
Ni 5.405165155886082 8.818115660197792 13.687653719521165 -1.6194872305617076 -0.11873611509134391 -1.0408398952890268
Ni 1.1780909801943942 5.56946565992904 0.9418094330986477 -0.8357424818926187 1.8931328253411592 2.6911739360282616
Ni 3.766538977770082 7.4775875216257965 5.436063153709052 0.058435261318757425 2.564648921020119 1.9967940483772515
Ni 0.3211252652765012 1.1207092504296883 7.918750446337506 -0.2003503856297259 -1.9261745862874762 -0.4057424474484173
Ni 0.11176440468101742 8.27941311161441 4.558137595074377 1.054138669280462 0.7581021084003202 1.928328142295369
Ni 7.249364944532724 2.733975294040163 4.22407046247913 -1.6912500622273068 -1.1669527624604161 -0.4495370760358645
Ni 7.220445819806365 1.6272784030139684 12.86649591825446 0.17786068916764208 -0.2601200494891907 -0.5325148025806764
Ni 4.264042953692394 4.250897050023291 1.9964705330740495 -0.051227687826724676 0.7576807045921854 -0.4211811506009908
Ni 1.4401239643853907 8.272108796606206 7.052198749644178 -0.5201760785096654 -0.17700194071177258 0.2930656511772759
Ni 8.284546628922472 6.959633327026178 8.882050776667562 1.01839622157353 -0.04952844574743084 0.35899464976991724
Ni 7.027794511464981 8.970351001057557 11.065646866512377 -1.174090401946462 -0.3430399262128737 0.7700392261575383
Ni 4.794947400666252 8.948764141524382 9.463038228434916 0.38362401828282316 -1.3045489476810566 -0.5333542677628363
Ni 1.8254638479814662 7.418025677432622 13.279938781175467 1.018338114642085 -0.20727153822959143 -0.5623797084609089
Ni 0.2554991626154181 1.5675768078958914 4.388234010615685 1.3323076058515635 0.00539366021174555 -1.0533907353708438
Ni 0.09979334045392368 8.249329395847202 11.419023850237728 -0.13573290675965655 -0.8286164123707987 -0.005970872871454233
Ni 4.477181747624392 5.768368492977702 7.153472518229228 -0.542263397327008 -0.16654886369924865 -0.6740656015736907
Ni 1.1360445852555865 4.679513136697311 12.535018836134062 0.7816937796773312 -0.3988650036022937 -1.5928459738250955
Ni 2.1207016519291457 5.781160360970386 6.845790360255454 -0.5498982881644465 -0.19587409502592718 1.2874721947044279
Ni 6.533774991936888 2.5580475130453686 10.147769313466755 -0.44973350831738673 -0.7719899221260059 0.1262931015029954
Ni 4.325971246880574 0.243976233020843 6.688553799629867 0.1527700647476014 -0.0148792311046776 1.977266005646653
Ni 7.7094529394946445 6.169742466024184 5.18726085541493 0.03383108961683206 0.6885776791469367 -0.9515807066108772
P 2.009618300088817 1.6978992037310439 6.463574375667351 -0.013721463351150563 -0.7762342992246567 0.07853948826780022
P 2.937163822119148 4.602817829111168 8.54735569658309 -0.6791949523804561 -1.9889794374288392 -0.8012992126130845
P 8.930158635055781 5.740623276020518 11.174025572119437 0.49247527016028736 0.129389481040132 -1.385628685872207
P 3.172373945457313 8.761833304375648 0.6930183148785192 1.268385353276306 -0.014418746528491296 -1.4940202245044334
P 6.382368839898208 7.245889804866831 9.760030372326533 -1.6575094754417519 0.8107575298125068 0.9706369519113799
P 1.241127964053462 2.4426970996313693 11.92122252556391 -0.43046977499176836 -0.6477164221562006 0.395512542190293
P 2.9678810754125777 6.26411160724625 11.574187438810606 0.33419224601425673 -0.014003513367943626 0.8073791002585772
P 2.0731118036358973 3.800051249561549 0.8140332991152074 1.809888989619154 -1.3754728283851279 0.6021184218114276
Ni 5.80750806867855 7.665533882162151 7.655195108737912 -0.023861379998629872 0.5460169508321694 -0.4425354479070508
Ni 8.529837452310225 3.563359766419424 11.50026665292018 -0.5504988978629228 0.22195279439085003 1.0320809181494741
Ni 4.32496504022128 6.508433490888017 13.538926126876436 0.07295428087053887 0.04891960851883833 0.046213779551901056
Ni 4.085664873147653 2.6403794412692205 6.316509819028956 -0.38425676677081566 0.7840545666000238 -0.18107662500177849
Ni 5.430385539466705 8.483505362341093 2.714513580238329 -0.8145493927547715 -0.8999755808400758 0.7098335032019195
Ni 4.599696725121693 1.576418383078016 12.367951263778046 0.10861419616599359 -0.33827232962090126 -0.29474663842412463
Ni 5.602008991974521 2.789605478879432 0.627711775999045 -0.25487371348858684 0.1525918872985243 -2.0617146603100363
Ni 4.502430081389996 0.530718112407322 4.484953762394601 1.0287084021328154 0.23570845341404567 -1.247185065049607
Ni 9.075192144918935 6.680615947095442 3.142560414811582 -0.5032091116380236 -1.3440745165795045 -2.48642542133084
Ni 3.964854856934155 8.447663908467929 11.915931555547127 0.11437398146790624 -0.4942794132485617 -0.6345616299417974
Ni 3.6619773357585066 3.9846156377152786 12.85840992973964 -0.26643622151520563 0.39505411449663574 0.9048866449884481
Ni 2.126543240590044 4.694280151095276 3.102347552007487 -0.04017040157129856 -0.006282233464285955 -1.0800949841349075
Ni 6.964235790819613 5.487049881150247 7.327999063283674 0.7746918944382013 -0.5821502062196168 0.8385820082239429
Ni 5.24789878172985 5.73350529557885 11.524824617116769 -0.533943564607403 0.050091517339752444 -0.07620029861166232
Ni 1.9150162406585813 0.20922576803474532 12.214791703468263 0.689094213772039 0.8912086332807232 -0.49855721468830916
Ni 7.738446598047618 0.1722402199230504 3.6683630213536893 -1.0165329431125458 -0.15476601213170765 -1.1139587267618878
Ni 7.076064480926085 7.485031587558903 1.1131608371393222 1.4626833620643647 -0.1583583574686563 0.6476696280786652
Ni 7.894073228018334 0.9607223916020335 5.895935932246622 -0.4493990077961035 -0.47602046703837375 0.16442538959834263
Ni 4.456247059074093 3.50812088416988 10.640000021156105 -1.0908961885154695 0.5403145011307533 -0.6064435315493427
Ni 8.052271275007245 8.16052234143623 6.757783612807753 0.7019541004538427 -0.43798485242189084 -0.24227402244670532
Ni 0.8240897756711455 5.796886998386009 4.964080491692317 0.02293218331614115 -0.35032720390290634 -0.878143829676965
Ni 1.8285849519709412 2.1954218131100096 2.2660808124132252 -0.6974225311320763 1.741049759358253 3.753025657682265
Ni 6.583815139780083 5.130740923020453 9.686095611343617 1.6429940554343962 -0.6023302807119175 0.542671174288388
Ni 2.2791233003979 0.030247690185759634 4.908691610116713 -0.5303913284797703 0.7908073119428252 0.9930641705666446
P 9.202216418926403 6.293878554250347 6.835031402383676 -0.03466824080614674 0.07601955005942392 1.082117928102207
P 0.008995301199516702 1.1914791187999927 2.0912263185216773 -1.2427257437266728 -0.5867239416332282 1.3149994535904193
P 4.161456458086098 1.3981800534581779 10.226244116163317 -1.1990570991941285 0.9311368369342286 0.6298709093343474
P 6.3298783925050675 8.470163807377128 5.444640133806694 -0.6091447325305896 0.35354056863388145 -0.8806177451387545
P 5.88012264925756 4.866881860077405 5.617993702764797 -0.8070088614033522 -0.3873593169555393 -1.2645019590614996
P 5.690694928917245 1.938252161105598 7.489994608738584 0.483715007469154 -1.271962786214919 0.561266163681756
P 8.796435633381348 3.2913858331037416 5.4329942233982065 1.8436540018847407 0.7957700552647392 1.4003593072141627
P 8.40558956334414 3.321674516894139 9.372509442629156 0.6046787263394361 -0.10606777559505604 -0.9069566401435993
Ni 9.131623568394309 4.047037717504778 3.1541373814304525 0.15490176637862355 0.16281613612969378 1.0291940835199824
Ni 7.703993336695145 2.702140033347518 7.33412201714004 -0.32751226289091984 1.2275086696666022 0.6163821308192933
Ni 3.398295290653668 6.844813967126806 2.000847532041976 -0.6625334325643751 -0.14851206080219587 0.934276668114791
Ni 1.9587210132395578 3.5716330211736143 5.347728457424248 -1.769561493644701 -0.7007343691141287 0.03700100270438144
Ni 8.568036038450067 1.369055960708629 10.520072299115155 0.48568601515259574 -0.4833221429061096 -0.11256161084951583
Ni 3.8822247934038456 2.9968654172372244 4.033425977419337 0.3227184410467023 -0.3497530765669912 -1.0547050833068932
Ni 6.755494492657861 4.777990955111492 3.2486611803427428 -0.37866204629185757 0.4603817320598522 -0.9646961609469127
Ni 3.353276859378614 5.3883391445278965 4.883846690687659 1.509803455480619 -1.6427050634390676 -0.24683001724850392
Ni 2.260713445224161 8.989394393757518 2.5675039922970613 -0.6033391815924061 0.4140090583325838 0.49128279251408297
Ni 1.476403304489915 3.9037743860237133 10.162605271654337 0.034579280636766255 -2.20396814179703 0.8141652699424752
Ni 2.8726361617277933 2.34854224316082 8.506501842870112 1.0542343143180617 0.5234431792967115 0.16101250726205174
Ni 0.7451789500888912 3.302836092217367 7.803976738406934 0.2744683477910628 2.3755905633644443 -0.30480068022601703
Ni 0.1470207680152599 8.383974753625985 1.360721215547482 -0.3832262686237723 -0.12425036004135374 0.001332602768494479
Ni 3.857991983025862 6.163034421628895 9.523991060167281 1.4416489099915686 0.876530205332942 0.41184907456678743
Ni 5.153548273964438 3.8822341101321722 8.378528194246142 -0.5124905369399496 -0.6086248554713777 -0.7285657895041001
Ni 4.155223566835475 1.2977270886387173 2.1340571819856007 -0.4935443348547499 -1.0666982511130274 0.09445538816710829
Ni 8.935730038595201 6.578001501304165 13.148378192145683 -0.8499568257197878 0.6018641397087764 0.18887709488280374
Ni 0.28068321095556686 1.1522463758158759 0.0024857031175878363 -1.0739590464404987 0.23595322243500008 -1.3324073646542214
Ni 6.711910837545132 0.4296660819564489 1.4649400019566314 2.4573845540138 3.572524445567983 0.22168437122081178
Ni 2.3777129195520024 7.924687997300169 10.098147486725434 -0.9446988918893795 1.2147883938864563 -0.2577759747370464
Ni 1.227301939216504 5.894694012360661 9.265780729608768 -0.8052306864570067 1.5657144077156262 -0.5164281814314591
Ni 6.713028844944348 5.68182540355014 13.398039492791536 -0.5756887668649892 -1.9221083866379025 0.03586251822456404
Ni 5.352283405903216 6.530560720664146 4.162967631420703 0.8005204254655309 -0.009983850685589258 0.14961043607269717
Ni 1.51323233156572 1.2307025450557827 10.032994673863353 1.3559234454982907 -0.3261230958528771 0.47603846476050277
P 5.885470451317137 3.63874141531149 12.295012461053265 0.8222333916625905 0.4393963880574368 -0.5706746014798495
P 5.848548256958066 2.3536850771972087 2.5301960853852594 1.5159859301422471 0.6060966897328852 3.7410653999965957
P 5.541226656370537 6.294325757210034 1.9859705802497563 -0.7623495708227644 -0.872978997646574 -0.4370844520948085
P 8.100317642988507 8.725423530074547 13.128729212104483 -0.49084544786634815 0.8438743669711338 0.13969523384151425
P 8.355307180564449 5.438854445515758 1.4894029355242866 -0.5995956553895738 0.01747116020156991 -0.17575521278886505
P 0.21767883564564278 8.72274962904476 9.352996486821525 0.21866178234440406 1.1022545509510824 -1.137416443564196
P 3.397643119670793 7.881178876014056 7.897696503664624 0.784036825988211 -0.6440106911698392 0.29833769820949263
P 2.3404180560598578 7.184147846245187 3.8827073999311734 -1.328019777109487 -0.40109260738123176 0.09921501433928075
