# total energy = -381169.4134992546 ev
CRYSTAL
PRIMVEC
9.22789696564617 0.00000000000000 0.00000000000000
0.00000000000000 9.22789696564617 0.00000000000000
0.00000000000000 0.00000000000000 13.50595997933854
PRIMCOORD
 96 1
Ni 0.8612571540743132 4.832908006684016 0.382870980627585 0.12393797100725751 0.040489732583930266 -1.368172952289605
Ni 7.832297487392589 1.871103750197223 8.004577709245893 0.12666591146138187 -1.652286793590232 -1.0372778889693814
Ni 3.5619220779488527 5.559660257803694 12.2073615419999 -0.3846989965145568 0.07179111380037313 -0.7263937215534457
Ni 0.9855947601844718 8.679879820996916 4.691227491071669 0.39724623705194806 -1.161653718845006 0.33766606349547007
Ni 6.698604209276534 8.639738469323765 12.978106868973962 0.2702142005003992 -0.2801543424322465 0.9008345864062615
Ni 1.8201565312116 7.4237323505354125 8.910341010244252 2.781880398675899 -2.0816116563442795 -2.724499803873901
Ni 4.160711082252077 0.09294153236359347 10.752283683332896 -0.048564796282580876 1.5910919672484662 -0.3058080384446088
Ni 0.43928572854799935 5.24588407827677 8.970875091357057 0.11845766461897665 2.007093887641363 -0.23857857587298908
Ni 3.702490631980368 7.123456584226378 10.11042623844831 -2.9839097146699447 -1.8730401683563422 -1.4384466010041872
Ni 4.018001656131327 4.630586366354404 6.149034038862754 0.8886696689089534 -0.8242298532673289 1.865763689299587
Ni 8.781266724636662 8.881121797384974 6.700158187120617 -1.374691470134413 1.264502987502764 -0.3005879276962501
Ni 0.1975212883433195 6.11804952931955 5.426869898099832 -0.4821952283905179 0.36017684300347647 -0.7406774851659695
Ni 1.0394395388081108 0.5386563367071522 8.319468618722729 0.05818894963590624 -0.11917037441528511 -1.6923386673057952
Ni 2.034871237126738 2.8519000039747895 1.3873183342530326 0.497069317288873 -0.21675350957809764 -0.28319647169268003
Ni 8.659070913405433 4.705046266733863 10.940300237831769 -0.2783669115145206 -0.00782849490548329 0.8408880306493002
Ni 7.166670825579335 6.589548923282676 11.6254171407643 0.6908885866683004 -0.9388398620054412 0.09395119483718012
Ni 1.824253717451342 1.4770448673239998 3.7038203719288973 0.3723664430911329 0.39670707671902644 0.5207237234830193
Ni 4.327689877315445 2.523552975185359 2.540957711597021 1.8422836038997756 -0.16248394960125565 -0.45580079755738917
Ni 1.9073417014662941 7.964957733749647 2.3094519244164884 -0.7546750849966423 -0.3397342588784084 0.5947077311696533
Ni 3.1936182554249997 0.6115548769249797 1.9913054129005068 0.3969107080894003 -1.0973342308313294 0.02498083831505375
Ni 1.1547421110278828 6.113500176129927 11.452500194022388 0.5355168226317938 2.43451407717353 0.6790946793571659
Ni 2.8053637197247445 2.7737120332330423 5.774433099469531 -0.1527816347118272 -1.3660389366657375 -0.6853419458184584
Ni 4.746211914966949 5.016653890480743 4.051895721578564 0.30613842520083406 1.8324614756030309 0.5503202061932135
Ni 7.377048419934386 3.112311255518765 9.890238466860218 -0.4931442712028539 -0.45397891385730205 0.22590483706006256
P 6.513953991580045 6.44262234826201 4.461950241001268 -0.002886577519175674 1.4414887302646207 -0.6009380283500813
Ni 3.5033157045060537 5.0605140846192445 1.079017988768143 -0.6183989041390059 -0.7887568571716995 0.3311370041277007
P 5.1915871327032495 3.6009376261957673 9.491880306804347 -0.42857410063095225 -0.09289447143789163 -0.5742378933510756
Ni 5.480383395223456 7.731778006064859 8.933449509752275 2.3597345701687944 -0.9767875448938081 -0.6155868886115075
P 4.110640513475408 1.1492330565568782 4.4449865980631635 -0.7352097771831789 -0.9922151923027879 -0.07295762330464854
P 7.5664879161408445 3.388243829709691 12.26027799419174 1.293169502199521 -1.3686216097912494 1.3035541878679548
P 5.646642414325788 0.711686786581382 1.2442379466754407 0.8556176235499909 -0.07396960950893067 0.42851702214077164
Ni 2.7293719884538503 0.34758719390173304 6.323625848898614 -0.905092590351667 -0.23319185763977904 -1.150706990025515
Ni 1.735499804717467 4.514573246070533 7.01861475597366 0.314917971165677 -0.48131231156493226 0.41368021423825524
Ni 6.026656438061877 1.4638397468080737 11.796659224212263 -0.3251162518549175 0.4145443620107635 0.071101029711884
Ni 7.897455667660201 8.134511112058258 4.563596448544926 0.004128420346076761 -1.2107839007127537 -0.20119653568010512
Ni 9.345737180233577 3.284854472434755 2.7727467952134996 0.1549480462355267 -0.812065449990653 -1.0872645053001533
Ni 3.9683002032321117 1.8123774140942515 13.667221296859323 -0.7473438414425516 0.9248975408927361 -0.7782011931430405
Ni 7.774632359437298 -0.16118275299764198 2.0147516534364005 -0.47931816395303906 0.503713819188584 -0.4145801003447054
Ni 0.43843768481954815 8.503710040584936 0.35204519091168673 -1.8298793166981515 2.5630743774441473 0.782609092402749
Ni 5.672295967808858 4.714412582124265 2.1627495872913767 0.6144504610142192 0.010892478542787694 -1.0725310557447207
Ni 5.4438778349432315 5.902550452164822 -0.05902255159462858 0.73686736739126 0.06474474847655302 -0.03965309561524783
Ni 6.836745826413789 0.9895996674548504 5.298603976263868 -0.09033725223367668 0.20016629464337785 1.0567611945049737
Ni 1.9995929871390483 4.303115987773928 10.840802284694893 -0.2461838990240728 -3.00291865167228 -0.7982524553669608
Ni 5.757921623481309 1.2755721935125324 9.184174237882157 -1.3722306672987465 0.7255699401005697 -0.3078155557929408
Ni 0.5101458263325858 3.0684141497925177 8.717637606891405 0.05661980537657345 -0.7293263218192085 0.12821191579226304
Ni 5.836035771047565 4.188523963618255 11.557252511674822 -1.1941316368680532 1.4024966652721393 -1.1135784606043337
Ni 1.6188315037511143 8.971103020411384 10.451397953036368 -0.05407724146037783 0.3358938020863957 0.8613293292227876
Ni 5.141424284957217 7.428457033766828 11.542463884044617 1.6922137116921565 -0.09599882139482821 2.1828547568571826
Ni 5.793532077758709 8.653912519018009 3.6965137231346907 -0.6932159492498964 0.4488277086736657 -1.9501686352092287
Ni 8.971130704102194 6.827481017889687 2.6417521842534537 -1.7706349292145376 2.597032479557147 -0.23920078283802032
Ni 2.133821975975287 1.1207096271266008 12.260251233290626 0.6446501245260511 -0.4764817229455084 0.08946744803421365
Ni 8.254049288971817 1.027350993821484 12.136522668378266 2.431001693144897 -1.2630274313985022 -3.7617111012714055
Ni 4.006079213289555 2.540098594392246 11.030276846909711 -0.10683139323395796 0.695908408480395 0.4970850010181569
Ni 5.314631910452624 2.8934993633638837 4.827691476545894 0.16498820408034812 -0.4550034984670744 -0.16806504323345894
Ni 2.892650396845739 3.82384670459039 3.591667280933504 -1.6440700621073945 0.6955181150205119 0.08154947873871762
Ni 9.033022208854335 7.8889752303756895 11.555483523832123 -0.7590338761859703 1.1196385507554845 0.6583818722898468
P 1.092638364646205 7.481803505955903 6.835285050328763 1.2789155633836684 0.02335898644091461 -0.149750046974355
Ni 3.3389576321726118 8.087107405496196 4.206363333975619 0.5474724523317733 1.0070319456006462 0.19477289154194843
P 6.5583955432255365 -0.17805503975607587 7.352955303823253 0.019841974426591635 0.5903224576177639 0.30752013603970907
Ni 2.9944894674353675 4.992965879045117 8.950170459000953 1.2260343991139206 0.1094037819468245 -0.3436166246519501
P 3.1967834240741704 6.167169624711774 3.1152983257570632 -0.7797176297875669 0.06456194304178557 -0.01896599957954153
P 7.956735677579354 3.0419116297913025 4.79187431737712 0.08725887041866907 0.04976061636289495 0.9380068245811846
P 2.777864586854403 8.041623101496894 12.015077085167963 -0.5562350290157517 -0.7018134611109204 0.090431868830012
Ni 5.697395847475748 5.270614842066205 7.912291357564781 0.3962939004410079 2.4505708735260763 1.6768323441400796
Ni 7.860110368758766 4.953009085310693 3.477960212094028 -0.8187886276470996 0.19772580352268526 0.5606426711651441
Ni 5.746211422269073 3.1868080674859693 7.398200605291903 1.0305883927643478 -0.5218403535859658 0.1855616573563256
Ni 0.8019660706788367 3.934378454094066 4.89963769779989 0.15629941805709857 -0.1346396736954778 -0.3199416496325135
Ni 8.606444217177392 1.0247764105762407 3.914715651302078 1.5243001064348976 1.031656943238178 -0.5539449474299943
Ni 0.6542025254060441 2.736634343342763 12.844627185368955 -1.3759875632380174 0.4244971023481012 -0.2805654618277361
Ni 1.246587369235437 5.396446444690359 2.4675931625839076 2.0486364869698397 -1.11128349392257 1.3723502235957463
Ni 4.294460220447625 7.369361581786402 1.6867589758893269 0.26320125951767576 0.04746564968113116 0.5460267210241821
Ni 7.0156470643189275 2.6218485333514265 2.89022161437209 -1.1150200781468667 -0.14481687133879573 -0.7839164983602628
Ni 3.8734558785202418 6.703384259889567 7.196947555427521 -0.21421145988253432 0.729665193215866 2.110975711328693
Ni 5.434972914399648 3.4504583108546054 13.713006430298748 1.1616979418193798 0.5640097878651641 0.3036899636603415
Ni 8.685093582765957 4.27380818710406 6.948371081704423 -1.8523404739151452 -0.18205055887927354 -0.29560204444588445
Ni 7.664202116799922 1.9021463954911257 0.42890434449459847 -1.0853590607473242 0.9372046403948633 3.089848935106937
Ni 0.45902789125364 2.04294564694605 6.33904935583804 0.007623063762896549 -0.3650971631232293 -0.5877716661714523
Ni 3.454112558041402 2.376857097588103 8.02513377246132 0.5344503290404925 1.2978869622798488 -0.49844460036984484
Ni 4.9232029782062625 1.3750304666925808 6.647066404886985 -0.3315067287622936 -3.1801525058892004 -0.6297852915990766
Ni 1.9127953885556808 6.970476508815464 0.2115015522018993 2.0618072200238426 -1.4924618788783781 -0.6182834616070642
Ni 2.516069150769974 6.165222538458203 5.580473779343645 -0.7461984149841988 1.0855979162310079 -2.5420093292437316
Ni 2.234756712665152 1.926812564002006 9.668578845710778 -0.2246545095927292 -0.4846853418022234 2.7897875693381184
Ni 7.694478846648107 4.514314864956314 0.8724865818561652 0.12100125697643677 0.14349326743136576 -0.49392794344641394
Ni 5.249123070101431 7.932346345976563 5.803902388335785 0.5771147006782383 0.10845375932872936 1.0080878976689867
Ni 6.410804559625454 4.7474023136717385 5.692289129311168 1.529897398017017 -0.45096686650385565 0.48134830700919035
Ni 4.2552047468803655 8.83179868826015 13.362094425130847 0.24257458440625962 -0.6788203426498567 -0.38106757040955663
Ni 9.016707287070858 7.806468603867728 9.10300381085058 -2.0101157051868217 -0.4270229540937484 -0.4556820125913378
Ni 7.592344483356516 6.721720091102107 6.71720303555176 -1.0905529462434378 0.3277513754849194 0.6710628101916248
P 9.22249861664854 1.2994632186807589 10.051338168785433 -0.8397171502696507 0.04470402777559398 0.5043139146664283
Ni 7.282333285779625 8.924778977790876 9.87131666419222 -0.12379887432623193 0.7860194036358785 1.6499717723038103
P 0.5044005377000103 1.284107998178662 1.8247898582633444 -0.39223258588744064 -0.9012109959090736 -0.38233692404028347
Ni 3.8432252881567384 -0.22898011178905178 8.235880482693824 -1.141303180213112 0.9180866886184897 0.4481826188904991
P 7.584454631475931 6.1816851065926635 8.931410144529341 -0.5768007689822453 -0.464042211630575 0.41373934961096487
P 8.681559298239332 6.5189093722348685 0.0938154142034664 -0.6547471037507369 0.23440233300811242 -0.16559267043356643
P 2.727083470013634 3.5659177573222953 12.71582050877252 0.3791682965043147 -0.5461475628727626 1.0984362056462567
Ni 6.749560656159094 6.92598881768529 1.492652009412459 0.9609621478257773 0.09867765377857199 0.48230681426771776
