# total energy = -340891.34069278697 ev
CRYSTAL
PRIMVEC
9.07853203723491 0.00000000000000 0.00000000000000

0.00000000000000 9.07853203723491 0.00000000000000

0.00000000000000 0.00000000000000 13.28734930857455

PRIMCOORD
 96 1
Ni 6.352575602269182 1.832156681155676 11.553974293851336 0.23624838507791568 0.23289078145959247 0.2387233289809695
Ni 4.841490280525988 0.38022888902294344 6.14975756806066 -0.42758756834796685 0.06801390614612803 -0.2875938294294273
Ni 2.9071093301008277 1.4343263344720156 4.9155883500953115 -0.4107180462861379 1.3385301897225077 0.18885832582972634
Ni 3.586165359658447 4.243578169150485 4.880974631494622 -0.49115552290759934 0.5001075898945645 -0.2920585500690002
Ni 5.12868055886265 4.572602322513238 2.9292890914020955 0.5638457514834742 0.06969412206202837 -0.6473891207237689
Ni 7.310769252362219 6.061899167680345 2.5857710618502896 -0.19803690700520085 -0.32132618868486595 -0.2175346107184963
Ni 4.917377728734123 4.641317730515078 11.339716401587179 -0.7905262903672966 0.5860672818858359 0.1529793525449301
Ni 5.598875883374646 8.046702284315336 12.24019964005568 -0.16675763727594503 -0.08565707314918797 1.0536704713947918
Ni 1.5686250569678826 6.411676844981823 0.5281708292682047 1.1541718086456638 0.5483206592646815 -1.514445582238321
Ni 2.8601006918879164 1.6523654352753172 0.4607173372013966 -0.5481496809044559 -0.5720349721624858 -0.672586703035319
Ni 0.6229479788146187 9.067129270628826 4.961987818817283 0.0993404841735515 -0.36410008931728266 -0.2382836703403896
Ni 8.770097863705296 2.254580770774597 1.4261974170027532 -1.0813885061353503 0.6409083980954317 -0.4728608383634694
Ni 6.941627066503741 0.6323270101274343 4.766796659263583 -0.45885603944394526 -0.44864927411427247 0.5275137498216593
Ni 0.5679611267620961 7.4314774125937495 2.3541059925082166 0.24956644234306052 0.20801098749877725 1.0978713342817221
Ni 8.05974813466527 3.7687527933660707 3.851218545793804 -1.3765596336914034 0.32450510063347987 -0.0268878255297795
Ni 7.768363574587709 3.9694065055680348 12.567985481666359 0.08439234750415144 -0.7418452802218256 0.9921871672783299
Ni 8.033974182582137 8.786702498562656 6.96934745582767 -1.644299661619697 1.5440724039658182 -0.24783326170203773
Ni 6.7118585024769795 0.5650505494328069 0.5550296659141875 0.6151701127890632 0.7114993209401166 -1.1789981236607243
Ni 1.8321385240918626 6.582916113806067 9.130215988848509 0.5860078894028101 -0.19950449268966286 0.5469996264604128
Ni -0.04907218851530522 4.871994147732511 1.3635609939656421 0.06299768387845923 -0.7226728210584328 0.054817204950195916
Ni 6.47086887301353 2.239256208916081 7.408746584405746 -1.272914351494911 -1.0345628040310635 -2.094382582856703
Ni 3.483114943985454 4.318094759040709 0.19863101529315041 -0.7207635198508618 0.25139192558757345 -0.013455097063641343
Ni 5.99468171744311 5.739647599119992 4.942641467324098 -0.4120375364285097 -1.1042384141503305 -1.6673382886067156
Ni 5.264785909207951 2.891457941093671 9.541127592156538 -0.24835776674694 -0.6898650304997925 -1.1964703123035587
P -0.08754609888272459 5.889189176687214 12.47493416103541 1.3899581664854965 -0.5395555114775418 -0.13373335983112453
P 3.5828698525763136 6.39772314144122 12.789113099024322 0.8602157844436346 -1.173555355378598 -0.6647160420379906
P 2.2437682392737126 8.699948047662197 1.3118651097292995 0.2901998995937067 -0.3787911156705541 1.5261315032166813
P 6.2796568339945384 7.8076463821480155 5.731219090097809 0.1922069305869851 0.4640954334660137 0.4294729582961378
P 4.7517489926282215 0.9875627008112225 12.737651440911172 -0.2562055449261329 0.14705270264784998 -0.3162012087534748
P 4.054526820725289 5.849870054999281 8.40432835245016 0.4731516301310109 2.216446476769699 -0.02576451055861369
P 4.747999558950753 1.1057561077045974 3.6758521763647725 0.09779987915930899 -0.11877005365307289 0.7129532797778237
P 9.460193388061468 5.571631209122628 3.5691412966269964 -0.17387187972322315 0.3512666849980402 -0.3874019972680167
Ni 1.4299867962206112 1.2097143765682608 2.560352988217901 0.5316524545803811 -0.5750274791319064 1.0478093846283245
Ni 2.0445580136449144 6.510814413403026 4.718709491460155 -0.7183960480599498 -0.00990337515664101 0.6125627570732031
Ni 6.2186581781133965 5.614236759360788 9.143064835056068 -0.4662921840070163 0.19291295551507423 0.2716007964352806
Ni 8.58305287083148 2.59500756021217 10.520099278224448 0.05757728419383632 -0.4719874346195807 -0.10326501603893828
Ni 2.396006140817226 5.4434060244723455 7.03628891869494 -0.34572698612673364 -0.937799850776701 -0.2873459750846793
Ni 0.6275889243253255 9.057996267530681 9.014456536359322 -0.07843998657545845 0.7228476560734002 0.040320553995917656
Ni 1.4586931141096084 1.1353975143799848 11.267619240450092 -0.671215019498773 0.6883974448153306 0.7352969375803465
Ni 3.81430886647391 7.071059695897616 1.8155302578217392 -0.18996235752718252 0.5965620107695726 -1.916190992712203
Ni 5.466837715323548 7.859866097675375 7.943801664418803 1.0495245675472182 -0.6956474415095245 1.0383153290949603
Ni 5.536724253941353 2.792302215608654 4.989957867768646 -0.7904797534000774 -0.42584950261093757 -0.3386443682483394
Ni 0.6273719474127554 7.394391609754866 6.8797641343850815 1.8385642460666594 -1.060785228062702 -0.3462203808233844
Ni 4.849869765475875 4.450169241219434 6.999137750426328 1.586196843939694 0.39402078813611496 -0.0010893764094368336
Ni 8.268209384306997 7.203515476416421 8.788704314848085 -1.2289394885758578 0.05168997217512388 1.8070036976515589
Ni 4.494626811966561 0.22367868482374575 10.345729731598771 1.5298426335196813 -0.37883045354892175 1.2631140775750378
Ni 8.168345533333257 7.067419204603026 4.730893789132142 0.7137338666975901 0.9457826118718615 -1.0331299282392787
Ni 7.305385682941543 6.244468444324155 6.752378713936169 0.2929016147955859 -1.3473521588895119 2.2638928431771204
Ni 2.5403729551976277 5.236560753510009 2.5606316991474367 -0.6639046018802889 -0.6471212117743629 -0.222810514405455
Ni 2.1350255840952164 5.3161885568637075 11.444194870329095 0.23833174996950565 -0.21720756639638078 0.20950299866327143
Ni 1.317721670662314 3.523523489502192 3.6442416361188212 0.32810618772117683 -0.9706906879674508 0.6473970911435688
Ni 3.7028698873191224 2.746283137373573 2.5394115386687077 -1.294488735231577 -0.16781410356491744 1.3617925026845579
Ni 1.2345441613330952 3.2771502906180685 8.24417578679038 -1.3840230319479843 1.0845018549533516 -0.13968983452487554
Ni 3.694163575220594 2.461562219715533 7.183007980692368 1.0178861147063307 0.42267856108212365 -0.0885225676224411
Ni 4.218993504747131 6.846883507525382 6.007901875605652 -0.9055309634406663 0.8936979753614803 0.45890180508021616
Ni 0.6926175405198532 7.645077111294674 11.033030883834058 -0.518399703335533 -1.9959787515648075 1.1534187325297232
P 9.30295321543736 5.4712226462344855 8.040108546591497 0.17805120791189336 -0.29856086996389225 0.06642753549561463
P 8.552231255008222 1.688516149327811 7.936387227410599 0.6317005063439185 -0.6044933498015073 1.2839811508320338
P 1.6178579354979366 3.2521752493427267 10.4401355691902 0.7070587686702597 -0.02942678990154932 0.9240187378322088
P 4.024104660305924 6.368989587956501 3.78811730192307 0.6272195877544295 -1.2971616540780497 1.160252724732421
P 6.747591604061764 3.8751713443764513 10.650102947275254 1.2245565290168137 0.9531843036525711 -0.8239547452290712
P 6.41677897991339 7.678876485583332 10.224362469950814 0.3875722042972938 0.30979736210966 -0.9803112417763504
P 2.4109584828675668 8.450824053610342 6.081526953662638 0.5159679539655888 0.2855379753416631 -1.3050760238291201
P 6.870778203503827 4.000536791476122 1.5887149402242273 0.9677652867905397 -0.2933536147313399 0.41054449682275107
Ni 5.193755475569902 2.8024883284079753 0.8516298425721489 0.9855562922253737 -0.17014969367662955 -1.3956009665935707
Ni 1.7294784852908578 1.284975406074834 7.225314847230798 -1.40563263979796 -1.7550550724984095 -1.656179957997051
Ni 7.010977971739051 0.7042671126625354 9.28024326787274 -0.8404540284356752 -0.15413326364371518 -1.2433782897090069
Ni 2.952565539357693 1.5026332085380538 9.281478856065242 -1.0906275082351151 1.4681973499040586 0.4404356279552286
Ni 6.602371407682132 1.9873087914412415 2.7563140072772896 -0.18165718009559684 0.403144604814254 -0.2945476350394411
Ni 4.257459244435835 6.862789095425927 10.512378894690988 -0.6996740461704143 -0.3084490756118817 -0.4399941695424358
Ni 7.915090807263853 7.417142410713065 0.27355886267874757 -1.3442827759355687 -0.7916994847397913 0.6107231327613031
Ni 7.730769373962048 3.7686983221746306 8.412592540044832 1.076464586471172 1.4613453599792317 0.30722703027932247
Ni 2.9004366091494007 8.47729705265029 12.499010427651987 1.1383034741548397 -0.031863167257183835 0.05781022614024882
Ni 0.015203817384156595 5.077822623121296 10.329013430798959 -0.6305139422349851 -0.3419677761946175 -0.43386054584087214
Ni 8.89972114226921 2.362597143400557 5.877539604544532 -0.05912380274534979 0.788739887890835 0.13601264278360448
Ni 3.8417260328321547 2.5767052398882555 11.5813996308883 -1.114826731189138 -0.20408414164054528 -0.25776054811807864
Ni 1.095134225373754 3.1762968796664977 12.750965107952354 -0.689062074982523 0.18010397667586403 -1.7079228948972973
Ni 3.078475698371766 8.426856729376643 8.100326448728662 0.47145110250013644 -0.45546192616073167 0.28933446626961784
Ni 5.871622217447743 7.846584205495867 3.3996351195437424 -1.1559440700547383 0.5070655092696363 0.7974284168037685
Ni 3.130604628580058 8.485849029706404 3.8316061933157526 0.5867799916821442 -0.18822686289331456 -0.8719297304464532
Ni 3.2385029802912313 4.142043868305911 9.257309080570026 0.0520463270732781 -0.42545355272409957 0.5967736125597464
Ni 7.04534929353783 6.088154281954532 11.60738965203081 -0.11160310359098843 0.1720739072825359 -1.3902718410711734
Ni 0.5258085952660804 8.831459660862706 0.05394191303006105 0.21431764644309542 1.3956870985494738 -0.18856033497333333
Ni 4.59350110296247 0.3826891711696601 1.5795202031091178 -0.5452001113578289 -0.8814024458235789 0.9445181433371409
Ni 5.838585439839249 5.407146368036972 0.22199280144867087 -0.8811545914788308 0.784836696181687 1.3440446917828335
Ni 8.056670512348896 9.103407084128014 11.144843898503403 -0.18994487402568577 -0.39601776396148575 1.1379296357551887
Ni 9.322653629674907 5.089316044515183 5.823592244395328 -0.329777918996645 -1.3329688935846462 -0.2358079551063874
Ni 7.787746240208521 -0.21771227365466012 2.420556306799334 0.908279472720081 0.17201040103445214 0.7651240482441081
P 8.650742404727863 1.5189291733105867 3.856732846073936 0.2905413420935254 0.6972206995339154 -2.0427592022534564
P 1.790132156959545 3.3030604206798007 1.387863316026697 0.5724980278418333 0.5080695250541185 2.247518001363523
P 4.898094926964284 0.9018087041268812 8.32889573869055 0.3700318814206853 0.8598730563922352 -0.5462858882228399
P 8.373992438083908 1.5793921958092334 12.59542352864799 0.44299490404197256 0.23726139972346236 0.32417805631136426
P 5.899938158464751 7.446720267665105 1.2715155746699551 1.5066993626339986 0.45587895909349224 -0.5354268340211489
P 1.983858949316694 3.267935580732764 6.013242775926366 -0.31151922989677316 0.20804106940576428 -0.4292539003067962
P 6.972857216262802 3.9967510436710265 5.9529050371680325 0.8821076994207194 0.8040621200702024 0.9035833527959922
P 2.430894938934688 8.557996122768978 10.349502769459198 0.6374291812975796 -0.4910447083613479 -1.6292466239413168
