# total energy = -340862.0119741357 ev
CRYSTAL
PRIMVEC
9.36448385860730 0.00000000000000 0.00000000000000

0.00000000000000 9.36448385860730 0.00000000000000

0.00000000000000 0.00000000000000 13.70586870360662

PRIMCOORD
 96 1
Ni 0.24178722912304815 0.4244265048855873 4.394252242072353 0.02841737480042848 1.2300640890986043 -0.3403299834808784
Ni 6.046890746282258 0.9013400057165716 3.5770399505834503 -1.5563275671840873 0.6996285376444596 0.2804993844764911
Ni 9.170536097409746 0.9408216063883745 1.0224415118212076 -0.9908291105885388 -2.7369953652377506 -0.5695543718324773
Ni 1.4748125731842805 4.2865831517082436 13.201712314575936 -1.15455593145796 0.37540780102061794 0.6172650476448789
Ni 1.8262148324308365 0.47997662352251125 8.552407115453855 0.022573257314825637 0.657140543683578 0.9525417849725661
Ni 4.577378470998938 9.07152540888173 2.3588760425095403 -1.455384000189474 0.8468290787240835 -0.5647412667145499
Ni 4.887642552367542 2.4302708679458025 5.503824658115644 -1.3065680349936142 -0.5881388197028838 -0.43741586729229825
Ni 7.932879079599723 3.0988201042450734 7.032220808312816 -0.2596780768557657 1.2178037836740123 0.08478778317035719
Ni 1.4845235430134258 4.967296852624736 6.038517961205846 -0.8432902123328895 -0.2654466039084267 -0.7101052688060673
Ni 8.143476958565634 3.924936147048876 11.728482339174803 0.042896028032577735 -1.849642101147376 1.2266149542077391
Ni 3.951484458973299 5.771247161980528 10.475861812502687 -0.8797528260352978 -1.636209171302079 -0.018029346697885078
Ni 6.7115349927852375 8.286603730859422 4.999503185736016 -0.7920033891334554 1.7285297725143713 0.6777443359768586
Ni 7.117569651244169 1.335881089688427 5.605604424539974 0.8046807274908078 -0.3853975652434782 1.2010633309908798
Ni 1.789749532030941 6.7274733444238155 12.825390227159332 1.3561602440994451 -1.3502143109286553 0.785484357068015
Ni 8.026720573001716 2.8455201785859106 1.0170737896359945 -2.423211250566201 1.7434097749499975 0.14841333044080246
Ni 7.150364073945873 5.7027178686249975 2.457626398384471 0.38366849836751343 0.6540876157898671 0.002379813086086224
Ni 3.170355396940195 8.643914979461996 0.09553927433740544 0.3744672914842196 0.6005253662926948 -0.2612731892570274
Ni 2.6266721892829916 3.6190171862209883 8.168081203627445 -1.7715247880186586 0.1395959892594886 0.9029881424141546
Ni 5.269198449849246 5.954622486179491 4.2024797851387765 1.8123418220350207 1.2912620007641633 -0.10266569189204253
Ni 4.933734542241268 3.561744002542056 10.835147094316433 0.6121580654356167 -1.1475774432575978 -0.2906202749605769
Ni 5.715856239570312 6.994810631484993 9.522440292994627 -0.0639623617845737 0.5599343322442099 0.7340257841774068
Ni 7.222489329128204 7.714827071430341 11.820982838478884 0.3336967944350769 0.2015120100379949 -0.3186856657382254
Ni 8.985418979200928 2.9434445869787482 4.7978905290951435 1.4930306068976544 -0.20525630757177551 1.1796912930730068
Ni 3.909053982313842 8.784288593482138 8.639919154171642 2.138151500412537 0.42360750065429625 0.3770080556282024
P 2.3594847339645977 2.156237974878995 10.047087377731206 2.1731994931556056 -0.7947971498285086 -1.5759319716785762
P 7.958912344908329 1.673227258565121 3.526711468182526 2.4591125924485002 -2.5698368929789615 -2.1400080940053017
P 5.042193995048559 5.159296866517664 12.96998722342918 0.5394742646176451 0.5503839695516134 -1.3857207313653812
P 5.340724378060443 9.09880415055222 13.001606403398428 1.1953724512536898 0.4944815019570387 0.36975214539673734
P 5.023090447843684 2.929051375187623 2.9559040328395754 -1.06288067713915 -1.2759721644846282 -1.8754174103392667
P 2.082033804265545 4.618900592717771 2.197832203124043 -1.9663622142499553 -0.21592587147047973 1.1185041800407254
P 6.383965345125157 3.9543687200218787 5.901184995115812 -1.211994633191403 1.672386135443268 1.6681291599391272
P 1.8623898338290896 7.364660924061748 6.6201947530393355 -0.08194208619144597 0.3442468020367813 1.5867059223656284
Ni 0.1536178036337983 5.90664823503705 1.2682657699638742 0.6844472019183309 0.7886822951800223 -1.0854768172721112
Ni 0.5131868293104389 8.06644471380715 9.834111856297003 -0.28240585747058455 -0.33451414813004965 0.10609194396477213
Ni 7.874173129880425 0.7624956119212108 12.2086949476922 -0.3169985078437895 0.4214922540835063 0.2891755720942503
Ni 3.4759559653146685 5.4305110499233615 0.9023860185708779 -0.16698029480971244 1.8210398640296508 -0.46936645205696587
Ni 6.8116975128359005 3.2934515381206344 3.962778026585594 -0.4079361126656264 2.85340668885066 -1.3894406034191298
Ni 4.295385766596764 2.066039265723423 8.70995612943893 -0.6330400510909484 -1.3871551498190626 0.6351175024452674
Ni 0.755986359145667 4.989434492620976 9.52631906223593 0.9835649728269577 -1.2567775938340484 0.6794137532594815
Ni 4.2483947862663385 4.475371147615253 6.740285831328577 0.9630388278491478 0.7279782924317463 -1.46256946219432
Ni 4.744759256655779 2.0332167495699474 0.7634685818009103 -0.8914415752271356 -1.459780843705589 1.7528063856735487
Ni 2.017109837220738 8.09547461397142 4.665971171161551 -0.2257775674535789 2.0570887315022506 -0.7191738067662389
Ni 2.527867519401302 7.353151973319203 2.533310157457907 0.018443808527484364 -0.36277622829953654 -1.283037813082158
Ni 0.8428943886503596 0.8301792923784083 10.938831596770896 -0.13732981893313123 -1.402965634488758 -0.13930545460226332
Ni 0.8364122928781952 3.0007645930773 11.13892439767091 -0.10990617550453975 2.6853835545987303 0.09511204791450072
Ni 8.88505980498786 8.044812755942804 2.6777563855365796 0.5728212155092071 -0.32582304811395496 0.7727275716229789
Ni 3.051885310818192 0.11702982849449864 6.5512815158429225 -1.9131046404773955 1.311689929601212 0.8599381053022157
Ni 9.126007976351321 4.343921886774643 2.8298093839066847 -0.24565065222842208 -1.0041623373623352 1.0195884421094183
Ni 5.359565719715449 6.733944202815271 6.455984781639146 -1.5648152929401244 -0.29314175583085 -0.13034978807087227
Ni 7.086367190809538 5.96070003624614 7.664568822658847 1.1010695295040458 -1.3628435696568915 0.10429320019313651
Ni 3.6542276457750735 3.6525420386687606 12.776912166781782 -0.6477477896147684 -1.5334583758953977 0.21970410756598935
Ni 4.610725398252155 7.28355512879634 12.000241535544873 -0.602427468411414 0.7743836191691631 -0.7693463138555718
Ni 7.785004513956489 4.3893021758701485 9.380652641901966 0.12003812173221909 -0.31964417299675274 0.1897988353661247
Ni 8.739816659327257 2.1025420240590145 8.77910254228505 1.1522396246199575 -0.919934540460506 2.6101427916868594
Ni 3.7502510639313473 4.437697828789167 3.740400563291735 -1.9155286765378559 -1.0530132974267672 -0.1896204008067315
Ni 6.598131092466096 8.204570851685542 7.678535013983039 0.9784657039271794 1.9697532422093755 0.06742306663966452
P 7.023962269940276 2.370291348412846 10.550284175591566 -0.5124339726704012 -0.31564482202937255 -0.7657665669241135
P 4.676557720237586 7.038467855538489 2.393675401219364 0.7773136483317645 -1.8318269273428258 -0.27793162374931485
P 7.8287553828492245 6.802679514817129 4.352216010186093 0.7111172550103496 -2.390373892321206 -2.4676949348008725
P 7.867936383587068 5.349217964979474 13.404353191551657 0.3071043886585292 1.1050339134684324 0.7630136867693246
P 2.0038684569522602 5.0435050227979135 11.238866852349362 0.4995758857608105 -0.09668504882857543 1.0297106181450846
P 5.324870306777182 0.4489464695920812 6.683434049426221 -0.08598643146414868 -0.006710322140640056 0.701852541878972
P 9.269050468289793 2.3189927054773998 13.012790406548811 0.24754478392734142 0.07489906330173553 -0.14677322373421817
P 7.856165227294652 7.063442934163687 9.549523316951108 0.7460600896341216 -0.5725687331787687 0.33833197921424313
Ni 0.762417886704642 1.8442320995005335 6.864817547894559 0.41410830291460937 0.21674451071703318 -1.0817379190549692
Ni 9.141328272050918 7.794593745494623 5.639512284380237 0.2954997145400653 0.06383869172251587 1.4665328177174421
Ni 6.5398465445233755 5.437450132511015 11.358971977364488 -1.2221116670207468 0.6943441493170687 0.0028680655764144153
Ni 7.003566423953894 -0.09622943680260122 1.6891796569295847 -0.7067939450446472 0.5383105833268471 -0.3389251327135518
Ni 5.472426479967002 4.079506318697741 8.675856297678227 0.7320789448636811 0.8910517959878846 -0.24613350540211157
Ni 5.617126485560013 -0.007839945941138356 10.71069778520898 0.5694533274782387 -0.23616765243865132 -0.617039304787318
Ni 3.0875452656006273 6.198895049335958 5.336078657585768 2.8723716599889366 0.8932626875962745 -0.8673829916160353
Ni 8.196367563768153 7.828521270751126 0.38774582135544045 0.41132765484567874 -0.9003676740721719 -1.01101047063242
Ni 1.7010678692710506 0.3534053223578909 2.1034400780673224 1.9717265638856623 1.3015435851958295 1.8581835629594836
Ni 3.9584422705288005 1.0475767231215054 11.794886831127988 -1.6026809576376464 1.0634383494148332 0.6636413209165731
Ni 8.317909200617216 5.062786495197345 5.550355842285402 0.01810005203482044 0.7323211427814743 0.021870574820846204
Ni 5.512946601905972 4.413565553717125 1.2251975719491952 1.3000083794982256 -0.711380021753433 1.005961595354603
Ni 2.4593194970779235 7.0742776420637075 8.905443477145141 -1.128473118327979 0.09808141495546979 0.24578409248249286
Ni 1.8388287922764093 2.567919417144074 4.097095628852113 0.5513779580337665 0.12157512720203577 -0.5347850866720918
Ni 0.29995753036189576 6.4960020307914 7.965028289359066 -1.2630896520950052 1.3436286872913377 -1.5596471184756235
Ni 5.707484390942292 7.031247838433117 0.26197518356631866 0.8325499430972501 0.00640718907792445 2.4765230746154643
Ni 6.580628872012216 1.2818199239954124 8.204347040519758 -0.61977470144061 0.5825844655435579 0.47180257230228423
Ni 0.9409152512276141 2.859304698921978 1.4040020915448732 1.8234741845027564 0.1298787619717247 0.10119142133936121
Ni 9.259667255397986 5.958424466652619 11.404420627192637 -0.923875527386125 1.3623231783770473 0.7358273561625198
Ni 4.434766745320968 8.661567031658658 5.150679668410838 0.8180574059080298 -1.3721836161108947 -3.142691532829265
Ni 0.42860681050924254 8.306653090940618 12.232583746182218 -1.3780470168702073 1.1409324271372543 0.424734672280204
Ni 1.0321627825826694 6.1216474214472205 3.9256487842754897 -0.7996953584610743 -0.9187770298172951 -0.5581615566145033
Ni 6.006726474732398 2.7859433318616844 12.879281895693323 1.6093748247180544 0.4793713857884777 -1.5773242240404124
Ni 7.82673265432165 0.01776536245214235 9.832740895850534 0.689801781362025 -0.297446553853791 -0.17391764535949403
P 9.187298523633633 -0.1145819523967758 7.8846707163591825 -0.7168179049395526 0.5082561871436279 -0.11546952852493016
P 2.6973646784249574 1.6240730824482608 -0.15738138972283736 0.44664355653815335 0.4101570315763452 1.1673996201898476
P 2.640400522715516 3.177472404722404 6.018740171158445 0.6443253941967807 -1.3032348568553234 -0.3061268552366083
P 9.699638803597345 4.366789956516951 7.5696691425734475 -2.0657878019381455 -2.284791541003001 0.9183054894975152
P 4.148325911054915 6.033565085658464 8.347614280072406 1.4881120865501147 -0.8815865368099268 -1.7672708978383111
P 1.085914920306193 8.268427267563016 0.8087449251248587 -1.5253460312009086 -1.9477947356604133 -0.91211221620261
P 2.926616609367394 0.6840568216773466 4.119422431423616 -0.1440473401626229 -0.8360844386130698 -0.35224961773659985
P 2.6205759102484945 7.99181914141712 11.1936785351743 -0.5443192514147722 0.34130443157900575 -0.6601286797776245
