# total energy = -381163.6795956316 ev
CRYSTAL
PRIMVEC
9.26720262813604 0.00000000000000 0.00000000000000

0.00000000000000 9.26720262813604 0.00000000000000

0.00000000000000 0.00000000000000 13.56348778948205

PRIMCOORD
 96 1
Ni 8.497839469364068 3.509545239901621 6.003864724601797 -0.39361172562315433 -1.653583400914468 0.5165472235078266
Ni 4.8333095326472 5.294037778692811 1.4242615449665343 -0.9680265108717264 -0.17312805957866315 -0.9176681130238324
Ni -0.06434682147432813 1.5753503097953463 12.415718045071284 0.4470870718334751 -0.349738678389288 1.3309930008051982
Ni 6.203826862670518 2.9862263072804205 11.394238781533856 0.6740139224001489 -0.9016712233749439 -2.900992151939107
Ni 8.380312805586804 3.979132931663291 1.588189092321527 2.464829183217303 -1.3282383208781963 0.6388463733600804
Ni 1.2814780471363962 5.12464258178502 1.9513114533673226 0.9573330357136224 -0.1464235537042833 -1.5265909593516032
Ni 7.679730821023362 5.554140354961259 5.2998649957077255 -0.23709093558386907 0.38215309016425153 -0.9180092984133351
Ni 3.572840233877233 4.996264023725847 11.543938392688153 -2.045097877688962 0.09145285389535864 -1.3355793346243
Ni 0.456104838652575 8.326136739000944 6.893073204974668 0.2818391863338372 0.15362547076936123 0.5533386813045632
Ni 9.10163478964035 -0.04369856729027822 4.348454124549539 0.9274761002531898 0.9532259555237841 -0.9299101636159791
Ni 5.000860556231251 0.8871845233180721 7.603080861334975 -0.08197242520874914 -0.9192562834465589 -0.3451315186345798
Ni 7.737039202098791 4.425274600766352 10.413516675171357 1.1215349964472492 -0.9644655329933455 -1.392766839578885
Ni 1.40806803508762 6.248040686427128 12.241387136041762 -0.07562462861385039 -0.5758168078024212 0.515720356731157
Ni 0.9562548379738599 0.9012085810608677 8.336540100675471 -0.2682316228527316 2.3918489342048357 -0.513388880384503
Ni 1.4371948529595597 6.016351353427967 9.552683442536983 -0.1749651127874019 -0.27054201615346307 -0.08017676676090708
Ni 7.532808590497835 7.254366220220935 7.202103830978554 -0.05456729372291893 -0.26510824673240146 -0.11074538357638347
Ni 4.170787949292812 2.935627380910458 6.879455050707147 -1.229030505627767 0.31271839241119687 -0.143749606416546
Ni 6.6880103985773705 2.2134342798095163 8.71308971161457 0.15246950278804708 0.49953963320623634 -1.1845285665606502
Ni 3.77746933519136 2.521754111371538 11.438618488217578 -1.2623705145407937 -0.29619596927614145 0.9768690488640208
Ni 7.480930790164676 6.20348397617314 11.863548457216572 -0.010419652671427217 -0.07468206219492299 2.3394763341403904
Ni 3.331716888598837 5.14545671889618 5.65139037938001 2.213693339504594 -0.15881909915515874 -0.6720930512283522
Ni 6.124082584023354 3.312302099085088 1.436956685851921 -0.3184172425681871 -1.0562978817153097 1.262398539565252
Ni 8.966556044078343 6.910673476213098 0.6847637963911178 0.3993807668964477 2.9255346171651615 -0.9475404751032325
Ni 8.858871149496116 8.167463695538215 11.725323496361046 -3.28667099586843 0.22563641389002428 1.268051624085971
P 7.692324949400062 7.65318028548308 4.3812646554676435 -1.4958395371013593 -0.2396862071148711 -0.13431725735905256
Ni 3.5919492057041307 2.220180803325511 0.6682691024266681 3.665285476751804 1.1967572474163584 -1.6531522269143204
P 4.284459456775221 0.9407693423760198 5.070465588478897 0.43842811060689657 0.7105331003721054 0.8441769858132172
Ni 5.311107965940699 4.082666119466444 13.010829996481512 -1.331302818736133 0.9049619783110737 0.7295456369188661
P 7.272492868568855 0.6628227674399234 12.000906007905755 -0.22913337129968928 -0.7736063746835065 -0.05119477770626022
P 5.236785000833173 1.0787765239696965 1.512735528492913 0.9362258214213618 -0.395194496729242 0.7757882128261736
P 5.209706234742875 6.393452362923662 12.597143924435754 -0.5146839450468427 1.3224229997479997 2.362436799591306
Ni 7.83143492810693 6.7573476086689555 9.809222779393481 1.1646547104548588 0.06519366308851353 -2.479539749954601
Ni 9.419833459207936 2.1633357823816746 2.8941362612870893 -0.945004081834624 0.38357439599181037 0.2770811028235615
Ni 4.9916767584230755 8.971198912596906 3.421660650462629 -0.5313511212898785 0.28028238336967853 -1.0348088586035984
Ni 5.334433514965094 6.3519352951329235 5.232685190388836 -0.033441310377581114 1.4984821169305291 -0.3876269687946292
Ni 5.918934519361842 7.866427885244838 10.93386639606931 0.15084533692106278 0.5773257882477799 0.38674430907935975
Ni 4.7223069795227675 3.521008769557233 9.544002853831719 1.562639111224412 0.07890869868176088 -0.12235365723927315
Ni 0.367878289436467 6.950503913124837 5.246723148935581 -0.4572434435411868 -0.8499704525665426 0.044884776327832374
Ni 3.9546119134993862 8.261915024762146 12.306518889579008 -0.6011982239900033 1.0197326809967666 1.8658840169275348
Ni 2.777278689539846 4.378818113972832 -0.1567964349297753 -0.3261125543299158 -0.455298403999674 2.294055739913746
Ni 1.735061279952842 2.4884477851126285 4.647244491645218 0.7353661002553851 -1.8518895024206559 -0.750583688536088
Ni 0.5347704149133918 0.25570065501831374 1.639595192040724 0.48369238176133467 0.3136607017198082 0.8101417506053791
Ni 2.9068897855490565 2.371013793361684 8.930417660695136 -0.7093735328463654 0.3813573337358336 -1.0263735833520518
Ni 4.02414373484624 7.216630171103995 7.191171312033746 2.306024482239848 1.2694819287745944 0.8084319670031238
Ni 7.176734863773833 5.72059784863475 1.2092550301452494 -2.6815379556003944 0.8060269571060571 -0.8764949812196323
Ni 4.524062980821992 2.514757373384483 3.2537046501235665 0.7036505143196591 -2.043678885854248 0.5990539239534908
Ni 5.847484387070192 4.56338372158898 6.2959808523620095 -0.09775514196430261 0.3846259771847763 2.195839084931992
Ni 1.3178981534796108 8.735404208831829 13.240893862139046 0.7894623678791564 -1.3570254203132177 -0.21226462056880865
Ni 1.9141592380161911 5.96792095247386 4.083681804874896 -0.5516705495735209 1.4088274925861737 0.4010165027276577
Ni 6.954479543053906 7.9070460343802855 13.467010826195668 -1.2416785334090807 1.0711652857454455 -0.6060210992999433
Ni 7.7074860929057865 1.4066223514770497 1.153899248664353 -0.6286761176952979 0.6165145426320995 -0.6992145900354926
Ni 6.0832234876194775 2.535293494416687 5.658918128077871 0.38549166761918124 -2.5338352780733713 -0.8579344446086258
Ni 7.6592132343964225 3.3310311156040795 13.067674090705086 0.820840882190438 0.5488299948009323 -0.49114421005368963
Ni 5.390324014037848 4.500950577458131 3.9741972195415616 1.6137824668674468 -0.4043692212499745 -0.8145511925269843
Ni 0.32739544145944466 4.360700732827544 4.0882255143252975 -0.6938067887563599 -1.0727588554848104 -0.020816679635035116
Ni 0.9105295334679937 3.8219611750269253 12.07116530465921 -0.48595649520516304 1.1338495521485439 1.5605151229028738
P 1.3697666866101377 3.958337328957395 8.681229068966232 0.44335897224961063 0.40511921204212165 0.18811990500180506
Ni 5.766451967257198 6.734670763828791 2.9227283615671706 2.2307549229725714 0.7590480172533572 0.5187979672152162
P 7.452091255574324 3.614292431249548 3.462107356349387 -0.15337221710797458 -0.8332744799681006 1.376168826010888
Ni 3.61912991102338 7.1011793607162685 10.491886627668217 -0.22100585709654838 -1.063347846583556 -2.1124854631050005
P 2.142289965204718 0.9745668303744176 12.119152733327514 0.6816398143765229 1.581340287178341 -0.743211564441733
P 8.818771963708052 5.286818627842591 13.149475688336524 0.9208112866385045 -3.7210272503987984 -1.2678953010137648
P 1.289373703778742 7.525784050902884 1.750124191110669 2.62298699463938 0.18806051251877934 2.198058975401447
Ni 1.6339653664418683 3.8912520491053515 6.265612229337401 -0.9889005261072583 0.2560232537119978 2.5898071654533013
Ni 5.4896684262514 1.0219593046337556 10.076165477924503 -1.0176673138273054 -0.38755472079579706 1.8999853294866182
Ni 1.5232778982069182 2.340858315997607 0.5972980845110856 -3.6255184812665107 0.42770532487275376 -1.1467935139037218
Ni 5.460736219634729 6.229608220392356 8.626541452795092 1.3795673101694756 -0.03940549838081601 0.7429883926873333
Ni 2.519131493026721 1.80635386979975 2.519213971130145 -1.2453207581473584 0.07706701748733179 2.0179562842771634
Ni 2.2517078266791026 8.353076497051765 8.422722304990991 1.3834224222495077 -1.8010464516268594 0.533899598743345
Ni 0.8844534787024626 2.4679209312830563 10.387922514942684 2.1449034744243898 -0.11100609343693785 -0.6088241159663773
Ni 8.774029909401428 2.932912090539323 8.616734898970057 0.024072981788803703 0.4186172465285565 -1.065617616454339
Ni 3.160190235085718 0.45681192621338607 10.191225212361166 -0.1440123731596294 -0.4590149336193126 0.6860374292235862
Ni 2.994918943349106 6.83883412141091 0.6373592747683583 -0.10120504818611602 -0.442189891642174 -1.9385058541593194
Ni 7.7953021050453035 8.556825214115864 2.0494020130647836 -1.2812087302932194 -1.1637918482339311 1.8097498929381284
Ni 6.77992251428017 1.2887713356076709 3.673657204588988 0.9506473961633305 0.6114674671264952 -0.7385946344950118
Ni 3.190966615026129 9.163206083926438 1.3705089895409497 0.6641018054927595 -0.4435672316056748 -0.493764421285356
Ni 8.779117603646318 6.220646835447347 2.9272850451012564 -0.8597100484518096 1.3429581435868743 1.1192377157726403
Ni 5.4332126278181025 1.389190743326519 12.780332425740808 -0.04382496760475033 -1.320959784938912 1.475186636737698
Ni 2.2625504537583803 8.919942014840082 3.5635489365185293 -1.0740930009152019 -0.29188808592940696 -0.6062823233811301
Ni 3.253056872659599 4.469256744457165 3.1851950012270063 -0.4362259607492552 -2.170034208053747 -0.7568085863998772
Ni 6.995996610844645 8.803684957823382 9.065564056836358 -0.168321125108323 0.4179467028240931 -1.6615929014825062
Ni 9.219013178175505 5.346286267131243 7.4496373003174075 0.400581214962452 0.46392856887084616 0.18570512491272534
Ni 5.605628932783879 5.341068832049506 10.914687920222674 1.4180207290496674 -0.5619755310439547 -2.805620165495
Ni 1.4759317599607393 8.035517264465776 10.851726545541808 1.9093197195136664 1.3716665672651605 -1.799925964869171
Ni 7.9709897325401275 0.45712515766234296 6.301908155165347 -2.4545604543014434 0.5076442645912419 0.9201523128982668
Ni 3.3858188175636426 4.8889590844515265 8.291170656750669 -0.8999462702640372 0.38816741467913146 -0.6463588796870416
Ni 3.541072263255213 6.64703082853928 2.7580538776800503 0.09923429761299038 2.1162554716703945 1.117101643266244
Ni 5.852701822151929 8.410857505461419 5.804277908239666 0.6549106259117946 1.8133314396417997 -0.38113364776080166
P 6.481370314292129 4.337560527855786 8.313006966312123 0.8277044420794907 -0.3104275394944912 1.2363252395169677
Ni 2.5154894823924 0.17602402695036085 6.230401492937643 -1.3261693541643096 3.0108957563404855 0.9440561160990579
P 4.6476133263099655 8.432533492417342 8.977428326206041 0.05642285887441895 -0.053052399740289274 0.400945026059774
Ni 3.526708099175828 7.942307740394517 5.167051154468943 0.8102772477419786 -2.1948774923496717 -2.4813024982819782
P 0.46812996078767816 1.4901569160006463 6.164699806438538 1.2105854115487023 0.6595393829330577 -0.11406904863297773
P 9.231042007191661 8.405019167803346 9.000649155840696 -0.44203999632787094 -1.8310949342728078 0.9652977990866537
P 2.259177192000383 6.359163713185775 6.967563906449831 -4.238451220084624 -0.10530287240457349 0.1865114228641046
Ni 8.653231923095117 0.8401015736266383 10.260236216920111 -1.5459547085901955 -0.3089126455118615 -0.9638746934868822
