# total energy = -340865.57477817655 ev
CRYSTAL
PRIMVEC
9.28362942771546 0.00000000000000 0.00000000000000

0.00000000000000 9.28362942771546 0.00000000000000

0.00000000000000 0.00000000000000 13.58753007110735

PRIMCOORD
 96 1
Ni 2.5490618126150726 8.81590153681276 7.090408122799629 -0.3872880973979717 -0.4152501298285365 -0.4946555656410577
Ni 4.790074236113131 9.143715772817549 4.011052404587889 1.0000961377127615 -0.44760412067920974 0.24618055658996316
Ni 1.9641838798876596 4.900094527549022 8.666221580790408 -0.29860766404142763 -0.15608781626692472 0.04953795882912759
Ni 7.174026700724887 8.90329762352084 12.381989586618584 1.8561464779247971 -0.5477645296508954 0.2838420756964789
Ni 1.6477420898375557 2.0318522542253703 0.8824451759444811 -0.14517785422264032 -0.7132286449263975 -0.3660533563889115
Ni 7.439315693052286 5.109774580065353 0.4508278950800075 0.7430405860815075 -0.830244434892525 1.229702077773495
Ni 0.5212210146321671 5.411037636126959 6.297385649850502 1.908277394292081 0.5342109593361768 0.925719008352767
Ni 7.393538116723674 3.8485285473587583 11.217538386974782 -0.36508893559311323 1.2773225078649357 -1.1580122654376765
Ni 2.883356021906694 1.9104038150586902 7.609451197986108 -0.38615681200700597 0.38148228934947204 -0.3854700703526264
Ni 5.013466209180539 8.94075706795117 8.370244623281128 -0.14865295725543431 -0.4910513932295672 1.9797625468162612
Ni 1.9028376571378185 2.328185703101722 9.911369800202781 1.4517952543969512 1.2795084597726607 1.0104746527336081
Ni 4.765788261731536 3.038624722798203 11.304730233837146 1.9900860402294565 -1.0435092145910736 0.3403310119221429
Ni 8.813264986077142 7.53038809698327 2.2869171855487758 -1.2491882115225648 1.0082691604418572 -2.278737878609753
Ni 6.712342529482096 2.891144986931984 1.2587013899015507 -0.2534326101666861 -0.48398703018361805 0.6985689860316937
Ni 2.494241981298818 4.046604063186636 1.754068425154778 -0.7032679341692598 -0.2515017116925604 -1.7526356644236394
Ni 3.851406472457495 4.368755285287459 13.15128867312477 0.007959621166708872 0.5816650390530822 -0.17090251268225404
Ni 0.28639625201929503 0.5060227850220331 3.7433645224362517 -1.044831532946923 0.9897623598869214 -0.7259098399384918
Ni 1.8219772454926735 3.6828064798182902 6.018772792678886 1.8399058476962185 -0.6265750121918952 -1.5895210232169206
Ni 7.7679654556986435 8.227987857287648 5.480693635508668 2.086171764911136 -2.896355167387728 -1.0605085773625478
Ni 8.785107738256277 7.364471073226436 7.536472587659761 -0.38825868884135717 -0.6539078956788932 -1.9312730838563064
Ni 1.9166888321291566 6.85378790627032 10.453769558472843 0.47229211034419305 0.9892640800942639 0.1803261199889991
Ni 2.6652464339398705 0.653071760486377 2.8728655207403317 0.4773661824329907 1.787390551406322 0.16648175790673908
Ni 3.3958959147329626 4.837485731207478 10.781297858693629 -1.5821854087874556 1.429836490737673 0.4847282792250168
Ni 8.993051752084018 2.1847814805204875 10.163486250844382 -0.366232305168937 0.3710508096035029 -0.9039433072385723
P 0.7185612670154637 2.876031238348942 12.025439732684378 0.03668629967744004 0.5757867258954342 0.16004628669404047
P 5.16607050844838 6.737529015910717 10.199330343767679 1.716408306660489 -2.455180090163313 -0.9561760392910437
P 1.601091852349972 8.655498988890278 4.817975255763914 -0.4338569462964464 0.6689938434777382 1.4830886651935942
P 5.7802939935535536 2.130342278007614 5.471589180204376 0.9187297215191275 0.18927047366648048 -0.11994736179062568
P 7.707918941057909 7.19781135912154 0.1348549283121169 -1.3164786092391068 1.3039318829223479 1.8704361550745916
P 9.565944519319595 8.664151331445188 11.707110580787264 -1.1265180514841373 -0.07635430769102333 -1.4892014629595516
P 7.926752652114092 5.829320840154932 5.921214845283459 -2.1516189387713527 1.5339767102927129 0.17891278458124024
P 5.2732407256735865 0.41621388304568796 11.719203436379567 -0.2703013608975667 1.2340814377881133 -0.8993662293908511
Ni 0.5692767936034562 2.849062295084976 7.528578717622806 -1.656947689401011 0.18843846468348835 1.7038063016257625
Ni 2.211146987876654 0.2414328499847451 11.25914390027316 -0.8200163294066136 0.1303641862485755 0.33460336540974633
Ni 0.3420386128960275 0.0021649423645979074 0.24571260311544676 -1.1849779953932429 0.04367841472455703 -0.4017515811214694
Ni 9.298854502898147 3.779467628618433 1.5479458594056597 -0.3615917210731321 0.00773747785357377 -1.242732428594892
Ni 1.6043875407694927 8.229584641535977 2.0012125639161122 1.3109337681614777 -1.5537906596948468 -0.8240917850275679
Ni 7.5933218203520925 0.5781983614095393 8.36055622769067 1.024428543810539 0.2595729187364691 -0.8272681258730205
Ni 5.144978102563446 2.2470282153173526 7.852410276636118 2.2519755229142446 0.6792885405355268 0.4429540235017081
Ni 1.3851824845392795 7.3338629472569705 13.015018919699598 1.2643104118759838 0.435093904027341 0.46057842145169064
Ni 3.255128242887345 6.340421770431833 0.668915202336389 0.6014550771958158 0.5010249595025114 1.8104734013677144
Ni 4.848254741254362 4.494409208550034 1.8905145675376158 0.39240562113019517 -0.4098279303717006 0.09397022100057364
Ni 8.041990343245113 2.9028423599139455 3.4411368972851 -0.4263963762533431 -0.7860487142119172 -0.16584283877115955
Ni 4.733704038695299 7.4510037824048965 6.43432011113719 0.7040510921921874 -1.048793860028781 -2.5818436876318502
Ni 1.2218184588539047 5.013586896362099 12.827796894945699 -0.18164406746947426 -1.7549059485150553 -0.853384363344098
Ni 4.666434860419671 0.24361078943043407 1.59528494219107 1.0082298225634894 0.93752165741465 -1.270515255135115
Ni 5.440346053987318 6.565939694620566 3.8504205510204437 -0.3856045390479617 0.803745617271048 0.7458582580359607
Ni 5.708967869251643 6.760580267588661 1.588055780015631 0.6514445217400653 0.6932416602815094 -1.4428958950247923
Ni 4.295377478899029 2.3933289302560254 0.6369776606438945 0.10437650393556218 -0.5176183450848182 0.7161393908152892
Ni 7.526702496131017 3.9213864705035455 6.724074251892656 0.02287201950216706 -2.6189141101215863 -0.3273271434633072
Ni 3.217269602394934 5.015378636826796 3.6631298274093482 0.05596237429823265 0.057259752953417516 1.2193911827657902
Ni 8.641508559458678 6.599202938584349 11.964173349146952 -0.029303634060123727 -0.030258284663909178 -1.3671730502701809
Ni 7.04849346464387 1.458421036487448 10.91127609650779 -1.6216400152386525 0.7274342470028181 -0.4609918548400255
Ni 3.805433939912517 6.8812395982605254 8.26677578907807 -0.8889632888899722 -1.4439657310502034 2.81436937244254
Ni 1.1106005792317653 6.249887817003194 3.49577291274021 0.37500953714093477 1.0093341113712617 0.4301167625277238
Ni 6.743721196687675 8.572605462417316 9.968654435111663 -1.577884981639889 -0.9485606888376308 1.4001538760715757
P 3.3680264594219724 2.765073300348624 3.249607268512446 0.4779752767718995 -0.70893490264705 0.2714133630148229
P -0.17210734780792317 2.7128528852505824 5.358146942989793 0.2332975299797079 0.03949471566051263 0.2292141039389536
P 6.937015643399909 4.6824027029029835 2.618887702413901 0.3079515671501729 0.5553816798765209 0.01218728609481127
P 5.936713864484558 3.728398383559887 12.929893608730714 0.9079598845971332 0.006343939940156817 0.6936625498690118
P 1.633148224498156 7.034614438764479 8.126986611766021 -0.8611485806705491 0.3435173800699245 -0.12401921786715417
P 3.8334519332931194 7.822599614427883 2.30236607315138 -0.21125391991610715 -1.56880564504644 1.0929569276992404
P 3.633426855301582 3.3849133812110104 9.337011147892717 0.4497692466513286 -1.5618040169176264 -1.618900247709986
P 0.42952660753468197 5.404390557511814 10.50848726986624 -0.7875165570066953 -1.5875857538674205 -0.33089712020275275
Ni 1.0692512941034673 0.8089828885289594 8.62295893965292 -1.0875028465632046 -2.590758987843609 0.34644689501189363
Ni 7.149471501092118 6.216606005780708 9.794951231418345 1.2219610003754955 -0.3399918834151693 0.6479761035754905
Ni 8.009571909552248 2.622671709737272 13.063553733945387 2.055439368824286 -1.1376025914330732 -0.4604930608267359
Ni 6.310537767551728 5.7038061713326185 7.515900993381405 -0.3626258187646013 1.334951214121998 -0.1128544594995863
Ni 9.490004431230355 0.8307854920592259 6.46675432699995 -0.04870646406676773 -1.3567927354771212 -1.6628080048365297
Ni 0.7869881138711319 4.060260281961607 3.7082946842008093 0.7343654269050126 -0.7963873771337638 1.3200892094085008
Ni 3.9384869157676508 8.282222819954804 10.445726222003344 -0.3526108577307605 0.4559229249575503 0.713313748441036
Ni 6.244057697770914 5.967368408600778 12.32088659495773 -1.576691218442104 0.49487873739545735 -1.3736943963284662
Ni 4.042974164110487 3.225903377691143 5.536891157420577 -1.297355515256411 -1.1406999994114744 -1.0613662973771527
Ni 5.020744574591537 8.132691402002067 13.078622921107543 -1.0703440753957307 -1.00854324003885 0.8795769625790658
Ni 7.24124017722441 -0.13234649166154078 1.3477935956920168 -0.6117423180544368 -0.038887678204133025 0.22736470943504067
Ni 2.8291024919808354 2.3527130518464374 12.225149167277989 -1.423404104848768 -0.6546907965915048 0.6812328087460913
Ni 8.896409170542574 8.01883697164431 9.588040485537345 1.648232678125516 0.7653346215930174 2.7951115526541925
Ni 3.1379874077394185 7.402125473873131 4.453299441058986 0.881788625518404 -1.00071320247147 -0.27193092608118974
Ni 5.4683640473679205 4.481170753095847 9.482859750082008 1.2539725202850855 0.3362208464085113 -0.5311595741043627
Ni 4.254130313693589 1.2250955800147239 9.936452309982673 -0.5726929174614589 0.5665778057026565 -0.21356791276126444
Ni 8.815028875653788 4.865058110379244 8.571204562748287 -0.7746654120756401 -0.16103359030797426 0.5531021398137248
Ni 4.80928206523986 0.43909245921770806 6.448832280538301 0.3420166271546819 1.42390804106838 -2.780088082662167
Ni 4.071066426525896 4.392920572487495 7.436537102787603 -0.14860050675094408 1.3605694289107342 0.5483962496976232
Ni 2.998900072806289 1.0894710388294289 5.180585462938297 -1.130122481005944 0.30531644352017095 0.02615377557723238
Ni 5.642951980938368 1.940956239252051 3.1036908958288953 -0.9564436911301335 0.6703794109713552 0.7993091787662492
Ni 8.019830319984841 6.298079136963003 3.856018579518954 -1.6325836587343494 -1.7140266938021902 0.7090156352863144
Ni 7.402812462445087 0.9104278915335507 4.848791335030836 -0.551306995586515 2.5207961855012266 -1.0416325663936512
Ni 5.757632654308342 4.327146058537339 4.489850018175875 2.045482000501258 -1.050585661821881 -0.2974470680744232
P 7.253708091442484 2.6420652114510155 8.780941245403657 -0.1248463417541398 1.682896805166605 0.7728738673928561
P 6.661189731759393 8.286270482351737 7.118697198157275 -1.0725688509611917 -0.36665165209454276 1.8435809825549605
P 4.165657325980819 5.4138691430789425 5.4991040008741665 0.19347345600423455 1.981431449878252 0.7471823761640228
P 2.528693529819499 0.12948434873270057 0.06167486322885822 1.0995399802333967 0.5395529403743805 -0.08459854997768655
P 1.2216977716723447 5.792316293562792 1.3029341703061954 -1.0669443056855625 0.6508223147750339 0.7840321980025208
P 3.7715394091528816 6.365840347594222 12.22218676115216 -0.08651196495031552 1.4190023762366466 -0.49382329954774945
P 8.918151430482062 1.346079837713866 1.6957375252180649 -0.940339072258787 1.9441321992071616 0.8876263152461036
P 6.83626969768543 8.336801276907938 3.463719325680831 0.37500105250050253 -0.02118948959342157 -0.5349599216870593
