# total energy = -340871.65338445373 ev
CRYSTAL
PRIMVEC
9.24778087948619 0.00000000000000 0.00000000000000
0.00000000000000 9.24778087948619 0.00000000000000
0.00000000000000 0.00000000000000 13.53506209714541
PRIMCOORD
 96 1
Ni 7.755614351604035 4.333325113187946 8.304342520926546 1.9540993377222025 1.7219330931334602 -1.8472396623534704
Ni 7.2024028581642465 6.567034080364132 0.05347344274614082 0.6562856518824505 -0.3252910868698849 1.2178773172244253
Ni 7.992792185011204 1.9582915602852304 8.061753810990874 0.6526755659336888 0.021433487283427605 -0.5036994210108809
Ni 2.359515776770723 7.356147213464835 7.3711267687560165 -0.6014280806126222 1.489372441319777 -0.11720245205563687
Ni 5.99135047965334 6.816899868987686 4.898271115646739 -2.863175595311966 0.4933389037121632 1.8726971831946264
Ni 8.86269393091828 5.712354181604411 2.097284780479655 -3.4683634000773362 -1.5693882570227875 -0.38584519430385805
Ni 2.075442447079086 3.872378728490051 0.9328772833943504 1.385496274059401 0.08463505964257681 0.9680216257757199
Ni 2.46715069715229 5.320608940408127 8.658013723914827 1.4845603646431142 -0.1659081447914562 -0.4002613697291881
Ni 3.079326040781345 2.631363540284473 7.776773274005704 -0.6319768999337567 -0.197079428187938 -0.22529497139020557
Ni 6.722137859437904 2.3581378574359992 5.610918973451025 0.688134678072247 0.4512615149261389 -0.17011266979110704
Ni 0.6273528014287135 0.7905715081281259 4.330623836425041 1.1611233002628325 0.7687009669620891 -0.548121912990314
Ni 2.0767741275099603 7.228971732316342 4.791154995766366 -0.1832443220770586 0.25540078963665047 -0.19576533736220478
Ni 5.135255670435815 5.233670553389731 0.1091617289866871 -1.0190937618611868 -0.20672209348402465 0.9265458751294364
Ni 6.083273420506744 5.889550908937618 11.639476974254224 0.5689295937642846 -0.03884036990596537 -1.2524213737478818
Ni 5.706611309746266 1.332022598762756 12.257961153924546 -0.842143500322956 0.15715225297569707 0.1631498653200287
Ni 2.4337939519150438 8.213342508593986 0.9721627808832183 0.9530128110717137 0.2414345572645455 1.2801422367019177
Ni 7.4626908957155464 8.97437013149632 8.410917645631876 1.0602077582926772 0.7336997682965557 0.6461130822248228
Ni 2.100846100854167 4.626489011376455 5.7173858991213455 -0.44671349054414033 0.3988981708330743 0.4259775435483696
Ni 1.597350676833684 2.997298225351798 9.730708204770206 0.42218156684104713 -0.6239869397497447 -0.42698258777411624
Ni 2.509339073024848 6.024596251521347 0.006195088337796332 -0.03629780598976975 0.25850231138010965 -1.9632241828416062
Ni 4.520287497014232 7.79859803662281 11.743629180397821 -0.38880016316712396 -0.07185282027624401 0.7449624856945686
Ni 8.564674947825543 6.780685559492522 11.695985538649065 1.2199295717677634 0.9805099880507178 0.9850963218698194
Ni 1.9096759767775495 2.9322493354158983 3.209136214671199 0.2646588178998087 0.11822060890750608 0.7223498905013752
Ni 7.955015000565917 5.711392412404335 5.069651913653717 0.8544169183736705 -0.801734243267974 -0.8623726828856374
P 2.1481022605886633 9.01814912566131 3.1202650414718818 -0.3522568168254514 -1.7984694349283028 -0.9441003390734322
P 0.768497055430231 4.358627041374558 7.928514559991519 0.08813998747204176 -0.28660755425675805 1.3847977053304796
P 0.27331631110001947 7.97287246523271 7.722768083865291 -0.6746536128666768 0.20591810952549056 0.9055528178175372
P 2.863908235525892 0.6361742595051785 8.887649992104095 0.31543553423204385 0.3219023729033101 -0.16119377003492238
P 6.915185283010823 1.4405083149751592 10.115171743388224 -0.9371020533787281 -0.24961555041344105 -0.8307853949976596
P 0.06709357426413819 2.0848659356836756 2.2121301955275596 0.6868779228470107 -0.4459254474252062 -0.8295661778785777
P 6.530847514211278 4.303870931435624 1.5204748000710822 0.322801744789128 -0.5470803590996772 0.550785061644774
P 3.9437808438149133 0.29780350980079706 13.41912083040344 0.7852321318478928 -0.8261738643675772 -0.7382912443219801
Ni 4.408833243174672 6.502826738478299 6.868759573989469 0.9003746160507075 -1.0474085496454801 0.6666754797572066
Ni 8.959712398975933 3.55890670373071 6.3835544107758135 -0.46488733323968967 -0.6329194663526841 -2.0519637515708595
Ni 5.08780530730515 0.840035113132412 1.7922180636621312 0.409500628939269 -0.6267724729146819 -0.24260106676882093
Ni 6.981251428831419 3.691871295641198 12.958901321274062 0.3777037961436463 0.33828107137164964 -0.5725715613922462
Ni 7.552163174664911 6.804110188182831 7.273945539756812 -1.8316880877721164 0.15203730034663493 -0.7244635944102684
Ni 8.613290531333224 2.6890789400697948 10.300520389470151 0.4400533049151454 1.6171061319240407 -0.054916963752853806
Ni 8.181687355018411 8.607584650598158 5.066620491117324 -0.1499595918819998 -1.540469259995592 0.04047327752369804
Ni 2.658117370051968 1.3121676134496516 1.3462077696857981 0.32155167443211075 0.6362940392518719 1.4092157291635279
Ni 0.7561309229846402 0.5924951413725026 8.742215692603393 -0.33693124221197457 0.6792679717102366 -0.4233622174127096
Ni 2.460427560532529 0.7137085782586018 6.346414398425576 -0.9790262044163396 -1.9108559536525347 0.5716750177199058
Ni 8.167408781509593 7.083457901901018 9.495075675529696 0.267094681034811 -1.9372652968839992 -0.3788155411505863
Ni 1.920292429101464 8.361630673240297 12.137661397778517 0.6703765827578777 0.5132616107780192 -0.23906040060541406
Ni 3.877511246817379 5.595379002645184 4.132417075960562 -0.5000854784073775 -0.2965006450007539 0.27978564623891816
Ni 7.290497217778888 8.659779125263814 1.536067483227312 -0.7237958789192825 -1.420369174677186 0.891513823225968
Ni 0.22615355395129952 7.853835031161783 2.4471116810018634 0.42667405539476194 2.3173149675520026 2.2065359025242066
Ni 0.5654943958584497 0.8474934483233849 0.3818149742055005 -0.04663646891161645 -1.8410492172720423 0.31612330432768787
Ni 4.384585561995836 4.1147260713476275 6.032401378491193 0.23217447211885822 -0.7946292567920766 0.3358979158514538
Ni 5.047290779751954 0.5710023740850381 8.779206815683233 1.1171839185674048 0.0146570877915425 0.3432111616834153
Ni 2.4844440471921154 4.3515432413047686 11.553664042155532 0.3752360513294441 0.31022493656538186 0.5750627032452161
Ni 3.7842473777523304 7.859531664116078 9.395945014344186 -1.6003847054043019 0.7850267007053061 0.0665388642624983
Ni 7.933948555971948 1.5474866429220588 12.175694745751132 0.46028634413256864 -0.34248379659908756 0.40970863118501694
Ni 7.657994777796335 1.5045861879302134 3.4415468170914534 -0.43428606341406495 -0.7938394139009296 0.10449888844603938
Ni 0.7867863914589812 5.311888283142054 10.272787219719117 -1.2004992309572937 0.1997333208710173 -0.5756031491297183
Ni 4.840038764916375 2.7611099044870144 0.503645238068956 0.6610787023957196 0.27255416148748546 0.6754334284554949
P 2.7140387003679174 6.521719954591326 11.150305437868331 0.04521721996658664 0.15599165700869264 -0.6100525890568398
P 4.533863239184534 3.7935413974261403 12.212646103373661 0.3838569602292357 -0.3882311780375314 -2.0490717747350455
P 8.539483993008172 1.2672141511268753 6.012490906493469 0.1377314252469241 0.5315452395785555 0.5915663573271941
P 0.30537836702947146 5.091300968436194 0.00894167922647451 0.2980415071253125 1.2502760452701047 0.65295375929574
P 0.7262846353276706 5.414492410784763 4.228394243903517 0.22735545346366007 0.019918850411114082 -0.35627082308085095
P 6.319470989152298 5.027777962327337 6.499238599539553 1.1361563459048496 0.11010132223448137 -0.5756298886025958
P 1.2195048501346504 1.6380039210984292 11.56093279784072 -1.2520351940530565 0.011909606953392392 -1.090786659520799
P 5.925053139313496 7.595054381875987 9.075949605029717 -0.33924472083649965 -0.5323913896289347 -0.46670973116040915
Ni 6.3783793526569434 3.8926128728147242 9.822543291706296 -2.005614989102991 -0.790737120826522 2.5750464622043587
Ni 4.695634668193447 1.4209030197428436 6.232922858482394 -1.6473759865521755 -0.07010986944320828 -1.5731549231540713
Ni 6.297738704342891 9.109489456326207 6.499550249751501 0.991927228748724 -0.29966952964703875 -0.6383907738799005
Ni 5.121393247061644 7.456430148134283 0.7284597133647653 -1.7939460931366524 2.826817625508222 -1.0218407284787048
Ni 3.589618583667748 1.1054982088025813 3.9454435947973523 -0.8063902539827467 0.25893657070405085 0.33335612326620656
Ni 6.872414296949757 8.577769805395805 10.790476137665335 -1.2408447246538759 0.4637390785678594 1.7919061798884883
Ni 8.87646387648475 3.5249488527434165 3.7297890463541887 -0.6083644027211393 1.4198739802083222 0.7093460220425396
Ni 1.1721377170309144 7.781656102252244 9.887606053313352 1.6697510118132664 -1.4997113613519397 -0.8642452173180019
Ni 4.0339374585412555 3.1091963726683165 10.01452444615644 0.23024743029947442 -0.05601842434714869 1.2634632333843403
Ni 0.42124658663053366 2.95038423350579 13.252937285189178 -1.1973357456276474 1.0685862121643597 -1.0585306277005706
Ni 4.105173113812259 7.731690342752148 3.2384396575969716 -1.8417979225126087 1.107048887015932 -0.27127529477506185
Ni 3.910377859673818 0.7736943082229486 10.946846862704591 -1.4174717985247332 -0.2990558073224398 -0.31020513907103997
Ni 2.8398917488663056 2.268045977175047 12.732093949222326 0.7032705052724211 -0.2853775385043989 -0.38099429396945994
Ni 5.80082770023062 6.268432487082887 2.480652457076432 1.4352738597031605 -2.2120727731820358 0.2074610285325782
Ni 5.964356207585826 4.214537369197808 4.258969256685159 1.5141463058303473 0.7020708285373651 -0.06791363312283787
Ni 0.33224779405659083 7.549028176983895 0.20400974289762983 0.5696585015105092 -1.8640680467647186 0.07708938608483498
Ni 5.887997281768264 9.125053471362051 3.81086434036443 0.6565432764192113 -0.7420337420835479 1.1449698304314218
Ni 4.330883699064677 3.657284595561547 2.7459259732408166 -0.740064534172319 -0.4685856080268833 -1.4570850420409809
Ni 7.508791082853798 1.5083315391420473 0.8706276966975174 -0.6982987630894426 1.8262730874041324 0.6422996220160035
Ni 1.7436228252721444 5.984867785333598 2.2667300179714815 1.4889263549212937 0.6061946487633302 1.7605631468008325
Ni 0.40672109737515727 6.173864680929274 6.597977154820419 0.9373889884915275 -0.8538672165177876 -0.5319026229179743
Ni 5.76822002523574 2.570133983806567 7.797590028518885 0.7149803375101815 0.8675544841968931 0.9249577047067103
Ni 4.664645354833311 5.828469316952031 9.657997528466394 0.6027977072666393 -1.358831877394337 0.4494599429410259
Ni 9.147590313098444 9.225641582796907 11.020653401029643 0.19303251181207404 0.18918819836531933 0.04286620323590682
P 8.055825058739254 8.689196315893057 13.00992872600655 -1.394397690314089 0.8211427297015729 -0.6335285606915928
P 5.494605935594928 2.0224526632672144 3.7588354009745566 1.0097071784399643 1.1496736636649942 -0.17756244120093292
P 7.336689882724839 7.3170013574655925 3.481393654873058 2.7464981625218634 1.3432065121522545 -1.5930313503630242
P 4.421169782721798 8.420760983483422 5.912006370203235 -1.3500011664765847 -0.011188669626967828 -1.037925035635077
P 2.698576410920544 2.5996898911473596 5.463468657742472 0.3189060092791476 -0.16015118770302095 -0.8977204662573119
P 3.7654096483239217 5.773694711451557 1.7971045910209782 0.3452816710591989 -0.12042044477230229 0.24971762320894414
P 4.509902239209567 4.187644822718764 8.209434396440601 -0.533135723994127 1.6702462062821302 0.9678753300058429
P 7.980538875491007 4.977627247211844 10.896794174065258 -0.9604345574570815 -1.586608734666132 -0.7416491050506195
