# total energy = -340861.62774381717 ev
CRYSTAL
PRIMVEC
9.28900949450143 0.00000000000000 0.00000000000000

0.00000000000000 9.28900949450143 0.00000000000000

0.00000000000000 0.00000000000000 13.59540434267468

PRIMCOORD
 96 1
Ni 8.065377563615378 1.3621682194398408 1.8131236212168764 -1.2335296790497012 0.19222852785353992 3.9623707906114336
Ni 7.647799430757359 0.047066482212446074 5.3717078606839435 -1.4563419932273693 1.7931325960964215 -2.445419925452756
Ni 0.30417140263103876 1.698941258697026 12.47787536567263 -1.635069915491313 -1.5992739888386263 1.1495672199941172
Ni 8.926775281156036 2.168454243644052 3.7869043772611897 -4.732533429720714 -2.3037948215783812 2.046804575967423
Ni 0.7491121707597768 6.791213420135339 12.934967087122352 0.1489054395858726 1.83350688614841 0.019030534268889805
Ni 4.581794644616395 2.53070703594723 0.22622175054910257 -0.762154424092823 -3.0037146652110143 2.3355044939768357
Ni 6.187111976608879 4.324507659611692 1.030334146531381 3.3094910790867393 -0.5704596572555659 1.0726071603982947
Ni 6.626881553151506 2.5955629002443934 9.81096079679091 -1.3028461060573369 0.4285489038199716 -0.30257076245423375
Ni 9.263195338052396 3.54152776023154 2.1385705711962717 -0.7854833286267504 3.1161873158911493 -2.5939895789657648
Ni 7.542034768642276 6.623193816381816 5.206088536984042 2.0106304400397117 -1.0338912318853357 1.9908789684443973
Ni 1.2810751665446476 5.581895851942966 5.067632134850708 1.644475782186245 -1.131466139518032 2.3883890006806934
Ni 4.6401760692952365 8.024069338389156 7.298026422711305 1.3023632528836473 0.6879248760542861 -1.2839991485541629
Ni 6.467686508418652 0.8272429585268741 7.2335439765958585 0.5156720199917249 0.42525840599415793 0.40463327354463857
Ni 7.291835297882594 8.009940754946593 7.323626932880739 0.3353512993193644 -0.7235014876073154 -0.016538621084971516
Ni 5.99512672835712 8.727303091250953 1.0894800566916976 1.6222861334630836 0.5136403342736767 1.1538277950426838
Ni 2.6402244578984706 7.279350869120723 0.8924991791332914 -0.011574335101160712 -0.5599597861655067 0.7712705274614782
Ni 0.5909565661894621 3.372607122556959 6.596340218831448 -1.3916111287078874 1.732165826605062 -1.3863395958963027
Ni 7.38543135755865 8.104623628733615 9.720509995730009 -0.1720397116104908 -0.5552207288186244 0.5776451192604116
Ni 3.2735677033165755 6.4491456454657525 12.220773231956883 -0.3438038009620918 1.820953989184064 0.4221280878952923
Ni 2.157558235505901 4.7669617598985 13.324828673447877 0.0528161153597671 -0.18638698147109836 1.667768434165599
Ni 3.763200682830725 6.0179591136969135 8.471894343966229 1.1374604094282539 1.3129253446702096 -0.8582396345538704
Ni 6.448133143430749 3.2670003736032998 3.3954246454815586 0.5169863679277742 -1.5064430236488184 0.507040826679288
Ni 7.741897096946169 6.998674158206501 1.7374107626214421 1.7486327139118336 -1.0436449688379896 -2.84746075567987
Ni 2.852552636945243 2.3910653562022772 5.776293455960691 -0.47676325874166925 0.1220608085892027 -1.023178730563838
P 3.6407343816428415 8.79928362583112 11.645061788151338 1.6820840794573224 -0.8954566099237997 -1.3104195475292206
P 6.618298508377719 0.8611589899966255 3.5617508628040624 -0.1030878670311257 0.003347319205678106 -0.3099408296660598
P 7.983476366894083 2.8688920046477224 0.51884505657541 1.4792140127295363 4.532549940512104 -1.9143667950192709
P 4.235974110110651 0.5158382042017361 0.9551015297268611 -0.6591927982269163 -0.19639294364387466 0.04785800002354338
P -0.3781806568850092 5.92633232403389 7.0610990887187075 0.6162381490422612 0.6627473483473941 -0.552506415211255
P 1.5623092180285958 7.907548003278354 4.542441755888963 1.6611308742444229 -0.38476044588011155 -1.2723471661375312
P 8.609518450848771 4.249257393689131 9.75173871675273 -0.4473398112742296 -0.47798864650833806 0.12390506088679307
P 1.760174409290968 2.9785023166939166 12.095858347866002 1.9836875929022804 2.181707530626617 -0.7029349763098732
Ni 3.631501106204374 6.567952076912433 4.32654752609689 -1.8261954400886613 -0.35669196977866957 1.2681626957425387
Ni 5.468495624022632 0.20322680754314032 10.27673867101982 -1.5324507605664897 0.9129473105093954 -0.10668226925060337
Ni 3.895624802197721 2.7067616329143087 3.104334026021999 -1.167614821524447 1.4743901089783316 -1.1314671679592967
Ni 6.618159173235287 7.446488016972179 3.4509627043538464 -1.9225619292355534 2.2694546535356137 0.08018576562197159
Ni 8.75929443995325 4.139061874044724 4.7725713927327975 -1.9418153781485268 2.016337774837134 -1.0652070112794816
Ni 6.729515819066624 1.4955769738133533 13.512390495377906 -1.8731216723265547 -1.9443633413813612 -2.139700847177528
Ni 0.7838874356078565 0.5353609154583028 10.059851446112683 -0.5994650433489805 -0.9785441225735985 -0.0449595954298258
Ni -0.019143719669152758 8.020957520208183 5.862066311839687 1.6984141840759137 -1.2289626285043092 0.842845154375671
Ni 3.3914266557947212 4.363345008312127 11.226024351901586 -1.5873913784684275 -0.8535450572916784 -0.965386502145718
Ni 7.8531329856540655 3.435568028917053 11.768018549040582 -0.11713637470439182 -0.5464784638496202 0.04275230336586186
Ni 1.1319958531523275 2.9218114917432456 9.81509347711543 -0.3632464830677357 -0.008460986283159621 0.492014785584101
Ni 2.6683608676601587 4.87531805566281 6.892367017936884 0.16512241566536723 -1.7446770716981952 -2.3306633638344505
Ni 5.109020245558591 2.597550748276418 6.918279638825365 -0.41652308300368907 2.2539881824688988 -0.008887789407933082
Ni 2.196507052320282 2.7973016084663644 1.2158505285705148 -0.08700613097791467 -1.774966723820672 -0.7736930208600417
Ni 1.0883560865427493 5.294605366267992 8.848759677106683 -0.1181013097208224 0.759045446150196 -1.119505110501414
Ni 3.57729973579848 1.6485019371367855 11.924488198387474 -0.5633148186806685 0.0713141741639546 -0.7803933156983528
Ni 1.956005307473839 9.29606914265676 6.805193379425976 2.1349911004066846 1.1435595803474563 0.7062478427331902
Ni 3.0456990113839315 8.340926741288119 8.829970797600257 -1.118116200573687 0.2624962630308511 1.1612497985383679
Ni 5.878763306407741 5.139228104437763 5.253957589616895 -1.9313422465313448 -1.1487238981572152 -0.6115011485779082
Ni 0.1180010743234258 1.0054423877864498 6.750539634257654 -2.4377361836552534 0.9254588127128448 0.06690653201456219
Ni 7.841577457841737 5.96039512185367 10.852503991080438 0.11758683197824911 -0.04280243987750693 0.09594277134591218
Ni 8.682827313786786 9.083295091154206 0.6245214731002857 0.7513035974212481 -3.345466982960716 -3.115602647032273
Ni 0.3260275130728601 7.776238565050811 8.285637627870308 0.150483839816586 0.3194256292280434 -0.198580952434129
Ni 5.024880397548894 4.2894509377759 12.723421971576045 0.7161666445087989 3.4447365046870155 -2.3782033183969427
P 5.4351480799340015 7.3406397537716375 5.329207855539456 -0.2087175266474986 0.8182502386451261 0.8324329579034115
P 4.106243803497333 4.381207773571859 1.1413981885636122 -2.6735683071313567 1.1186689877533638 0.8023867892503085
P 8.828497560694279 8.825831614969088 11.912633564469393 1.2561222196382367 -2.1390495867467743 1.472962632503186
P 5.682170709446243 2.4802212693395127 11.801395817959596 0.29769286553664215 -0.8561511274559578 -1.074605421775246
P 1.2786693130853286 0.6811417015787921 1.1309582707916868 -0.21574512291824133 0.28651062366757757 1.0701491857761054
P 4.664531852192281 1.0790670770473092 8.357489045218488 0.03743911868306456 -1.5315254205387432 0.005743330241680431
P 2.608985518965305 6.5931438706640675 10.067900372840484 -1.3636838061699998 -0.6041601348318046 1.3513815917638792
P 3.803960856496717 4.3746868889060595 4.6512188437834165 -0.0027631645674339508 -0.48447553978426244 0.8297654383735774
Ni 7.817695414428961 0.928123459449254 10.914866685229025 -1.3869931703199014 1.4509084809166237 -0.6705483324490517
Ni 6.334807227586379 8.633790632660357 12.342288338572434 0.5224638461025776 -1.3442683777578655 -0.2919389937720004
Ni 2.8762953452155884 0.32399786449810636 2.623206063601874 -1.034146028208619 1.031866745256139 -0.02089329850924144
Ni 7.291370847407823 4.417611401784489 7.046755929156798 -0.6543969195001698 0.7967126216836666 0.31292048111967397
Ni 6.141187113663423 6.374220494875532 8.430999479662553 0.2782591822920627 -0.9530197530502491 -0.018323223789220057
Ni 1.9951027484401467 9.009038749247656 12.977126185618356 -0.5440914516746823 -0.07417092688645936 -0.7039652173466006
Ni 0.8748927905356338 5.072820975554861 11.238355512006782 0.19061027552382653 -1.2311105280852475 0.2900754582007004
Ni 3.230940438742001 3.9433888890232747 8.94655065347088 0.4796696337551869 -1.4752056629010917 0.8750340804033898
Ni 0.21559326588441988 6.379310872079033 3.4651423773486356 -1.780354727605463 0.4929707217394671 -2.927286309748945
Ni 5.21039120618233 6.583009561304541 0.6096460532942879 -0.3946807903176171 -0.4398612435089973 -0.36758496254208956
Ni 4.297653133160374 7.90335865999591 2.6314853577651602 1.0026692977565763 -0.28855053691574173 -0.46207943147724934
Ni 5.032162980993319 5.454004769209745 2.877888410344056 -1.6991515764625704 -0.45632735948482056 -0.3736931323223564
Ni 8.32136408729072 2.653275516239564 8.227830263978285 0.6161039374572421 -0.6207113543222664 0.6116615854151723
Ni 2.1386272341541934 4.753641320282039 2.453726227555668 0.6115965365051919 1.8591734376765787 0.4222221902709954
Ni 2.2574429546103696 7.137080399688561 6.603981358042397 0.4749922828841755 -0.5698346220770573 0.5841150432554714
Ni 9.100349712587832 8.716156279856426 3.0621061888557275 -0.7405872394450085 -0.058431404664015495 -0.10049619504454951
Ni 4.825965548213537 6.909666869221192 10.500247101895305 -0.33412411178048257 3.9617655529272677 0.036478297431692015
Ni 4.830721521075202 1.6891413536793367 4.769947247550335 1.995130030411267 -1.6485985461053674 0.3303775002538568
Ni 5.708375005232881 5.01751421301901 10.344457408043477 0.9381361510701973 -2.7025706079009777 2.038856781875256
Ni 1.1245646455559752 0.8044820985601969 4.311905260429228 3.256943129786694 -1.12792315936178 2.066399981600848
Ni 8.304876095436315 5.2695250406303025 13.15583743930113 -1.2629477272005025 -0.7810728582638806 0.9401300415717745
Ni 3.5814612120524374 8.931754190245593 5.145276178520244 0.10298296602214523 -0.23281184859254095 -0.697036094326935
Ni 0.5675250397372141 7.336292497327771 10.653494393848227 0.2721391854372539 0.9862929132810822 -0.7466938665633785
Ni 2.90597373055352 1.2953152181011574 9.493643587921923 0.6154153960306499 1.0170515346201772 -0.18170474550408064
P 1.450497410731982 2.967550574498793 3.475012878838491 3.174177519252688 -0.35263785431395395 1.0355207970689586
P 5.360139328258323 4.030176104739173 8.634672159661475 0.35087330621436347 0.2668897641128565 -2.6942088661998436
P 7.655026280144812 2.600300295087068 5.896884306131446 0.009871493477441063 -1.3007401154579277 0.32098654595726006
P 7.087932250448185 5.195779594246003 2.900416116172398 2.1767429875324895 1.4391515974910118 1.003510562710949
P 6.111313659126087 6.218378782570531 12.243721729915368 0.41457135859395705 0.7895839810586853 0.3695598268802732
P 8.217094955704404 0.48429272795522105 8.658478033196388 0.7056621454330492 -0.428209775312998 0.08000090330467513
P 0.4210522224093145 5.76164747468923 1.1427005076948729 0.8618587193636963 0.2153913391232484 1.7093758252937399
P 2.0536142192519247 2.732557212283146 7.709776631011886 1.2688448094112277 -1.895771034294954 2.1321587731642118
