# total energy = -340867.9354206939 ev
CRYSTAL
PRIMVEC
9.27861010370060 0.00000000000000 0.00000000000000
0.00000000000000 9.27861010370060 0.00000000000000
0.00000000000000 0.00000000000000 13.58018378304495
PRIMCOORD
 96 1
Ni 4.520585236178102 1.238026389082156 5.922264038847177 -1.1042854653381822 -0.6818704423300901 0.35258848913325724
Ni 6.908342760583789 5.518583260455522 5.0481484495248745 -0.8595154159425005 -1.526894606634951 -0.5460125799567951
Ni 2.477435291069948 0.9757200814154552 13.009884392434607 1.0834153067573922 -1.185945758623151 1.6078123653269407
Ni 7.984234716692194 3.458351394144171 3.882221500263168 0.6271784501038489 0.13538632205351522 0.17244003237270303
Ni 6.439680164183185 8.214613326987791 12.023786185616775 2.358886620346202 -0.8247191341989216 -1.2927900073729153
Ni 0.7522187769296415 7.271535395921521 7.2603602379111285 1.6690264749424157 1.5737033394583737 0.5242677320805358
Ni 8.335968268550323 7.409090790727281 9.521962995746998 0.6437127003134462 -0.26311898421651464 1.3705129132766913
Ni 6.957602901630924 0.9624609475754936 5.7961445309957575 0.25380721989728544 -1.4742214446109514 -0.7136986425842805
Ni 5.2396589620908705 0.2620594966379093 3.98423610692296 -0.4872070797828125 -0.18536651062638398 -1.949348196190462
Ni 3.3365789151269163 5.788405242307225 7.583106483940409 -1.0257778587495818 0.4342066163263812 1.720659111517043
Ni 6.13754078333597 3.7303445707604306 11.650018718342443 0.3394596650607831 0.15753251913325128 -0.43585675033529453
Ni 0.8609863560238096 6.626347242274402 11.629648457718051 -0.7728391575001787 -1.8346312295608402 -1.310508250588285
Ni 8.62431035617149 0.8576905937145344 1.7115509771777486 -0.3411103132903287 0.5617888689544454 0.06255442569345356
Ni 4.670778097946792 6.7021998798823 12.172095489534161 -0.3749349751492575 -0.8728280738910065 2.2232547579407838
Ni 5.355493130640963 3.5493931164938584 8.481802967152722 -1.1606309340074463 2.3038786395414386 0.5220429565150752
Ni 0.19808162424231557 5.502948802428696 -0.0740832066608857 -0.9667062493984062 -0.21891863555021654 0.31617678327344256
Ni 0.7347926192915505 5.456138214449264 9.434683749794864 0.33779976085985697 0.38743799271227464 -0.8614583986014841
Ni 8.957421737549002 3.3283116735234137 1.1905301118159701 -0.5384213978730985 1.0074317521422262 1.0303400241989675
Ni 2.6159556613266224 7.934965297034954 11.716928631531196 0.948722668336792 2.1272855042323107 0.3715678584492375
Ni 1.7142788885486016 4.524194615508924 1.4834446984968523 1.6580789747919769 0.6666790793016324 0.2869178864083252
Ni 0.12826657822970303 1.9731706676966838 12.91422470583569 -1.4102981635944292 -1.096205516543525 -0.622128032164135
Ni 3.4924224504495163 3.2939251444744992 4.988313476541138 0.40471632017674813 -0.13500245635153527 0.2863751265309778
Ni 5.519557514516541 6.73090789954699 7.187597377468177 0.22707648877066056 -0.29583935726767113 2.541248282707991
Ni 7.436407018876229 5.165309459319974 9.377782673326308 -1.2291973702229346 -0.932897271268761 -0.9775696744754713
P 8.34050550889164 6.854740230007541 5.402509703764723 2.620413577485248 1.6984818040890555 0.7365737474102411
P 5.6283584966070865 7.557075343290996 2.905371284136931 -1.2855436102231472 -0.044288794615046305 -0.3693348553536607
P 8.033615479670694 0.9207294707675079 3.9236143078023233 0.4340173831337106 1.217893515174341 -0.19243807276118471
P 8.117039463124225 3.8796002929085223 12.704818537960294 -0.1056492000003987 0.24948853791727355 0.4488320795490399
P 2.3356395714462295 7.095547998061092 8.982409034561607 -0.14863161709919565 -0.209298081741317 0.17614370647653535
P 3.815216017390332 3.189865532147579 7.040388516709235 -0.6408168668228899 -0.2977121488103518 0.11081891712679624
P 5.688474611477004 8.789664466851656 7.331533672443104 0.15907132437528088 2.907345862071277 0.2069663482843468
P 4.275054655581136 4.396984870970174 13.311159934681053 0.5555475160304238 0.9028426179752257 -0.581170873025483
Ni 1.2697221212006367 7.016874662981292 4.700698831952199 -0.6119271803717332 -0.39414548663943727 0.21727441507857423
Ni 8.689928686833637 5.541334412432839 7.404499734447356 -0.6341831635564562 -1.2136527376201165 -1.067599165660742
Ni 3.7494585075766103 7.487977533839495 0.7894918815822026 0.32235900082475455 0.42448141861881733 0.6644543037361718
Ni 2.643958506623336 5.13490345400608 3.8626120856673847 -0.18809445108050832 1.1953395411332253 -0.22362735387979552
Ni 1.764958656941793 4.294678915953087 6.685307242325243 -0.8139459548428175 1.8082756223854468 0.1762331808665481
Ni 8.297740394917964 0.7006909435728584 11.059226416435544 -1.0572587029666825 0.2707780434236691 -0.10243634949005583
Ni 6.1882947806100015 2.179211483687018 3.125845906006513 0.17338954077016588 -0.784536648442765 -1.0216116431870341
Ni 1.070677377229428 0.6220584343775198 3.8429887531564435 -1.5409294874614623 0.31469942739696766 -2.6372597025083095
Ni 5.465537446485571 7.557381537424458 5.042404062008905 0.2791714096936869 -0.3007028560075595 0.34521970747301195
Ni 3.906860849396841 2.881518761140158 11.42944945464979 -1.1257084110986484 -0.5706871998853398 -0.44132960052440773
Ni 2.7965916428496267 3.2302924363748096 8.952328708462398 -0.19100262586623878 0.24006261661768336 0.3965908628561363
Ni 5.823302094911911 1.169754375929995 11.953658450443626 -1.1239361496895741 1.2895653297880305 -0.27038492175030854
Ni 4.3277849968075195 2.413060294161863 0.25884260251452607 -0.002697601436821161 -0.8152700729708798 0.635402637785854
Ni 4.31006285150708 7.654844057966766 10.054550576465596 -0.4208119401870301 0.6495241647889006 -1.8642570228470732
Ni 1.1412133712471948 8.59798693930377 1.0126971984056687 1.5045470921776862 0.990653504242623 0.5866707197977896
Ni 0.3457024552899164 2.8241120004208837 8.046964616028673 0.9340444974993268 -0.6875705780386611 1.319370071854289
Ni 8.205176980511064 0.2678846080617917 8.582187322017075 1.9140253525194517 1.5992243665476136 -0.2630210251860696
Ni 9.257798182476277 5.600717517104466 2.938412414720628 0.42369697504430903 -0.16530727798266368 -0.268716275798634
Ni 6.084838277939903 0.28072063728096797 1.3070666711510057 -0.4346038517647999 0.44995745140273474 0.7176733109613123
Ni 2.307896527232454 9.150435384951997 5.518076648343793 0.9158917378497 -0.6275422612011708 1.0429708255891006
Ni 4.234470014982121 5.110714117462496 10.202493375283838 -0.5832287839957763 -0.25582939253363685 -0.2670843966221659
Ni 1.511123720300904 1.4304183696081212 11.09711469293806 -0.235667058653149 0.7974618411448654 -0.8415534321474409
Ni 6.04696299149153 0.31426745211538454 9.615869952897093 0.08642557588409631 -0.5917432492246906 0.7997665780186419
Ni 4.804649884540891 5.4115452142849145 2.118277923266856 -2.5931174607734566 -0.3492969628661791 -0.7498511812454377
P 4.856814230550873 8.805484497080581 13.208833566721735 -0.938971502487299 1.0368983941427756 0.20894301239474336
P 0.5835605531911063 8.588411413675471 10.930106206076186 0.09200281286155769 0.36670024594429107 -0.7500722961173082
P 1.9924794553250675 6.753204399629165 1.7211524829143423 -0.4597075888109632 -2.1081007037737436 0.4779377386657446
P 0.4790945377415892 4.498316571926242 4.751163336590955 0.7655413382871847 0.04706969979429313 1.7182669571357827
P 3.7663270207473944 0.5394676701114131 10.53509907241063 0.24227505088796988 0.8491106756694087 0.016210805431907567
P 5.933448475467674 6.343266126582737 10.5881022047741 0.7935067131518593 -0.0665270371879564 -1.9773056006353364
P 6.8103328020452905 2.5754359709983423 9.765509809503527 0.5822309388588812 -0.3569603929487078 2.1628621157853396
P 6.636368141187739 4.845893306457357 7.054946655963889 0.09762350148244477 -0.7949064217128632 1.9685072856174164
Ni 6.225307156318614 7.215260625635049 0.8987206075985863 0.6295250959591545 1.1437904654113398 -1.0298579423562266
Ni 8.025672989420864 3.157399675390388 6.583482847172603 1.1446214459530675 0.7358052446753328 -1.3333812985317166
Ni 3.698324087288277 3.095362888228748 2.837660626896119 0.6832349267777846 -0.534567571344647 -2.4884267680315855
Ni 9.092351285695061 8.902826395691523 5.500151301482055 -0.7616101215535787 -0.2792212890950159 0.3022000093783763
Ni 4.6311769900189015 5.278285815957743 5.862008744825686 -0.26490538669297603 -2.6795556350630436 -2.761386649597922
Ni 8.743299252157263 3.257154012628616 10.515150060685006 0.20113662897644716 0.061637313195822885 0.6682744488132103
Ni 6.887734967540713 5.705742104882301 2.678609476060241 2.059856524055375 -0.01312959540342255 0.018593703841787334
Ni 3.0780490017729267 7.955563811467925 3.1371583874464575 0.5570143303839374 -0.852446424910861 1.84375633179056
Ni 2.7073870853007174 5.893875203370097 13.118728983992646 -1.5114196509278035 -1.8036077845961327 -0.04872291912699996
Ni 5.928512254891844 3.077538678217155 5.7548881190251455 -0.8290882098008947 1.443403173678514 -0.8285225671054118
Ni 1.9105864425388523 3.272834863705967 12.906633874908836 1.4281974124723533 2.3681086531651023 -0.2064305303855348
Ni 7.5835750537507085 7.809750453668767 7.334140961882593 0.5936510077703647 -0.47053707532629935 -1.2229349342529905
Ni 6.633510329275418 1.8673017263992995 7.8459648689083545 -0.1541407198428829 -1.6641354653987015 -0.5990778352128907
Ni 1.198889211659512 3.083133680110435 3.365671997110961 0.5228880781241898 -0.944562109201199 -0.854925739689289
Ni 6.72936765026957 2.4417404779962375 0.5704962701633486 -0.5655863883236647 2.368983856681204 0.4355384477639273
Ni 3.4176646888340017 0.4242393948011741 1.699084236640749 0.09675035484887208 2.089396699606337 -0.21630459496613713
Ni 2.0137553082956985 0.7854027981089549 9.060847620805754 -0.8554813550824427 -1.1840050899570125 -1.8176784037565856
Ni 6.4599075342119585 5.1586938103151505 0.14550066863862166 -0.24852257445957845 -1.7985607090905282 -0.20700722882461126
Ni 8.855357026394643 8.017656270290194 13.012790453119475 -1.458094714252418 0.5176718240305729 -0.7946865923925733
Ni 3.5035196681350267 8.32443495618988 7.369911859559164 -0.6937013735267472 -2.027585579836811 0.047979098982439954
Ni 7.729434804600391 8.270526231480169 2.923881183435279 -0.10666195753562922 -0.763062537729389 0.6552474404259231
Ni 4.203442342791196 0.9610877132799622 8.23145214860624 0.3377131146833216 2.194869779040187 1.2705723336252956
Ni 7.645166467627312 5.864304272965649 11.560443944250345 1.9389020611564738 -0.1263416953527437 1.9404323817580709
Ni 1.6333879656537202 2.2984787379759384 5.834590451965583 -1.3945784388663272 -2.3245140564036033 -0.41684704200201117
P 1.6008293227954797 4.011634914701842 10.67329097986959 0.9681434960655648 -1.2779521710291346 1.1695210374082246
P 8.868319244711246 7.1291551238611905 1.4184229824644528 -1.0161333936812824 -0.23776970681844856 -0.0315417793620231
P 3.132319592276731 1.1400813808143917 3.8477143492828905 1.1128258987090254 0.540845691043875 0.48505198111302267
P 3.3893834852341396 6.965768078523273 5.352452530109573 -1.2334170647312372 0.391821466491951 0.21331980130620035
P 5.6565469141059 4.124388584697093 3.7344011790983114 -0.7553733966152475 0.501494185829446 -0.24403188567807646
P 7.592000031725996 0.8571116084439859 13.229448782652893 0.3023884712400986 -2.4715891276489566 -0.937831475345585
P 1.3157996989817768 1.7799807267016936 1.2194747360383356 1.1493047103613498 0.10394610126636292 0.25144848985712176
P 0.7991165838440586 0.6866774587313651 7.143258611220702 0.08225678921838737 0.49272132473282243 0.8136369082428309
