# total energy = -381172.2723299647 ev
CRYSTAL
PRIMVEC
9.21743503464105 0.00000000000000 0.00000000000000
0.00000000000000 9.21743503464105 0.00000000000000
0.00000000000000 0.00000000000000 13.49064788581652
PRIMCOORD
 96 1
Ni 6.457311031110042 3.8405918146045797 9.234982334152637 2.819423647036996 -0.039806590473976604 -1.0063632016683957
Ni 4.640978574333893 7.156711571851467 10.521194289340007 0.5844431160188516 -0.26640459694632185 -0.6599972964060827
Ni 0.5809924476654549 8.884694913165868 7.014246894900316 0.8532810049970143 -0.2951163630587175 -0.07794067834153674
Ni 2.0275223298548744 7.924514698491862 4.93927689610951 -1.5548180725180965 -0.23773756802893248 0.13373361694144065
Ni 5.951854542369729 6.20459661289254 4.211470063867823 -1.1578243177965866 0.1831378784061814 2.600150456360838
Ni 4.859680657021521 0.40761341512252913 2.946870228766334 -0.7324044465238999 0.25143897677542504 -0.7790874524027357
Ni 0.3103805357085602 2.6671385865185835 12.607510028999029 -0.4989045707253988 -0.9103324985943677 0.07476279483418737
Ni 0.9911415791848048 2.5130691587728218 4.065299056261777 0.945621660813965 -0.7258126522389952 0.08706089547525006
Ni 0.10891229143291331 5.05931186648115 1.6390323273404295 -1.0758135831507343 0.3590527567013623 -0.7253567956484992
Ni 2.3812321844953686 7.997129652232879 10.566293355811705 0.5249313338064636 -0.4443596455999831 0.45904424419535134
Ni 3.017336598384855 0.06094015043962483 12.465561528413645 -0.3039591581613281 0.18427250623125685 0.46303691029451227
Ni 6.494816774543934 5.123621911194412 2.464984565071277 0.46970969432899756 -0.9147491396048245 -3.09866961872236
Ni 1.5563823520028333 6.534884964936445 6.8171486366069765 -0.2809464993162387 -0.6274466161635711 -0.6115201747413017
Ni 8.839234523238131 2.126895497699748 2.2590357255920877 -0.4234552913471482 0.5033240399493332 -1.5950224126511239
Ni 6.246526725175847 7.775395033396383 2.301882050924627 -0.8983370167953884 -0.7557994284090724 -1.1585632528451402
Ni 0.23399472926692683 2.163064713043712 9.347090310335743 -1.6859795578569867 1.7861818758102013 0.023621496073681896
Ni 1.5567879191473628 4.475525614235992 12.44193908573181 0.7991574836797334 -0.4485533719663566 0.8947706396003686
Ni 4.407851205710154 2.386421600458328 8.577529418821214 -0.12717344722541968 -0.7324458412847966 0.03847450192611439
Ni 2.8430809877636385 0.8446553352982378 4.801146257143765 -0.05757805552478471 0.29526188749764637 0.15161743920039694
Ni 9.175145510694835 8.972343503559792 1.9685418061181361 0.10460841744071017 0.48257395188617536 -0.09143228507006834
Ni 8.088400694622262 2.213539387667451 4.605774424445207 -3.16249211249496 -0.33619796359037585 -0.6223656020962378
Ni 7.8850548588161455 0.5655845831473684 8.181416597476632 -0.6821815458126057 -0.21310228597875558 0.2665874023810893
Ni 8.58514670719029 6.809896358667976 10.131719864756567 0.3908344199883334 0.15877410484983623 -0.8599136798221836
Ni 8.166905589394064 5.183009845562702 13.01415837866628 0.48599634730416297 -0.7236076741678764 -0.09395607993318658
P 2.7424081615692497 0.6864104094508409 6.999164405841363 0.43081018905032253 -0.6735320976677239 -0.6302347204316695
Ni 6.1732665509776234 2.565129232234267 2.264593838959165 0.298664228310976 -0.08018962227671352 0.41679330594594033
P 1.080421655591951 8.267891808381952 0.34224428711593824 1.1847509669841014 -0.9957144637052979 -0.639817221913782
Ni 6.846314444759721 0.49320928271902736 1.0436551504533154 -0.7562216035481557 -0.11857670669534418 -0.8835192350562655
P 4.441881976110235 7.5410693982092605 3.5283309221350185 -1.5152444239905323 -0.03566994259778373 0.17102875384747318
P 2.81368658722034 2.379416349780088 2.8648608651683927 -0.07790082624253682 -0.6791741264448496 -0.5829228227195832
P 5.23498696210822 8.537750655890937 13.225826636626849 -0.006131052598402344 0.5054120328266134 -0.11495607922362137
Ni 2.6359099163897985 3.141126751817435 5.45107129322661 0.7190745621842132 1.1676970968256084 0.3077975580708118
Ni 5.848868139964501 8.874841475040817 4.940100013064204 1.061511050485133 -0.60914936051628 0.2004969385099192
Ni 8.784234087978847 0.33834899904143273 13.087480309679695 -0.01736394519974429 0.28483272174452234 -0.5651724407146976
Ni 8.463485781266492 6.351504093563312 7.7630178615401455 0.6713422891052567 -0.5094831175721934 1.4952463836020506
Ni 7.4998766807341894 0.3819382496432699 3.27009249506032 -2.068965428335179 0.7250858013752997 0.9515233710103805
Ni 2.010488509784628 6.325639970664443 0.5840102359181597 -1.2307870833075578 -0.39562155696433154 0.8462014724424136
Ni 8.020772373271939 7.294244921022541 3.629874795946636 1.5414470505278293 -0.4784236771632277 -1.006979752206472
Ni 3.078678628994968 6.816468389896379 8.58658186183582 0.2826488267193261 0.25904198593366357 1.3793572510411987
Ni 0.01946261421987292 4.50157408583692 10.788605907829158 -0.2655023968470266 0.39091181019348803 -0.8548015554065987
Ni 3.610533851870122 6.893516929921914 12.60613386593816 0.7130622945518623 -0.7324440415125837 -0.5846477758304899
Ni 3.808736358888795 7.996180256417276 6.076916701846517 1.7151988597334202 1.132348027902353 1.373187889005693
Ni 8.205655686566853 7.143005245853384 1.004375050762106 -0.10723068555490564 -0.486400267610801 -0.48396337603453415
Ni 6.42083764040768 8.620090003665563 9.764854886737147 0.009717741508396167 -0.29036984951266764 -0.19021689674014983
Ni 8.416393905325533 4.243458250649091 3.6468597636108364 0.23529887668045285 1.0502187654007655 0.7463511385119791
Ni 6.669201429256592 0.6002449043649806 11.927473475921877 -0.30776876171540546 -0.4540267363761019 -0.1348708158696774
Ni 1.80620249559801 2.422535511191675 7.593292620272028 0.7062897517147191 1.6293566671566198 0.2905701384489318
Ni 4.036489962847516 9.015859014680805 8.450974034857751 0.9363489772627874 -0.8034635672542549 0.12596348607771857
Ni 4.688448365114072 6.084871348340359 7.070435457544371 0.06906703000099074 -1.2187139541931076 -1.2071781856393662
Ni 5.055357586821986 1.0923674514853705 6.6441032752147775 -2.1421289970030464 -1.399476647498893 -0.8452568491409572
Ni 4.400154647399193 4.643163106453292 9.409335649585945 -0.2913720655249369 0.9023299400048654 -1.0096138473952097
Ni 6.848185584085619 5.606670815199461 11.072961937268058 -1.4762896399938898 -1.1499991653252128 -0.3768666449543316
Ni 1.622517448866479 4.64178049118785 3.2687034275903057 1.0255875971156467 0.4147256247836341 1.0504925878874423
Ni 5.975838308507598 7.957872596129428 7.228869340811378 1.0634005541983622 1.649575822416972 0.0303816976156509
Ni 7.558315219286874 3.033808154913821 11.39448450852906 -0.7316215456112883 -0.6239781979989963 -0.28829934013688413
Ni 7.625694669889419 6.743226650568361 5.794530438289116 -0.012116580757875906 1.1487043577731895 -0.40984387121130056
P 6.507776488298679 1.6587327513859587 9.897966632289338 1.091295223726101 -1.3509707294787054 -0.8753374705764215
Ni 3.699436013438047 8.100521621782638 1.2938937656021658 0.39349654020152874 -0.2976707540494551 -0.24272705082372392
P 6.309758329982064 3.883692541145961 4.3360289513879895 -0.3582408023230282 -0.4199917582785799 0.30665804514972994
Ni 1.4713699480483515 7.204411798509219 2.9494335974684636 -0.7897284770563496 -2.2624941630573807 -1.9082133738233653
P 7.677763960785966 3.6006251091344534 1.0071227681662944 -0.18044670472726343 0.04945696907954709 -0.14698765373786946
P 1.0202778915452206 7.537059813939478 8.891322249004887 -0.9144688893602443 0.294339375683377 -0.7444662627844404
P 7.910117064861058 0.20100276380294807 5.917430187490752 -0.809270146633703 -0.39314558462001326 -0.32185249350198114
Ni 1.098755134011713 6.512265379193813 11.860653523630083 -1.3358693550608929 1.9229725344104107 0.31961974751672045
Ni 1.8404544844405617 0.4882733462213991 9.138969843146297 0.21094358776453995 -0.04762017298112444 -1.0342167335455543
Ni 6.1839219059566295 6.25025978639254 8.72382209657062 1.179097625353066 -0.11883150301862759 1.1468171680528054
Ni 4.796891489100244 2.1614700967709024 4.491684699714969 1.7121811559530191 -1.190010415610828 1.353854993005036
Ni 4.681332505214597 3.7386193300606756 6.52986514977938 -0.017956584478420686 0.23798696503557726 -0.013245295045680413
Ni 7.120099919622561 4.518423557205108 6.357994089619297 -0.7150816389747362 0.02985873523264535 -0.22658592228748717
Ni 2.526425222236992 2.9009019581644266 10.195489767772797 0.4426416344676118 0.08823897494375126 -0.3935716164138383
Ni 3.3201846461272866 5.953034374062907 4.917908116310348 0.3768612456376929 -0.8502530168039679 -0.6435900586926528
Ni 0.3469709878367295 4.294366144722669 6.14020084603282 0.882294618620545 1.1690117018719737 -0.8511444182699858
Ni 4.215216029493662 3.8972053010068817 3.3729590708092103 -0.3412491528610381 1.9194740343388492 -0.3284301467194989
Ni 4.374189132714191 0.7345263424317354 10.582387919244963 -0.3345871674598302 -0.6823229564864766 0.045260671610012376
Ni 2.1642168924315808 0.06311546512392036 2.5768086442532114 1.1711215491261249 2.124709001754386 0.8136356226912504
Ni 2.7570823182531417 5.206606479426245 10.741996103744086 0.05834038761210598 1.482734110067653 0.5430265007452777
Ni 6.58531355238467 2.402893156987294 7.237220337014649 1.5839070194642528 0.6581569007632342 0.8213551028226952
Ni 1.8127007873455878 3.636444061944506 0.9441833560528405 1.3306955241694371 -0.6642334459746174 1.6379294964272952
Ni 3.781120923320365 1.4090324344471201 0.8732008100685548 2.1011016467480914 0.042300046319791666 2.282489118122069
Ni 1.2820899182093317 4.766492388130725 8.734249780902584 -1.8474605201150245 0.0832363795228373 1.0706078705800788
Ni 7.794843821463602 7.544682632769615 12.125556156284212 0.03467672544657899 0.644558079032877 0.2327635118531088
Ni 3.6297522040597663 5.7914988238837575 2.2365608535805714 0.29694338896512734 1.3337073144125675 0.4282151746296367
Ni 4.452159416250021 3.9888081710599703 0.9570425997649621 0.11662472517529593 0.1910213949193162 -1.1466726720551412
Ni 5.124921569543928 2.878641852390809 10.88925937740983 -0.26771380267604866 1.9197388579644614 0.8355625046713286
Ni 8.900346117970672 -0.0007751862921578558 10.415590135365541 -0.05701781214594051 0.006808281171085048 0.5467785115885422
Ni 6.026331418001542 6.479875312242057 13.22020123598352 -0.4968875402953701 -0.5050209680357819 0.6821877164601928
Ni 8.974334469542029 2.100810156358407 6.552447865781602 0.4447216569250922 -0.7062920657075643 2.161013749722691
Ni 3.5972146581463633 2.539504762648074 12.46601963493826 -1.735810879556817 0.9494428343322682 -0.09402755660107032
P 4.820312991696833 4.731558309090555 12.223350377495949 -0.2771425521891162 0.29273217909725713 0.13207319851988222
Ni 0.3308450851241235 0.003593877946639096 4.274794764768581 -0.4204895238506049 0.855801457426023 0.916735316796918
P 8.53347376600317 4.01914274998377 8.074814195280517 -0.773217880995836 -0.45438411971552073 0.16743640851052455
Ni 1.6102213904391476 1.3018705339402565 0.6376842822661314 -1.5532864663649184 -0.47133308886503344 -0.47313311818824966
P 1.3795274246825862 1.3672313662552547 11.109333014440777 -0.07980498524378514 -0.698379752839023 1.4722900319161933
P 0.4352933727366795 6.141835097276573 4.55464531192916 0.23741078081713304 -0.6435345228643692 1.0524355705464261
P 2.9774435392592995 4.836120892898387 7.715841185196241 2.3520595701220395 -1.428670752564346 -2.5924268624643356
Ni 5.931133748258303 2.400146361326616 13.226946554991857 0.2956017873355683 0.8304938318991697 0.6789802652664886
