# total energy = -340857.25370883034 ev
CRYSTAL
PRIMVEC
9.42268844377667 0.00000000000000 0.00000000000000
0.00000000000000 9.42268844377667 0.00000000000000
0.00000000000000 0.00000000000000 13.79105699741310
PRIMCOORD
 96 1
Ni 2.7546853373249807 9.410288396013836 8.21814584604468 0.6414784116662887 -0.9921791968585298 1.6002016428592183
Ni 0.361388377957711 6.443931780759045 10.543194271488979 -0.08877607839414389 -0.9454797359194619 -0.4399239784261326
Ni 2.0876626301769505 4.368641140785168 9.967445380259525 -2.2647929863938865 1.2591093272910185 1.4409089465017506
Ni 4.366059324093895 2.8908714564453306 7.088327785641546 -0.3558746160836968 -3.1519552175193777 0.7669469603854598
Ni 0.39669425007644354 6.6732140637837105 0.6812613319735171 0.17592490559750992 0.862985633879288 -0.2693636795746458
Ni 3.4990117821927473 6.61981568717989 10.54618691740558 0.5577344963794136 -1.173770813823514 -0.44385545227005496
Ni 1.0385875888523668 5.873142992837206 3.622814603883639 1.0734132012393578 -0.6161139647595713 0.08816055629733204
Ni 0.45520631981294385 6.666778367432835 5.8598343873818965 -1.2711608591389139 0.38804014507264784 -1.8025736869046631
Ni 4.40756626761601 0.5558170779190492 10.199548816267283 -0.017164684704744634 0.17694794754538556 0.6053001619735189
Ni 3.7621026721089796 3.9954367112549862 5.219391200389867 0.41922299843335536 1.1104046908620426 -1.4892402866172867
Ni 2.3717095796603074 4.5080309740479745 12.59032520641953 3.519274070884275 1.7574423417836635 -2.68641225297356
Ni 8.556018019927897 7.305881648098225 3.3937311395895793 -0.14832077072699618 -0.8660354764492052 0.06121822338053328
Ni 5.350268576722394 0.2987218447935373 12.74715737865028 0.21668023313800105 2.1435515883821856 -1.1232854034794526
Ni -0.15388004387536272 9.222729778350335 0.9351867726357282 1.7912006691810314 0.6159229317946876 0.9164800062530023
Ni 4.488714462306695 6.5525094221223465 8.244293807060314 -0.5492040903108993 0.033421769993555346 0.7128254959507078
Ni 4.839304439066598 8.730394296164055 0.9078666291515005 -1.5211528190551673 0.8996027708816895 -0.5897393314207843
Ni 1.6904114992010388 4.446887147370333 5.845298005594935 -1.6528763475451145 0.11177228217900106 0.04936260959352789
Ni 6.7604870060996785 4.288039462036433 11.126721592202543 -0.7522147963816078 0.07452831022587811 0.029937668099696828
Ni 2.9667806362442337 4.602050561440409 7.884498805754042 0.29387349179055194 0.22284239608465495 -0.5494426886842667
Ni 4.884033942108478 4.095939108441567 0.39167666836803783 -0.463342357350073 1.5545139110141164 0.3479250222193169
Ni 3.312056216603121 2.658102778618581 9.534833725570685 1.1441887292910229 -1.7102060345045191 -0.8202281883071035
Ni 5.797723792848326 3.079004858116743 4.494588566413775 2.046407597639321 1.0025692818436023 -1.204226302099894
Ni 7.0170573954671465 0.6972629418462203 0.6559548170547096 -0.6802439624702608 1.3338448684316964 0.09151841702597141
Ni 3.9961057221494407 8.035178904562411 6.576031279810033 -0.4606606967528519 0.8435308675887859 -1.5400347435613349
P 8.398319902609819 2.4498802047362385 5.324409892248447 -1.207919948901397 -0.18648776871502076 0.7880078948208171
P 6.162730483249281 1.7733876954906538 10.674705794767938 0.18502789634004263 1.0171410090101902 0.9448927530677406
P 7.232403521972127 5.783457842225741 9.2834505263074 0.7426382084367662 -0.6870090491082361 1.3104367739204013
P 5.204716305079687 4.570098224213736 7.981105863450943 0.5021747568362384 -0.49784527622294905 2.0613104828930826
P 1.252520312059205 0.34344380968449467 11.641790253036147 -0.3796025558282559 -0.5723782144345174 -0.22297197968398372
P 2.785459838469868 4.0262677485318 1.3041349737007704 0.5554937799743529 -0.7426546634969984 -0.24778441074197327
P 0.9482522727237569 3.6934489625738745 8.04837820682933 0.13511275667715442 0.7346315360822058 0.3477085353331366
P 6.1352068096901204 1.7735949946410479 2.533720461575451 0.8080763834359179 -0.19919261787619888 0.042010797214147
Ni 3.7257216712147936 8.34186857488201 11.984897672735682 0.15599062856742812 -0.22117323591234814 -0.0911306946692495
Ni 1.1973693153656872 1.4627216505589475 9.595058840104533 0.3387898926872681 0.3094716033391251 -1.130232010000615
Ni 7.3034411717367655 8.204400970104677 10.223213898822515 -0.10535943667412177 0.6787578648430375 -1.4299218513626277
Ni 7.72082858836688 0.03343829522745363 3.3732236000023983 -0.6279153282698734 1.0171505220918868 -0.9797173169460932
Ni 2.0440167363303123 6.759761459073299 7.269831383575805 1.33718318877631 0.5088136023089948 1.3147827095939226
Ni 0.9919452800136666 3.6978776262413877 13.816846435943837 -3.0710171471124146 -2.196120106507521 2.0640494790907997
Ni 8.571386425123032 6.844584502339153 7.913708198313454 -0.24030995674179906 0.6289789936476975 0.30283044387352365
Ni 8.754751946335377 4.477435503987518 6.3665036635490715 -0.6397498590109563 0.7735343837949904 1.5686855745288082
Ni 8.997084653146224 9.757947916602257 5.9130395988683055 -0.6427541930549189 -1.0847900756177318 0.23739124043310728
Ni 6.385153048933629 5.394460986510982 3.8598131266472966 1.604009703751399 1.3167552599392613 1.048024071742292
Ni 2.284587400362808 1.982552538238425 7.253323775322366 -1.1732581358531535 1.0329944311026789 -0.0602867127051994
Ni 1.16041353046359 1.9259881382467647 5.14602237745216 0.5926243662780633 -0.08264219758226413 -0.7326715841423576
Ni 5.861553085792437 5.589520064343291 6.319338395490059 0.25111964576279333 1.6532260175750495 -1.6263047677041733
Ni 1.7859387167781586 1.6571022948081486 1.0052491741246485 0.0724742559103268 0.8266142943391054 -0.5742049832306111
Ni 2.370578857021793 0.4804836243969231 2.877242479575776 0.17886136251801457 0.07437790069094287 -0.2763524521876531
Ni 6.617865190628453 1.6185446528348233 8.522542033945825 -0.4155175245573102 -0.4851563679013709 -0.010843884693039388
Ni 4.797411165309656 2.6891034242911713 12.328115337892473 -0.5894937910688816 -0.40309498252324133 -2.0736831455258224
Ni 8.397198602659959 1.2624706712781277 10.515225847025336 -0.8051067592846328 0.062156933144718755 -0.1100622414664298
Ni 5.3228485527384315 7.213982165653004 2.3937690360688495 0.3099395441144791 -1.543143978614278 2.203729286313347
Ni 8.380124690818398 3.7510027448742345 9.458775667291047 0.66061976048143 0.5257065214095914 -0.1266049763164594
Ni 9.637149048054349 2.103605819379997 2.735897438417206 -0.5353509864778909 -0.32157018637487195 0.41774795654972574
Ni 8.656727716264873 3.366585315845456 12.020574798787393 1.1161423646767683 -0.26939041904752314 0.3249727842985178
Ni 5.913396718768301 7.67937818097669 4.704087914608773 -0.07867318563218709 0.5436841889339347 0.39416142747903726
Ni 4.513467865401496 4.464827946568088 10.4846652409129 -0.006847619049452722 -0.7083641177452445 -1.4906207119045811
P 6.974165316712851 8.50940397915516 12.488188915020297 0.7230667140627418 -0.7649641256274761 0.42838563876923
P 3.845625384340543 6.319938620757336 4.2787995735420425 0.8359132031425281 0.8022286664058894 1.578044904256521
P 5.22333553786055 0.623770681687141 6.834558761610996 -0.39264421950356254 0.11055100817739025 0.05230112339656154
P 3.495987099134723 1.4658876739467865 5.136851274584945 -0.34777949778038814 -0.11750661355961699 0.33986204270552434
P 5.152891517481132 7.990147875483593 9.80313818911933 -0.3403204703991817 0.1404907331596161 -0.12982116926091192
P 1.5969572731278612 9.092856860628354 6.5097926053770205 -0.11759968749405551 -0.4884754049722748 -0.8411487405098546
P 2.250279390972564 8.115695779113258 0.9131028172366854 -1.1581313075140443 1.7288915267291642 -2.474355377540184
P 7.758679528691134 6.790771527434543 5.508134417898519 -0.5617338473467939 -0.9494402632291068 0.34525775979979895
Ni 9.781598865124506 8.678409322858377 9.803331354236747 -0.5900123825765129 0.49804402249731644 -0.22206977958468851
Ni 1.8486561324610653 6.960737985380497 12.391182335324453 -0.1721376706409358 -0.035773043834551294 0.8140477705280045
Ni 4.189883314324768 2.315757654431176 3.2797345099812 -2.7696236927957334 0.9680015711710619 -1.5029604644168566
Ni 5.856549638117014 6.658062380427623 0.2015098504850318 -2.7517239296971767 0.11274107385017358 -3.114259245630501
Ni 9.23864469948742 4.77751044687181 1.7790742880935133 -0.9138669941101875 -0.8179229372126947 0.8322781774931021
Ni 4.44049856446273 4.771234936228058 2.926517487624483 -1.2323945370039935 -0.5667066179710368 -1.6185140680151608
Ni 2.4016077707603474 8.314976221462686 4.584105993167193 -0.28686080791814467 -1.0333024492614011 0.5945547505315567
Ni 3.461820430074293 6.025715167527354 0.5206845832715555 -0.01271719045635229 0.0029858221012013094 -1.5383804957873635
Ni 6.754805124841146 2.9376645283025 13.547355655893618 0.9342519855244427 -1.4679428106910912 0.07134271340904488
Ni 3.0120283871621005 0.8006232405016455 13.067936795314628 -0.45581648128667307 -0.10744100179349883 -0.40256019306569385
Ni 8.862453277653831 2.294217388167485 7.661635258240675 -0.2812899986985865 -1.7830551572557614 -0.7190123414877101
Ni -0.2764522624280052 8.360732797567884 12.453366426829529 0.170916396639325 0.29334821541470124 -0.6010411295868487
Ni 6.565597536663145 0.9608409847658789 5.139292693215271 0.3132439258973637 -0.08208272553436832 0.5411881619849583
Ni 4.818404915631398 0.12864419912146235 3.2000628506026416 0.35244733556970265 -1.454873893322275 0.3545944638196925
Ni 7.607294612771425 6.567566878591891 11.711352309757523 0.01907167191947038 -1.0908589075196309 0.12045001245865708
Ni 4.472535705887291 1.8533203633449353 0.8004234795021746 0.4524910164578659 -0.5767922843418131 0.8426824035455616
Ni 6.803661765513602 4.036887118645177 2.068769197156248 0.0013477722771460662 -0.9356141559792919 -0.3406454578387682
Ni 8.678032415312206 4.207155102628068 4.091999482315212 -0.20591502420169697 -0.16229625907048176 -1.0106057789948335
Ni 7.3284678328025405 8.024927019306551 1.2835793784014522 0.31028252927619465 4.083359963403013 0.15739753621728378
Ni 2.9836001354921287 7.004496951490988 2.408718131618869 -0.3512669421083563 0.07742517215769891 2.7185842097204147
Ni 1.694491523388343 2.4003828212352905 11.610015062356172 0.2664740167316766 1.075747248689173 0.6226980457349921
Ni 6.185495699038029 8.067159509855047 7.302764622691388 1.504492327680351 0.42855456024692645 0.5328382473583662
Ni 6.460864352270792 3.30142742380109 6.5628611878779415 2.967211685188974 -0.3373151079139545 1.1250013577292948
Ni 7.4202636656725645 5.107643766563266 13.47900724147091 1.6334691466630966 -1.493181530653222 -0.6999581530697365
P 1.5756148833259105 3.5810834003715515 3.6476518689074635 -0.04931710106757314 1.4157396463249747 0.3959234044754665
P 0.09282573273993686 5.425263755721832 12.586091592407161 0.2313828294554983 0.34515080190828945 -0.37506455874858635
P 7.415420403704263 6.180068230373162 1.462458757545493 1.8050095500396652 -5.446660418091665 3.5042575428707843
P 4.418308132681894 5.607498554295663 12.208629992142976 0.4451137501571883 0.17049370727960958 2.4899275209468277
P 2.085957123530525 7.472342865864786 9.354970617731137 -1.5023966214935867 0.08183667096183325 -1.0473375871982287
P 8.105905605601457 9.293993572642677 8.130186931994679 0.41067459464271205 0.10578032626162429 0.46256665552631304
P 0.44010740351332095 9.219130311284399 3.48848946577251 -0.23995128785079964 -0.3127914117409774 0.3643610562881532
P 8.80943180859618 1.947679167528924 0.6791308620687837 0.6756236900894299 1.1453531819127696 -0.5906199342535248
