# total energy = -340889.89150400774 ev
CRYSTAL
PRIMVEC
9.06307971639086 0.00000000000000 0.00000000000000
0.00000000000000 9.06307971639086 0.00000000000000
0.00000000000000 0.00000000000000 13.26473327507938
PRIMCOORD
 96 1
Ni 6.657085976453487 2.2575225803166106 11.205291133942715 -0.11514582663692427 0.5878418572877554 1.3354788044906933
Ni 4.892033033493833 0.5634263027622899 5.925608420356007 -0.34524490428399246 0.3769862012513314 -0.3811141073767759
Ni 2.688988626649795 1.5565024106393472 4.625054637466491 1.2812771216373096 0.5562411996633387 0.5128026688637298
Ni 3.7153099243342207 4.3659212434284775 4.592290697203523 -0.29345671596810746 -0.9145033421426056 1.0983634434267924
Ni 3.7280163623991927 2.683677661809514 2.593533549879677 0.26409703185906774 -0.4884278395637911 0.6268125821239979
Ni 5.146225236352799 4.469675382492529 2.6813593259628523 1.6671518836275223 1.085102464651828 0.054831603127899115
Ni 5.376980314507046 3.1889715572705604 0.8200682561269353 0.3531176221638499 -0.653863415594203 -2.5109928262575596
Ni 5.797190015564413 8.161874452999589 12.061105083630318 -0.41571601372136147 -0.1940205867569562 1.0149249751954776
Ni 2.3169401323522427 6.941204469248644 13.39923802115079 -1.750922281276959 -1.2037437060365204 -0.30671306675738147
Ni 0.8293234733537181 0.5906101047109897 0.11976225714833107 -0.2942483586314674 -1.5438816281112508 0.9280317156463437
Ni 8.139370825527887 8.873942517114228 6.723004475724502 -0.018440466093374693 1.0129609094905716 1.1759739921224197
Ni 9.074046258937708 2.844792033764584 1.1334541529472086 -0.9811180539483619 -0.3848905437000726 0.6276453624379383
Ni 7.112406049168275 1.0153821602062365 4.769547320825869 -0.24752164399888982 -0.4448702666878145 -0.5021624155410642
Ni 0.9008601758747149 7.967272000694967 2.4990890065220017 0.6746811236705026 -0.8942602756228534 -0.7235739927164635
Ni 7.955190915145319 4.175243104734507 3.6931806020637197 0.4719876917298968 -0.16749734365544702 -0.9423275634437255
Ni 8.02150547100937 4.3260618178865755 12.497263086444413 -0.22675715775802882 -0.9625418336080713 0.20264149565674777
Ni 8.395402833613096 7.140302209199647 8.767909013447223 0.2503282602097495 0.5037948089381646 0.8046778992773302
Ni 7.145821624878368 0.9041645748180023 0.2510155933427235 0.5925989123567665 0.25260651472096496 -0.1447495084359701
Ni 2.1570583392679548 6.764891312247241 9.026146975187933 0.4632197157292796 -0.5564031791624998 0.021509591937001665
Ni 0.41652555906492006 5.352473746370324 1.2135409650762614 -1.451164562791488 -0.5868658665277312 -0.6490415687255274
Ni 6.671396579666462 2.2369312627106073 7.017348841607181 0.30969528931415696 0.34827777757304534 -0.08460626328717041
Ni 3.6064532712683297 4.663326211404268 0.5610508695120551 0.12706520378232955 0.18567555722637052 -1.0586370713714477
Ni 6.102833323198591 5.788897297426432 4.750326340905618 0.30062418025082416 -0.5216243809204177 -0.08659783979590246
Ni 5.47352024194505 3.153154265378428 9.29162724410248 0.8959723732179538 -0.19529713947653463 -0.6375394816231987
P 0.6360904524268548 5.688859021134591 12.353260715709366 0.5313796605349687 2.0146858410560076 1.1780727836329774
P 4.372292588620828 6.4355571136702405 12.555932934385636 -0.15639274910185325 -0.44622858048792186 -0.6500353000973643
P 2.5577189769115245 8.796444120613817 1.1201015172830693 0.8437283283115727 0.6209977752144338 1.5279539011374008
P 6.557083952481375 8.063830054292836 5.476305326408221 -1.888201963698445 -0.7916876576652494 1.4676916139122336
P 5.073847480014093 1.5747010751432444 12.485018865455984 -0.10731990283460227 -0.20923149016943968 -0.31747519036989197
P 4.179575256942108 6.199980476992054 8.147623666114168 -0.05819794849697074 1.0328638190620858 -0.8841643248394321
P 4.940475195731547 1.2040936105549156 3.783234989502228 -1.0433634330418289 -1.09806673812198 -0.4189574034767946
P 0.46734949870882186 6.035793720939962 3.5399991439733216 -0.5846755437446317 -0.927458359641377 -0.45955075151812463
Ni 0.5551888694118954 0.3209309108638461 4.449601566750656 0.45276663871675576 0.689631831443064 0.6806160010976988
Ni 2.294209927882236 6.560491670535891 4.535968186964743 0.011415698036109373 0.44221071757778035 0.5184598671495071
Ni 6.258265144036159 5.7895679653414165 8.889082392141 -0.34297153486878357 0.2852986056373473 0.7174144008729709
Ni 8.661367977304014 2.452886331335539 10.093321918282825 1.236076099620639 0.9334765408109987 -0.7296140282629563
Ni 2.5152403212692107 5.489407821066232 6.6018184087188185 1.3013001017264556 -0.7825147329167298 1.4231588216071813
Ni 0.7244645448459293 9.191775667257241 8.968949877735696 -1.1370518611359255 -1.0756204933033218 -0.5816017899153144
Ni 1.5788972811518622 0.9557289680923664 11.121617154776489 -0.8502463319357486 1.4651001990359735 0.8103921760532882
Ni 4.291277717106716 7.2705024155059155 1.4542527428440444 0.7005471928039869 0.06463290548903708 0.0730949202134612
Ni 5.760611424957974 8.204878767277972 7.713919945345718 0.5709851907417327 -0.45459032218905576 1.0283139949078741
Ni 5.647640133602856 2.9410419426447576 4.898824905595038 -1.7563719915376204 0.536666877075837 0.21117910081411373
Ni 0.9586110275108123 7.495529627142999 6.54773810445527 0.3106082880467296 -0.2119298629372092 0.6650538849933837
Ni 5.193579828998647 4.818323004405089 6.852733401874295 0.7008120164295996 -0.5722036365298662 -0.4006925437293357
Ni 0.6925489088646175 7.667075604100054 10.979471809119554 0.5171632598252706 -0.42289479085798776 0.43455551502536777
Ni 4.815866909743458 0.8129020788245294 10.387241225716684 -0.46583684163715255 -0.695602190093886 -0.2824768199178361
Ni 8.402716739118397 7.513610471607777 4.78270600657946 0.4341824479566652 -1.551633761252844 -1.93032511812074
Ni 7.611890510392768 6.25589968017385 6.703492570938425 -0.9982403154509453 0.16039389984144636 -0.20618010493762554
Ni 2.348452461276571 5.709704104978696 2.281082962908409 1.252024652530095 -0.14127954760949862 1.1400587662830495
Ni 2.6421959449597447 5.409725222302155 11.40227173842155 1.2547263677319747 -0.1649324111417482 0.5650302587098786
Ni 1.3838507379305616 3.895719593464986 3.88250834184779 0.4595049858818538 -0.8060187295759408 -1.1941702034154724
Ni 1.5764683757300273 1.3931041425413577 2.5432207679439527 -0.500830326993202 -0.030949654303978957 -0.9957144637052979
Ni 1.381358390949201 3.5510234744028737 7.998223324971491 -0.27618250226869206 -0.6493501011048817 0.2332263104221403
Ni 3.914797376722309 2.80847627247618 7.11333320224534 0.07316202600597077 -0.044616610268110264 0.02563749806244617
Ni 4.458337469497322 7.166938601120441 6.074876440531672 -0.32881632641432407 -0.8261039303615901 -1.2535302905413441
Ni 8.425465069748268 7.432305581535834 -0.1901579179058613 0.41626905801135405 0.7719145888033803 1.47853369883306
P 0.7390334458369724 5.668893056043911 7.8716646641819885 -1.6059298035922471 0.00596238823102199 -0.24086660057621745
P 8.71017266273902 1.705889157162125 7.947021454894416 0.34116173535355443 1.0034488562350783 -1.0777948752468212
P 1.7709439449155981 3.21420317180186 10.283206131174733 1.4151698898644338 0.07722051234606055 -0.3151172316606767
P 4.219099348526519 6.116237618418344 3.5687309199744446 -0.13453580112776184 2.5175367980236643 -0.48766602169710205
P 7.113584249559462 4.347686326604851 10.375860716245796 0.4591216344005061 -0.14643255256534782 -0.8565239374143443
P 6.469144887899047 7.8905077136690664 9.86244902008946 0.45290650672872973 0.03326261870787175 0.34600620793004927
P 2.63748314339499 8.486976193248243 5.569238148033202 -0.3372130351184515 0.903776956864037 -0.36900266882522254
P 7.23520171916992 4.120783057421799 1.494391311247859 -0.17401509016930677 1.4096985823372172 -0.4273512839674446
Ni 3.150272205959982 1.7580471821720496 0.28673681658757433 -0.24598438141875698 -0.4649312991037477 -0.12785478956316046
Ni 1.4507997093898686 1.106928330601588 6.645021204447717 0.47276133667112774 -0.28169777565996645 1.2905001828974743
Ni 7.042348441292216 0.7940336527136411 8.95301879583084 -0.044441775253142815 -0.28720070775606665 0.8844129505151286
Ni 2.605073569557373 1.5217092467795557 9.033243366774862 1.7571160687924967 1.3040331843869024 -0.4914252316292182
Ni 6.397265600956613 2.32019377804791 2.6882835190310685 1.780523134862527 -0.5378614116045705 -0.2661444013063997
Ni 4.396744778277957 7.03615835769851 10.223607317540457 -0.0727863878341069 0.36386123383359914 0.11720528026911427
Ni 7.458923847296763 6.477691372275131 11.22784098312207 -0.2733602023285486 -1.204748236041635 -1.1090530619301544
Ni 8.005309747170493 4.289465101120272 8.072492546092052 0.04901319667390914 -0.8731180943275995 0.44193998041489696
Ni 3.2926713178550187 8.616097893042577 12.086865075721665 0.9140827096654193 0.3272824062683008 0.14422166095695807
Ni 0.6039437079072714 5.167695672712228 10.383872478905879 -1.8012146017736075 -1.332334859545073 -2.7888853692388227
Ni 8.94874917887477 2.5006396994984046 5.678221684218144 -0.3670974813827097 0.6972950044152766 -0.24833694081133362
Ni 3.8765330532484774 3.095241184611544 11.252035781309123 -2.692879348755143 -2.403453608323299 -0.4339114536834657
Ni 1.6053886637937402 3.03643085893137 12.503258313819575 -1.0253518269557567 1.7006919243664969 -0.4993102908042497
Ni 3.2381478289827843 8.646848923252598 7.616941364838994 0.32851627867540195 0.006310515599060099 1.1940601602001693
Ni 5.895886956026286 7.7361815885832295 3.378939150497845 -0.8288226148443338 1.1352618591150385 -0.04415046926496912
Ni 3.3505753355419703 8.587422308137034 3.481634721825813 0.6615211892497769 -0.03994105916931186 -0.866714504794101
Ni 3.6117370468688135 4.429834083110491 9.18194131922279 -1.314821276141342 0.1941350008476334 -0.08679170097426343
Ni 5.406399071967031 4.399907793174302 11.732550309927488 1.704353432378484 2.6874026419112877 0.9556294227589542
Ni 7.991180405556163 0.14600621770805972 2.5085200474994696 -0.3468158483155382 -0.2250764276214962 -0.1868389814068524
Ni 5.0160250300465306 0.768278192162259 1.2060358285843904 -0.19449855483463924 -1.810716370616456 1.7345114440191032
Ni 6.385592354003914 6.006664982037807 0.3707878198789801 -0.7356106121660234 -0.430255087877801 -0.5839659192721168
Ni 7.766397897077249 0.12822989272900395 11.28690870027232 1.4060036499841333 -0.3872916969423975 -0.7066605047905766
Ni 0.3181902354923429 4.925439546123995 5.738416848511961 -0.2659487403558259 0.4610301642771286 0.04182799177937958
Ni 7.561626669088677 6.254648975143203 2.4898564469950495 0.3711981338146446 0.24096687359950755 0.08846728890447345
P 8.571335341257344 2.055760294865535 3.3736988776810355 0.8444634067053844 -0.2900104092907199 0.3102159377043174
P 2.0815085049529714 3.36861992768702 1.4870565606587136 -0.5700310543585796 1.3140525162961176 0.11964011496285204
P 4.9846214580813895 1.287555513650727 8.209211825793567 -0.4821245230535826 -0.6036885945120248 -0.600509682563411
P 8.729658284593292 1.944628808736657 12.316796319910074 -1.2261403285641657 0.4263392977631625 -0.992171483549046
P 6.576098294179173 8.01880467318957 1.2557513535525817 0.2097742500467871 0.09473563841168846 -0.28305094725375124
P 2.2089444718799127 3.259464192983365 5.926178488083743 -1.148257757154074 0.32269787222141194 -0.7559554943709625
P 7.233642869421577 4.0189865436231065 5.678765469014078 0.252692646676868 1.5443837645586498 2.626491665358528
P 2.6391960655021798 8.586679135582592 9.975994910712283 0.38346898076219765 0.23561537947960715 0.30133020517891335
