# total energy = -340856.7797546879 ev
CRYSTAL
PRIMVEC
9.41764143149219 0.00000000000000 0.00000000000000
0.00000000000000 9.41764143149219 0.00000000000000
0.00000000000000 0.00000000000000 13.78367018477470
PRIMCOORD
 96 1
Ni 1.2920721419518622 4.965310143530762 0.5014677419550732 -0.6370265465425222 0.2895414400741014 0.2290025021487798
Ni 4.130040695846086 4.907523496133103 4.151007190810461 0.5158982770699179 -3.2196181680839904 -2.0997908983564675
Ni 0.6136290252849134 8.935260353863027 2.5556436758496925 1.5835930877682598 -0.554591836985374 0.48756009224685704
Ni 8.005334192848188 5.652976898147721 2.035944321981789 -0.5020667705034644 0.12009828554619317 -0.04410393229774985
Ni 0.28693198819885535 6.845702341371112 5.974876588723942 1.3089216228274554 0.5798069027984207 1.4141681880727968
Ni 2.439037265796956 1.012773152076964 1.1813413983449201 -0.19592860241294643 -2.4614106444540576 -0.7892327683668537
Ni 8.858337059217643 0.8113533474457008 8.963809933652142 0.46023903583440084 -0.30305824361361355 -0.3271091139152302
Ni 5.117301457473204 5.712948438341381 11.579688843653631 -1.519722514366544 -0.06031422350902516 -0.2504737846486783
Ni 6.895003693901546 2.1313817577808662 2.085289937426625 -0.05211266153483928 0.3277606314563 0.14553883710648483
Ni 5.653447780215825 0.03172144139985901 0.7502950114388587 0.27405002930672157 -0.3110520604523675 -1.526173155087894
Ni 6.853754424735681 6.707404277969119 12.582451042962715 -1.4297351892731185 -1.9539602410411767 0.7756851115894061
Ni 0.0911947883654647 5.211411947604366 9.51438502472559 -0.04084660170271675 0.349362783107108 0.3219275697142907
Ni 1.7505040881746858 7.737204525628705 4.403124042422018 -1.937213103489825 1.40689248034699 -2.214059464594761
Ni 9.044203629139448 6.253323282055572 11.594382247706731 0.3056290896645833 -1.2684426888768026 0.6842129744203378
Ni 1.915237470880007 6.319943677050852 10.752958371391944 -0.06233999568980232 -0.654699538342253 -0.36045349370363083
Ni 6.5583795210557305 4.055236370507167 0.4200851941247487 -2.208611296995996 -0.5757139636759698 -0.9774087234175748
Ni 1.312225894466691 7.465976454401102 12.813493096734232 1.434769666373232 0.947163037159156 -0.5457230737408344
Ni 4.227098907723575 1.4289387238668194 12.76716583534594 -0.6136017398606787 -0.4344971509836066 0.9249643895749297
Ni 4.042701489854252 5.586460097207424 9.467699892965538 1.7988792687722115 0.1814293803555069 -0.14228536316619367
Ni 2.524596537571358 3.8221120762304963 9.589547220436266 -0.380458476070648 0.06712764688643279 -0.22064718820554904
Ni 1.8138188910518795 0.284991954078269 12.037141355174798 -0.017188595964144588 -1.369344861110519 1.5263497898750746
Ni 4.4058269054929315 2.633916518502262 4.895780639118739 1.0894627985030527 -1.3374708952200578 0.714415466145647
Ni 6.684406397762946 7.386830596394268 8.371953553432196 1.5447200648521462 -1.505568591463665 -3.3963174899536797
Ni 4.198742389582383 6.6372428498217015 7.1333114579839005 0.9092387513095568 0.04423274456613027 0.8895628701471842
P 4.255398920016594 3.311412220448186 10.77965738465341 0.7778517802234217 0.43963781464428153 0.6349241554875388
P 0.5899926289943911 9.064997781266898 5.90070607064869 1.1587751117456302 0.709098681918424 -0.14391595679108118
P 4.347428111406738 8.707278091770046 3.8928668157837247 -0.3428188113410031 -0.4432106195972045 0.22621954008700396
P 6.949070372961188 6.1107872800406495 10.40802124651583 1.4577545573041797 -1.93564678744397 -0.4961828009188616
P 4.961222887179623 8.623348071951282 8.355233472957979 -1.6919982532472406 0.11451950590683503 -1.0087998361343464
P 0.13970411725734896 1.879252663235539 0.4310991256976891 1.486381219901937 -1.8044788743471762 0.1306107550417428
P 8.098681854029023 8.19022132806834 12.728185275984199 2.3128291638665073 4.223962539550144 -0.09042698373400555
P 2.222111314663045 5.365004260578357 5.946551148799244 -0.015482154795999143 -0.6747932237683346 0.6958140489943758
Ni 0.8602911790195591 4.255822713877887 7.228914644270949 -0.7542660224836816 -1.0413751989672067 0.8182124434286554
Ni 3.180130299860936 6.237689997394536 13.576597983953778 1.0299900970587164 0.27919737783561593 0.049745189743927234
Ni 8.730586754141168 0.5919599742749274 11.412148062058277 0.2539005509420401 0.5385196140138596 0.6505158392782088
Ni 6.803379461089971 8.829123535712503 4.538548783444442 -1.4481224335310545 0.440062560886526 -0.8456085760534211
Ni 7.622243377521922 3.7115678019225236 8.642071284743214 0.000583640417611898 0.955243243064129 -0.35880284547408525
Ni 3.569719287727031 3.5653024139282206 7.166874048270044 -0.5750012538796613 0.3565945249688568 -0.026161488886716235
Ni 3.7624889887672337 1.0863060958320034 10.570834372147424 -0.11860524594043444 -1.2379882290416873 -2.559335479227005
Ni 0.3972954437926765 2.927709258433385 9.022721047428432 0.7404368299100732 -1.525767435009043 1.3748513927510453
Ni 9.066080810023536 6.804688513239299 0.27724594405796676 -1.0059903917100095 0.06168102194956475 1.5108933461106882
Ni 3.217094542207059 7.9704606668844455 2.018246690334188 0.14671974478846345 0.32795834928940293 0.04255407131212671
Ni 6.154343871340221 3.4010399132910023 6.850635301916564 -1.4914133830092056 -0.6683675227476489 -1.3897419367096324
Ni 3.4872207493953016 6.653224587213133 4.924725759845059 1.9807681052626405 3.0212763282438613 0.5646006273716275
Ni 7.00359851644757 1.9939406997428226 4.752030703132245 -0.4051114987326378 -0.5979856305899766 0.695438667932828
Ni 1.1059701309960048 4.498025614427593 2.951179904235935 0.6392358954890152 1.4305412301141813 -0.4738833660907129
Ni 8.416046950289406 6.284326157419506 4.233378590983803 -1.0551835656052084 -0.4986734285511993 -0.881387019204611
Ni 8.56677630028933 3.610733115858844 0.9591669956799278 2.759319225545932 -0.31187789878777256 2.0990733034641527
Ni 5.780105638894299 6.075942007000991 0.9070384672126002 -1.6641187532281534 0.7506063142439073 0.09652178377783377
Ni 8.076814090786296 7.994070693779154 10.496347421322406 0.5517289136152821 0.506782687921895 -1.5070374626997078
Ni 0.9500893311710289 2.3235864003393445 2.58376286942856 -1.134383313164827 -1.1088237195281676 -0.813406794509896
Ni 4.667675005923915 9.17572099076075 6.099742270251213 1.5872941907689309 0.5928591079966886 -0.1710074136912345
Ni 6.185167811518275 5.573087046473286 5.519519502405834 -0.325900952539742 -1.060636875410296 1.3902823825941346
Ni 2.118667941942072 5.787263046329472 8.330532883193541 -0.5824703085631968 2.0179984503690087 -1.1079608573072401
Ni 3.396641874774916 8.002998617790396 11.164042183902826 0.816080227577001 0.3481497366356133 0.7163481643919857
Ni 2.659240556124867 1.0864191075283482 6.5286904066618066 -0.2623296555459998 2.8660871125318064 -0.6668042920255871
P 3.8401468594388595 5.009714322552921 1.6571969228517087 -0.31013340529284006 0.9753359000489462 -0.2069105553457469
P 0.6968442461242965 7.592041001673764 9.167105732442728 -0.22872559433830927 -1.4685758162893998 0.2692091562746525
P 5.9309385829492065 3.7178305334282995 3.786594383597587 0.6814148428499103 0.11201782253090387 -0.1791855786266527
P 7.928533327540511 2.428800289636386 10.374982277089416 1.9402740018033358 -2.330248387784219 -0.6751596059688179
P 2.5455790425260494 1.9515330606894232 8.422263535352508 -0.19193285098999205 0.005617603297093551 1.1529351080250854
P 6.262853935113986 1.2226829603961333 6.905618317480735 -0.4129513064920307 -0.8596182600689517 0.2432109324386779
P 5.841649925195424 5.199686984108588 7.956361516001291 -0.6268472920166752 0.45092932839770083 -0.06240401615851833
P 0.5291282963996077 6.648638195869805 2.7367477445347 0.3631174136890391 0.5395493408299546 -0.8980477676897437
Ni -0.10488333008523286 2.9689208570338015 12.25260757189759 0.09532570658720357 0.6164731478712029 -0.2961674300310512
Ni 2.060984888599396 2.3249048701300343 11.477827634681486 0.0671495012633037 2.9416196956524825 -0.15746387067884493
Ni 2.5959728414544836 2.940159380314041 0.18480331821202786 -1.0611917194725013 1.1873313261167682 -0.26369156889053297
Ni 8.239409668902429 3.708525903762575 3.5506043010544386 -0.9237202327551833 0.08120006581909886 -0.5608915539511566
Ni 2.1492376058033504 2.603657636805932 4.7718096335208635 -0.9809257354318978 1.7998701719305712 0.021310588552318138
Ni 1.5148558660129803 9.47386468100115 9.737901441284677 0.6888111353139815 0.6662828723044784 -0.1660492983550108
Ni 8.408993136909215 6.077580676597992 7.670971195693406 -0.1425249899808255 -0.647799211677994 -0.4378802085232265
Ni 5.8051659825587665 9.100897830139107 12.153475595392171 0.39049529148135975 -0.6283038219575438 0.1760480614389355
Ni 3.502543251891389 3.0039073946938903 2.557036545007143 -0.20078078829892518 0.12740973160594188 -0.6944714189235522
Ni 5.727950741031157 7.71951819515074 10.216594501133857 -3.9024221779719435 1.622208743257929 2.652132505855084
Ni 4.354321824883773 3.9911775739623696 12.93678791568231 0.2734645891168968 1.0767052417270684 -1.3562432907315547
Ni 8.010297289846 9.112848817027574 6.800146384810373 -0.19793611976127845 0.7605336006599482 0.4403458964548997
Ni 0.33465117698046193 4.469998713734074 5.0844235297140825 0.07733004134073135 -0.060902234802011235 -0.16400090046641433
Ni 2.544043966984032 0.831267891869933 3.462692502467791 1.2730632183679493 -1.5157583875124732 1.0900155856827292
Ni 2.6129151782648465 8.424927786093837 6.411776981500666 -1.3029250389243883 -3.213444178062795 1.21971462754348
Ni 5.275272973680559 2.5145384965966677 8.981467069441885 -0.25309502432160924 0.12000855404586429 -0.45245913477866595
Ni 6.79072215109935 3.9766179004166102 10.985708785306539 -0.5447313992515264 2.5872651157577375 1.049003919157058
Ni 6.710097723398672 0.25156874488428405 9.126319811231877 -1.2266725469185518 1.1929016211156938 0.2234365780252281
Ni 5.960378129847035 6.438747222833361 3.453622372071982 -0.20063603519094478 1.0585725366820995 -1.2951132561894534
Ni 8.171725080433236 -0.03218102229832801 1.4661685436993528 -1.4789502175451883 0.2591394307434763 -1.8007839419940923
Ni 4.918683401147155 0.9478761854509425 2.5752992351364683 -1.0095259156670935 0.4095085993590689 1.746832170367985
Ni 5.951261853008552 1.8365342420171913 11.168370531872833 0.7252477808744606 -0.9158143476445454 0.3355922116855769
Ni 9.365090923269245 1.84312659097064 5.477934023443343 0.13760698385391784 -1.159500934168061 -0.49300080364645416
Ni 7.527662005322657 1.6877731790619404 13.31531494200452 -0.8310468761891622 -0.5550523215615601 0.36753405469949607
P 8.223060643497876 4.75407244777954 13.051440165152417 0.2828128631010161 1.4035711292832407 -0.9132159907897498
P 8.342174971445333 0.5826167322796182 3.5439196592156414 0.27837899569937863 1.1173808650695596 0.2536902347034469
P 3.451819835515282 8.817925960133003 13.289484235276635 -0.18225727557344096 -0.9109251378730441 0.6965015619797037
P 4.93539971456483 2.5700084042192577 0.6040192640390575 0.6023637050530142 -1.2374927774625075 2.45772856761678
P 6.621138683092562 7.823460702863901 1.8245719539590906 0.30383060300326387 -0.3618855981644671 0.4731557438960689
P 2.0678032609455346 4.668710946473742 12.229892220932278 -0.02512327743018899 -0.6335941238222056 0.2998628766047674
P 7.4160158669753224 7.276568851327158 5.825034380540325 0.1769862569824887 -0.6302408910792566 1.4649166222702579
P 8.1730247149412 3.4677073964930933 6.292025079232998 1.4223805486802599 0.6429007459351122 0.06421124457058619
