# total energy = -381163.64785083116 ev
CRYSTAL
PRIMVEC
9.27880171644363 0.00000000000000 0.00000000000000
0.00000000000000 9.27880171644363 0.00000000000000
0.00000000000000 0.00000000000000 13.58046422766428
PRIMCOORD
 96 1
Ni 3.5257126634529348 6.366751830692886 4.323571766041596 0.6670333773172576 -0.43040318341989103 -0.1703589814739582
Ni 2.8131378106270075 2.681852045839336 1.080116537780905 0.08606176478677435 -0.3122597076072235 1.0897456198507942
Ni 6.322482667939195 4.404071865664778 7.8848036822761545 0.2713971650649068 0.5981416965518667 -0.7434943857894745
Ni 5.248832527040084 3.9891888067241346 0.6905599679905866 -1.727159374529406 -0.15334136387003913 -0.2831594478071575
Ni 3.3906875415934254 8.255219939987597 2.713661633714458 -1.7079007834101103 -0.06584055264389306 -1.427877567239089
Ni 7.329845049728604 2.5808522896930493 2.761899339941164 0.9901235998810819 -0.08957080638129734 -0.7378356448418002
Ni 7.481451390167206 4.298135787031599 0.6626521162164767 -0.6421677244238296 -1.9971154362724124 2.0203962611772237
Ni 1.679843532611837 1.5646100947082326 5.926921785590101 1.2221175805580178 -1.28069065300622 -0.38105574333501474
Ni 6.178661242099282 6.623338533192955 0.4184711715453078 0.0575492591693783 1.2150421617684752 1.1526736268335827
Ni 4.257837951391423 6.028799316374093 1.8873045475656598 -1.1970837775178416 -0.16082404540032946 0.8752616230331636
Ni 1.748386040526639 4.868364543482682 2.0262870783361833 0.0665568619846273 -0.12252360715823415 -0.7695640862933327
Ni 4.40607608682487 5.033007600263546 11.853490976716852 -1.3891469834381107 -0.681584021437923 0.8564118373165122
Ni 7.568542222614522 0.5802693477350418 8.883524716073005 0.8575328382948328 0.7203565142204303 -2.610453638059059
Ni 0.19190788759944463 3.0490791794177996 7.613208518079565 0.0021471282499898508 0.42017662059587635 -0.21443257475440486
Ni 5.009003340350781 4.925855998611978 5.680667028746337 -2.227921310178518 0.7730862405139783 1.608179518858372
Ni 7.070669561563417 3.883698110570976 5.104040538545795 0.8866343836464796 -0.5251570766640246 -0.10451662905785225
Ni 1.882975058707795 1.5437142333539435 12.608265819524709 -0.10020591749764034 -0.3511584415549501 0.05571914793917501
Ni 5.129664877229634 2.2720908854189266 2.7115024565665258 -1.892149121271651 1.7601998499241427 0.21517690911959714
Ni 5.432562078850156 8.2326631731349 9.24408595853383 -1.7214183582805709 0.5930833081923528 0.02856572745283468
Ni 6.211805121654131 1.7181649834969233 0.689891894270556 0.5357585063289546 0.11415518058888083 0.3232450029741336
Ni 8.814453316463178 7.5804190887484 6.627687507534321 0.11204044823872317 0.4938814064791946 -1.2477764187767029
Ni 8.985971965279356 2.198463594190559 4.863083049573773 -0.8135839435177085 2.145497399254647 0.42557285191078326
Ni 6.463743144518988 9.049828678352277 6.567430969508232 0.22676641372940948 0.07587042607606932 0.5672653186879844
Ni 3.0155827053996007 1.845173220716066 4.055384705697329 1.154226058922367 1.1446389294545642 -0.4391590752356501
P 4.124585080650327 6.485539049634985 13.47721167744529 -1.209647216005149 0.848177622332178 -1.764987501120773
Ni 5.1031738984700885 5.799640751601945 9.820509242977861 0.9048354800355385 -0.5749140934824938 0.5053490407991619
P 2.0754823568949337 0.10848960485196238 1.154085288910622 -0.9707307971767669 1.7194301242059484 0.42396025600802467
Ni 8.760218720719031 5.502607752635025 7.708488820878258 -0.46306390687770577 -0.7128272957229208 -0.21587882028262823
P 0.09129320172234247 4.693162210404668 5.691477760568664 -0.3560895603079803 -0.29202718261043253 0.21602691582471828
P 5.270526365337743 0.2671682479212204 3.0133557929994996 0.06874178545108806 -1.152438113784009 0.6625149206216138
P 1.342364237178067 8.447755074579739 5.5346502384319916 -0.09749546054501274 0.5486677581914551 -0.706239358092758
Ni 7.236361122932662 7.290428700246801 8.46019423609464 0.4377416260628332 -1.0412155334608908 -0.4462558341814315
Ni 3.7166147289516664 6.27145853757186 8.26801726324685 -0.5195109341218407 1.05021979384203 -1.0998983920140801
Ni 8.094947198791933 7.519216112952266 1.4750009954884675 0.7940805833774582 1.6438168084460076 -0.0694023018532224
Ni 8.653410434729144 1.9269936938164751 11.333916126446587 0.9660627022771362 -1.0116812714471994 -0.8116011087597248
Ni 2.2888391224280262 5.929460465726216 6.506617703382116 -0.4316537679975405 0.36148784850541615 -1.4838232293667735
Ni 6.823630745978784 8.0905583256034 4.440431777877441 -0.3085652894747718 0.02925452598974317 2.374782722751168
Ni 7.467895060931586 3.1276613507363944 9.703282718476167 -0.7718793646900707 -0.4969435903442861 -0.9956730689444012
Ni 3.009904078779341 8.443319807382869 12.978740533686656 0.841901302405163 2.3598937214544775 -0.2540579024555108
Ni 0.004530838854040577 8.409674872537996 8.818311442196354 0.6730515584868796 -1.0166689544697782 0.05250269788440635
Ni 2.7711883482900888 3.1311780165682217 10.14584258702941 1.5297593297772558 -0.22099351580137425 0.46870902097862505
Ni 2.0313245397612474 5.241437322111413 10.911101547840913 0.34006361719336914 0.548735635314913 0.5345454598574602
Ni 8.665806913756379 4.717955168459135 12.222078382619712 2.3398486298781447 -0.5991089455611425 -1.1354654904854122
Ni 3.2860504951936393 7.339420773049043 11.131879498947344 -0.23167413544367196 -2.5094511928020524 -1.8819274435436428
Ni 1.6294967547662007 4.9628969748670055 8.50655855226476 0.8800955540866972 -0.3617732409563189 -0.2700812744669607
Ni 6.598016683443463 5.220244539103777 12.461066909877976 -1.9352310400627895 -0.4585662761176683 -2.148248736747539
Ni 6.123211123336746 7.388932458744641 2.6368647038366113 -2.3809034909369253 -0.4435127242186555 -0.6246705960803306
Ni 3.787319197654901 3.810618268640966 7.579229546374679 2.0166149397579205 2.4976652559107175 0.8759537640041817
Ni 1.9329506844867477 7.310090480979368 0.8966514318183466 -0.9807038492290788 -2.8667705117520756 0.9357758783681368
Ni 3.7569218433935103 0.1689409977130608 6.801734629804782 0.1616192876081152 0.012693022086636205 -0.1219116846058481
Ni 1.5877792624709592 4.649765255007683 13.214565917456607 1.7647900403979864 -0.14110188438105375 -0.7474132612279063
Ni 0.23544588078176942 3.0935153606014993 0.7853104512140872 0.13548710929743762 -0.09317806411658147 -0.2506859006594844
Ni 2.580091427956348 2.176166633784539 7.938758986090123 -2.152306965977312 -1.0567318839289348 -0.12730431637632916
Ni 6.488730957408465 2.939366628506115 11.962718246301348 -0.17333863292757243 -0.4573342034827801 0.7101142676671318
Ni 4.991271550364971 8.707292436009944 1.0699209905091054 0.21182753303139001 0.756414179174936 -1.574839509945346
Ni 8.926643307419976 0.6870479415595926 1.7337774951819707 0.18741465140466432 0.11983963256816779 -0.5443750443533721
P 3.2788315874966423 4.157404202146829 3.283186129119008 0.5749590877878162 -0.9323537400604653 0.6845826990549306
Ni 4.204753927053995 8.579439827839096 4.696314219330979 1.2890045721885544 0.7044115608553998 1.594280392278777
P 3.3682792355674005 3.201984552089794 12.656204748337734 0.027271948342075615 0.43064615266863254 -0.624231451660383
Ni 1.419758721883274 5.55698153040418 4.173344255530725 0.14465514894995085 -0.5008220994630859 0.6464959194855383
P 8.149905541066115 1.8452103359227343 13.33160222652413 -0.3167329128872287 -0.5863354479455579 0.8461400230768589
P 5.084003894225878 3.5452723773671626 9.385146012997614 -0.06492523991847528 -0.3500487534305391 0.7104521106225249
P 5.345684658841181 7.242448016826274 7.100301414687272 -0.25081599847944547 0.03876966456903 -0.09663876897167228
Ni 5.437925226213734 4.726575175207863 3.499400765565565 0.5471796036817027 -0.4254214139345835 -1.2450006558037785
Ni 3.1457642927888894 0.43245246989728064 9.130363109541628 0.7397254056653454 -1.3442377816302462 1.3581762460882094
Ni 0.11248784049031192 9.007443112337006 12.957583010125353 1.311034298295084 0.6206231654838343 0.4637323936996401
Ni 8.666669842311418 0.06115936542829746 4.495310322457285 -0.7785781168664849 -2.293418106329747 0.6155159261642561
Ni 7.668409964957424 8.772559526936261 10.890513742701973 2.4956513108044827 -2.1169121314177866 -0.6173324105477045
Ni 7.2823004699864295 5.376935662855944 10.254513128513882 -1.151606876131965 -1.5540523979966654 -1.1833065212280913
Ni 1.2487689647621194 0.4287622904742785 3.5844688192494556 2.976030569032184 0.17490726296627299 -0.30077484689607553
Ni 5.693036599248736 7.540798605629921 11.564648375981474 -0.12363149551043225 -1.100056000637867 0.7334076909774337
Ni 7.11898428184396 9.067597583544757 13.05726332067458 -1.5219087233845854 0.3093692734333059 1.3261145896669744
Ni 7.15362204846721 2.32573163785638 6.9156885209584935 -0.035639089359848296 -0.3942277619405985 -0.09657449139264013
Ni 0.8035414407295878 6.893045461250292 12.249049075425447 0.2725868144976338 -0.38223999345110293 0.7850259293743578
Ni 0.8038578478664355 7.673040086989302 2.9494730992819105 0.30900957610104196 -1.0420809667849793 -0.5963177559692504
Ni 6.217994082366081 0.97010799309604 10.430285180014254 -3.2647037475687193 2.3927701604675247 2.56687832457127
Ni 4.5164659902582525 1.250856695137215 12.714533151377404 -0.29582753019312924 0.44541842588180064 -0.26496760738947917
Ni 6.846029773203141 6.08728360328177 5.928578979567844 1.080891511894274 1.5072624342263201 0.7915943266204948
Ni 4.8719647185295125 2.705049050007064 5.814448791182456 0.15547537949390644 -1.8250122184138378 -0.18362664511714183
Ni 1.924933799846381 8.005388205101172 7.551294786075735 0.6586626367550592 0.5979336943061185 0.12583081715459618
Ni 9.068998682596487 0.7501484322966455 6.809448097630635 -1.3094139890828416 -1.1782285924845515 0.38407936065268694
Ni 6.69981441653312 1.1580872360696384 4.425642295900265 -1.1967755022488034 1.0314175735338622 1.0703235065704404
Ni 8.65738176184266 6.598276489890142 4.3214255792159975 -1.1807791268205472 -0.6821298666390639 0.41203959331103884
Ni 2.3902100306409966 3.7656903109689113 5.735681971710686 -0.3270810888907722 -0.20678405707021164 -1.2832087914423838
Ni 8.838615316004283 4.137037232487564 3.226283877895572 -0.7777746471285831 3.2902934231123657 0.5245798640043159
Ni 5.372890105329092 1.1334520176435114 8.245921652837007 -0.950400570259847 1.9154330315002561 -0.41347966819167503
Ni 8.889286851908267 6.679020621997169 10.26723807712013 2.431269087873671 0.46616954238622293 -0.2854027353153794
Ni 1.3921171717170095 9.033924812294883 10.63649077310252 -0.27895543702813896 0.2107232442236177 0.768968618801179
P 7.318701208926428 5.682430928943251 2.6367561418571066 0.9855820032569864 -1.040739879376053 -0.3679811695392437
Ni 0.5398147003466914 3.780109568759571 10.070348400905624 -2.1720391542989175 -1.3076854364275092 0.16355789939172474
P 7.770662359328767 7.029035578483179 12.314180695847424 1.3236982669159978 0.4169434583705594 0.12102311135330769
Ni 0.9055488747369203 2.5507889722916746 2.9018190296800643 2.138183124981421 -0.9616864275863114 -0.47908470778599427
P 1.8763221579124907 6.924008822413375 9.505808477756634 -0.8880562036946705 0.6346238506383006 -0.0425800394540557
P 4.318437805079195 9.138125755016317 11.066815613777536 -0.08142323757349848 2.020736932346094 -0.7323941621112547
P 0.44415396667964924 1.1976984403864501 8.820538354596456 1.1306248745636593 1.3581415361955318 1.1957470609842888
Ni 9.144277600521598 5.660300986967239 0.8695907346364422 1.3872245696044172 0.7851601409593768 0.3503315747782806
