# total energy = -381178.7398790278 ev
CRYSTAL
PRIMVEC
9.10242202677304 0.00000000000000 0.00000000000000
0.00000000000000 9.10242202677304 0.00000000000000
0.00000000000000 0.00000000000000 13.32231472311014
PRIMCOORD
 96 1
Ni 3.8661354728815187 1.8747530689947507 10.119097156656894 0.48169489171533175 -0.9562637139088436 -0.8265559302973443
Ni 3.2437573589939275 2.6302176970052007 12.133511419286913 0.1268317476152848 -1.0779218877429888 0.6152688431504566
Ni 1.3649628145685944 9.030922615034797 1.4150297773126865 -0.37292848624219 1.0554774426965434 0.9338938308540754
Ni 4.271693891371634 4.3813507709036825 10.394989751264722 0.720951724602268 -0.04789733790191106 0.12721638464821317
Ni 8.013535789918453 2.261087171923175 8.831909077829451 1.132991575023623 0.6789722948466886 -0.9583241959822979
Ni 6.6718023566535685 6.9300198679480935 4.172228993910809 -0.1496142927274391 -0.2843925488833102 -0.1211210703837527
Ni 3.717447407209068 2.730144087268571 4.579452245410504 -1.0726359567537012 1.4217048627694742 -0.9630997629940703
Ni 0.033928368288184386 0.5100869933879513 6.87737874022254 -0.6625408887635428 0.25594817749968823 0.2973609361185201
Ni 0.2975108471925871 7.712263821897225 11.5388165018566 0.7567695056318257 0.8630429694797846 1.4154300855043558
Ni 4.985196353312295 6.8583109863216745 9.349774090936846 1.142619327921374 -0.7399763453338869 0.5204432161281229
Ni 5.96712924418963 4.329767344630907 3.2811792368998094 -0.8675449711151962 -0.5387091043168464 0.23293089066890849
Ni 7.687268570698171 1.8914105015126927 -0.0436115249617291 -0.6632962788723287 1.0768901040443648 -0.6207038981230988
Ni 6.625407311001136 1.3557966754726556 6.989499645428144 1.4229415633900526 -1.6914958596895255 1.0409090579640654
Ni 4.782002983859825 1.784429734090084 2.578534144088875 -0.012291415772843348 2.05359614496796 1.1203980546293284
Ni 7.408233819967288 8.225795171823313 7.882440885760034 -0.6478686314633487 -0.8074132959306224 -0.013959547503885636
Ni 5.689059350205689 0.55004207537566 1.013139634945375 1.5543059087683684 -1.4648222627842384 -2.316197566118108
Ni 2.151921823186738 6.247847943016589 5.781405243310075 -1.4842466900574374 0.7364372218323768 -1.8390663825140585
Ni 1.4120678491480207 7.762217914606769 7.538898179558439 1.3195963289324824 -1.491692090591889 -0.5821448069029781
Ni 1.6477204559551262 3.6521284259255973 0.3059087418598294 1.1490023486295824 1.4235146622847032 -0.573594860450438
Ni 4.547206004733968 8.731343697531786 10.86015082993379 -0.008485411763191838 0.17731021598081076 0.5630790485207786
Ni 6.6140383857470875 4.286694683059923 12.322342076843178 0.8713512322351638 -0.19467441829087118 -0.8617795293863287
Ni 3.097017211659641 3.2339176406595587 8.50792292559769 -1.7822408888845822 -0.20644158612912833 -0.13868967539513535
Ni 4.187314438125009 4.679955729237612 12.724862106822641 -0.11076260996756408 1.091125016696824 0.5695525720602642
Ni 7.619246170038838 6.7439117448541905 13.158570676025864 -0.9100023689484587 -0.14250287849363844 0.23164559619858172
P 8.234032863860874 0.9090843859988683 11.286652101285808 2.3005269494603864 0.9129573378117245 -0.5519628840029591
Ni 1.1434189620799642 4.92309052704458 2.4924052053067594 0.46706454339666653 -0.10916672623535392 0.11967559618647776
P 4.905777720132489 4.968711866815031 5.04834440691515 -0.03134637552176537 -0.060373873102367 0.8042950620166148
Ni 8.889898788805027 5.216898508910228 11.710275186756855 -0.7360227600027776 0.6122385409645649 -0.1731242029239212
P 7.109747193121191 2.9252180961713132 1.9383972046042868 -0.3352194017271904 0.0514716855167307 -0.6305949319845656
P 0.06438780349845198 5.987637001273196 4.41065874971312 0.9820107409659603 -0.4382679308799484 0.09158475148753259
P 1.646855725851736 5.6798385965769045 12.54475794137291 0.6372384054430121 0.15204347099422202 0.854118156186329
Ni 3.189033597082524 4.32146593563836 6.431614012893626 0.40209636605539784 0.1570506944008263 -0.5657691937584322
Ni 2.709736456828557 0.6971308454779452 8.21294073127586 -0.6808566563535952 -0.2890336471997474 1.193233807644132
Ni 2.168834123524627 9.245148120122101 11.071656531285377 0.44724133802315236 -0.3775225333707756 -0.8828299222987247
Ni 8.033470094407138 5.8843791245062365 2.568435916965703 -0.27568165137287365 0.9232116685498809 -0.8730394185708642
Ni 2.4043319891553363 5.5071201364523406 8.633233240485534 0.7402180290310478 0.09452892171752107 -0.45688323198829056
Ni 2.227544746333767 7.383821123785255 2.9820135693619974 -0.2156970432891253 -0.8375052302199965 0.7664520230269123
Ni 2.894907030441943 1.5664540310807071 1.1363445595920163 -0.5244076000925098 1.6761240052191455 -0.30356603648796754
Ni 8.724571495458918 2.626531216038115 5.929402435142027 -0.7633602714754659 0.5613247848338332 -0.3094345794536026
Ni 6.703697243835464 8.877792567357561 11.902848760297479 -1.7473800724516553 -0.7415637444256648 2.0025206664483837
Ni 6.010675231711945 8.489692594533793 5.836826250757475 0.06423875537441194 -0.13732287695459577 -0.9686212070329318
Ni 7.390138204751076 4.873482326376392 5.333749032660271 1.1267422516798016 0.25410238254020107 -0.7301398188594393
Ni 9.046651600494362 8.249625312988325 3.3235974343188595 -0.1274369852994515 -2.252885693433339 0.5770355107008707
Ni 1.342443422191879 8.582455378572234 5.196408956670945 1.0558970467324653 -0.7548342362823258 0.48646300252793645
Ni 5.505900411885452 2.732173927406004 13.61886924078724 -1.2786795361134624 0.4336008644215823 0.5597088464969651
Ni 8.536579170981836 -0.2078237715955732 0.15474299688061174 0.33132829420290033 -0.5071596116453394 0.08913474728514327
Ni 6.115343983910752 5.160081189906406 1.0164829545977465 -0.051701027918717404 -0.5644684726691376 0.7673084574899366
Ni 4.849570263412111 8.972967493263356 7.7718255211765435 0.06255262592124065 -0.15430501333488908 0.8398917281743019
Ni 5.945647527936984 2.105899976842085 11.1882667510909 0.43779176257447827 0.7424433188171408 0.21073327152594676
Ni 2.141481344991066 1.651552575676467 6.271386806673092 -0.6176296300731493 1.037564566971865 -1.4479591684803128
Ni 3.0363950802009008 6.523096086136836 11.083659895362652 0.21898394157051318 0.03885476808366857 -1.2716177441706744
Ni 2.9457076484105964 6.099979095336825 1.072191598584801 -0.46972332117575233 -1.2534788684781188 -0.14933121426938153
Ni -0.23093482141145025 4.596222547962994 9.041601576690562 1.2438578004485867 -2.703052432633403 -0.10585900201835963
Ni 0.49086085734183255 1.3488151176905456 3.832949862240036 -1.1663914906403074 0.9153435786557138 0.648543031822554
Ni 3.1291396593950602 5.126238384386347 3.776316412163461 0.326360922895296 -0.2115539676550292 0.0110292612309681
Ni 1.9549454080565374 4.2846466380782084 10.812390420960215 -0.7416830436123485 -0.412159920938987 -0.14124586615808576
P 5.592346114958074 2.3906055365667807 8.717802934354905 0.16618839503603636 0.41188352734914874 0.9442152673847416
Ni 3.8693941400079797 6.729866707490702 7.112038272774069 0.38421768600276407 0.99169171569915 0.38063331108561543
P 5.921344060820642 6.213886806008698 11.652975439379563 -0.5242003691777102 0.22409195222103984 -0.9714010837709143
Ni 2.6712969281273167 7.858339492415222 12.922166209149918 -0.19125870774110287 1.2874817077861247 0.6193540689634236
P 3.684178054283889 9.119989815684011 5.6321946986067335 0.2612801312355629 -0.03284558577511118 0.5449378588353776
P 2.1431743955092832 2.5830580478929286 3.000171991290982 -0.3300214024660187 1.886186990150945 -0.38415469397531254
P 3.131788464238077 7.8988270660981765 9.146874729719528 -0.582376720408126 -0.3806726489639831 0.03229588391922825
Ni 6.817695978728747 0.5363893524064461 9.600779753169096 -1.147833525132462 -0.5574359913023883 -0.13962658538710793
Ni 5.087953596861502 7.223572981993795 13.47019300826357 -0.1506890138488566 0.16334398360870578 -1.2057008297628913
Ni 0.20476626799842743 2.395730200232137 1.5983844177089526 0.5690314094494716 -1.0635692185657426 1.303522049078439
Ni 3.7596917483652263 3.8414223967688343 1.7825792116688286 -0.3475897503670852 0.38347720829231374 0.1715386036043562
Ni 4.686727931310481 6.372141517351289 2.4619767183317713 0.5447056882199135 0.11940614457517498 0.6210839071703368
Ni 0.9490822493706395 1.5485950788401595 12.657810934605749 -0.01290488098712616 -0.062098311992641445 -0.5594427373197721
Ni 4.867656776206183 4.722636986656536 8.162901986040405 0.3050680749547907 -0.4292117342149511 -0.044253570501736686
Ni 5.814590853951557 1.9837909838212142 4.937343099632883 1.5975014703192358 -0.032614700711227705 -1.366215828563234
Ni 7.649884922965281 0.5003282866106367 2.2477412005801116 0.24985826255186644 1.3981414736272373 0.003493357865239145
Ni 4.216351164754646 7.083541319777391 4.61250496068873 -0.40761472477046573 1.338622749436314 0.964666593260558
Ni 1.431956641526001 1.9624093942121181 9.845523859210584 -1.2956691286929236 0.9790177197759073 -0.2775765544027413
Ni 6.160073286311389 6.02573974035522 6.643198905317841 -1.1072980269122608 1.977604619932994 1.1368335744775324
Ni 7.4369064497112864 7.380307588838848 10.323767849222842 -0.6829374501420238 -1.8001463084100933 -1.0298304315524005
Ni 8.503437251966629 7.294098548741892 5.993789328398265 -0.2668385991599469 0.23951882829907137 -0.501346347397672
Ni 3.8680196742646955 8.634475721107775 1.8257966017518545 -1.009482464023668 -1.1096207615081666 0.00966271990074465
Ni 0.3441152485542612 5.211591796802053 6.822716874781697 -0.19996292038332011 -0.8191066731081507 0.3830385780929984
Ni 0.7158299512821028 6.979045513599261 0.9195339666166812 -0.7243280972736686 -1.8379556659483829 -0.3177760094397624
Ni 1.3527837737440005 3.9594808119369813 4.7982981399765565 -0.4670781702434214 -0.44591207768876756 -0.16226643427381085
Ni 6.813162972502553 4.432697534200793 9.976548674718517 -1.558306031066697 0.7211059907919452 -0.7461374798392764
Ni 8.45400199731912 3.1028427618298497 10.992122297344382 0.7026878932960737 -1.4141543041157258 0.7862857699233877
Ni 8.217430045875778 3.7236370542649158 3.7461546261572027 1.5932380670571915 -1.9144344150324126 -2.1264475817120476
Ni 5.662280024267008 8.984263599140277 3.376660914431753 0.0946533631105273 -1.0360347605908995 1.106420509403314
Ni 8.622287577861039 4.476079678124569 0.8145047585010927 -1.4275795763826962 0.0964284527330791 -1.286136763722456
Ni 6.583954880571241 3.5548508405052432 6.982944991244445 0.11926062013624623 1.3375390294538319 0.6638133277180632
Ni 9.415636486822132 -0.4353570178529497 9.135844414569123 -1.0290863542975244 2.1770360932928767 2.286889304072294
P 6.503735234243031 7.461155302294783 1.8448607146838643 0.8108449473199906 0.3859107574344709 0.319988700820365
Ni 4.4581843161954575 2.300209382284987 6.740797806239771 -0.417052730254914 -0.8857167569282165 1.4129502565052956
P 0.8470195206307873 2.9335923245409887 7.691385596232523 0.37835737056724517 0.21889626695271336 0.838636258500646
Ni 0.6306613180358576 6.447718928387613 9.715045189031107 0.48641029491313004 0.9476561747454905 0.03305333091054308
P 4.002043737868073 0.5647588714931512 12.941736416752963 0.5055922671582196 -0.41833725339429245 -1.6098635914290147
P 7.649830308432435 6.083831398458776 8.243355564617637 -0.2176775640542638 0.4406050636535573 0.1349813733056127
P 7.628339489757648 0.7716951569299815 4.886012720695626 0.6376294702338439 -0.5222445310029199 -0.12191297015742875
Ni 2.7119847550973724 0.6444378339461884 3.68116879352409 1.6757311406561013 -0.9115566008094559 -0.16084615688751652
