# total energy = -340894.2569363877 ev
CRYSTAL
PRIMVEC
9.04023260093994 0.00000000000000 0.00000000000000

0.00000000000000 9.04023260093994 0.00000000000000

0.00000000000000 0.00000000000000 13.23129421219666

PRIMCOORD
 96 1
Ni 6.411097989221468 1.851304054749213 11.258455397916613 -0.42355427881885765 1.3495031437942435 1.0896247780022137
Ni 4.552643110401613 0.19065217961189823 6.111746955572903 -0.10474802834236799 0.6312590479311257 -0.6194803101286428
Ni 2.6246507616052885 1.3745402622870502 4.7710723090267315 0.12914882578423564 2.618733618679664 1.390734639640205
Ni 3.6393716817182145 4.2921126440402215 4.831711477950439 -0.7240882133487208 -0.0634792515005681 0.12073334802703078
Ni 4.952167154621583 4.607996455261976 2.5382650099341846 0.04088516825013604 0.12089584174682404 -0.0791886918160249
Ni 7.149016024101754 6.0388754477743705 2.605757579272499 0.16353064569821513 0.1721376706409358 -0.1650185430976513
Ni 5.250937805330409 4.8592878037975815 11.359595713387586 -0.6181695617370193 -0.6819249497171094 0.23229788507059992
Ni 5.702741515290618 7.931999619022692 12.278350043207324 -0.2653974958380461 0.45665954601325864 0.3951081076630228
Ni 1.747594505143124 6.633469633329783 0.495166994182274 -0.1423342141262581 0.13211613594267568 -0.8592781031207137
Ni 2.8444368991596156 1.7765413302685333 0.5031558478247863 0.5612844185142012 -0.42110144640299085 0.8216484656933978
Ni 0.49883461659119926 -0.2755327325374119 4.825546039244776 -0.19138906267138006 0.857513297910807 0.09140760247972
Ni 8.757725434178774 2.2758062619365504 1.322292237361284 -0.23724134511880432 0.7459883558559217 0.41026038992342895
Ni 6.673355140029754 0.5889955694404329 4.726853818790656 0.856335732662938 0.5234166969341503 -0.30760318267181863
Ni 0.9257288693526098 7.333843581781016 2.7985378296634478 0.37042088932898787 0.015472127493670124 -0.3786751589179801
Ni 7.637224751170028 3.8309251725309252 3.689586558308345 0.3617673274190479 -0.3027831355753559 0.3818638410586069
Ni 7.323718521150017 4.013917562970819 12.538702416984403 1.8005756826380281 -0.8017504412178902 -0.020437184808429317
Ni 7.939647655892178 8.885563364877841 7.011580078338462 -0.18764887890265747 -0.37193192665687563 -0.3734517057355117
Ni 6.736112435476534 0.8549022621922308 0.3866154959387178 0.04624000480414617 -0.5960907275601088 0.12656486710714332
Ni 1.9380179668675541 6.639978600878282 9.136367444870581 -0.9053910954286923 -1.7871956617866962 -0.9040381809452236
Ni 0.06898511175811593 4.948424498281197 1.412083444692832 -1.300213039309864 -0.7483437434619756 -0.10088494584253592
Ni 6.377640087975641 1.7043460318764285 6.929797613161379 0.09303922454587203 1.375713483641024 0.14638061628148982
Ni 3.3165088108472354 4.524708791339303 0.5379119264872314 0.5588711810870182 -0.20880622970656298 -0.5747639410578746
Ni 5.890995321165549 5.454813133321737 4.715355546811578 0.22733694152089878 0.4106517118245766 0.2379373427445644
Ni 5.332028692705462 2.9451089305764055 9.102839029809644 0.41594689878524493 0.028611235978789434 0.12626456225790514
P 0.23973431504393625 5.586800530832973 12.573355436993998 0.1839413481440832 -0.5548692590164767 -0.7971736204804852
P 3.938503941735289 6.337835943370026 12.59095224995671 0.2767877399528588 -0.9007541108773132 -0.2396062458065551
P 2.3875525784184943 8.550098409614352 1.462269392538303 -0.04612327672062379 0.2590417288233474 0.4841513236756242
P 6.369314033653185 7.758201145245053 5.805878818166402 -0.815308382407983 -0.2849353087606577 0.1886428673848106
P 4.70111085213634 1.1266209205508761 12.603734234980077 0.4966098611539512 0.6127352780953254 1.046390649903927
P 4.041716278542535 6.0904770960616395 8.049548860878778 -0.16146142187401225 0.507098676500417 0.7525084163626266
P 4.6694519571990565 0.9258283119123785 3.695050474956002 -0.09654749480944662 0.991893290186995 1.0551902504734278
P 0.18888119802474404 5.396069701196531 3.732561112524041 0.28434446925419415 0.029486696605207283 -0.36490664437897796
Ni 1.3331721574232547 0.8864617145697463 2.74550692058532 -0.6284272349092855 0.519693482446292 -0.9163774192368669
Ni 1.8385211657025768 6.433481605402141 4.928776456517435 0.3140571658272785 0.31884018903821865 -0.25432092630891034
Ni 6.259240160221897 5.545468586900003 9.275256156029766 -1.0826270065281418 0.983463414252087 -1.070378271067776
Ni 8.618731856320194 2.0535973420169484 10.210100292020087 1.1069840952162677 1.5293536096984048 0.2849684759914382
Ni 2.4821314929912726 5.110316985584704 6.863561636169234 -0.5372006380921199 -0.2591702839814117 0.833937567473396
Ni 0.6772779619333081 0.042521638557113065 9.260966260191 0.4677178607099493 0.10985655321352691 0.15881575672104906
Ni 1.7455966137150432 1.1707282159246655 11.673348741760478 0.12291750016254314 -0.568434399295421 -2.601582046601042
Ni 3.8660374363619967 6.834687132905475 1.6108835860428725 1.0241752901491523 0.4771553519737653 0.23333403964459815
Ni 5.656708650350398 8.020602939776639 8.101627833452937 -0.632827163749194 -0.7747723699671496 -0.18772369800465089
Ni 5.588337370393036 2.852907597205371 4.614255008364512 -1.0291403474639114 -0.05196867975780727 0.9635566480258309
Ni 0.7085246222591873 7.441268667029374 6.99239489648926 0.5395976775693868 -0.04567410499834715 -0.23639776617158645
Ni 5.134291682721678 4.564458694548681 6.9493805652496565 -0.34264243366413893 -0.6444230961169096 0.2596878470477786
Ni 8.147365082783663 7.3455054819720775 9.084792013258157 -0.40278876413673215 -0.3986053221830038 0.01716159938095109
Ni 4.56648370667488 0.353410721208665 10.594429513107396 -0.5208443082212836 -0.7763996211579274 -1.305703887221106
Ni 8.136869372611708 6.894614835515199 4.783390530112267 -0.3799547969613521 0.3927213525984011 0.4521349186700278
Ni 7.0722373277275805 6.081906955456116 6.976252656968982 0.6559465233754768 0.6760623202887454 -0.2736723342523287
Ni 2.08907121515627 5.321849390678226 2.575907634899735 1.451564626443384 -0.7301426470729168 1.277690946947948
Ni 2.3396574255407874 5.217389501757519 11.458750793756266 -0.2712881502908683 -0.5124792240860399 0.010203937116195329
Ni 0.9703695384560675 3.0950863911730773 3.7014681361541686 0.2780493802741018 0.6836537594827581 0.23240124341768365
Ni 3.456388331511027 2.774085808239586 2.8814448997891877 0.041387304697535175 -0.5147227687045781 -0.5763171444776075
Ni 1.1064612016159407 3.4384163488910042 8.33447168312817 -0.2940583541078484 -0.190391217534485 -0.6113610234556182
Ni 3.6379704456487456 2.5159238828472317 7.006830340074599 0.2950122333806855 1.0120512531921086 -0.7985812994612892
Ni 4.111298949682534 6.90490262033491 5.93296550552758 0.2921616513057678 -0.26648687224748296 0.05593614904598753
Ni 0.7617706888757237 7.1747987677799765 11.136634646106824 -0.4511260177895392 1.218672816542527 0.9196650888492032
P 0.18997506618220017 5.684398883129639 8.001255033738724 0.14857839526375702 -0.8968743162069328 0.681514087431936
P 8.634841551002731 1.6588555808985832 7.987864641054228 -0.8185106913953646 0.14229847579231622 0.2839258936595368
P 1.7974785092162064 3.1504487762661464 10.451267483947964 0.042204658392507956 0.6711093471588442 0.10759115421811793
P 3.8577204222722474 6.213713548313226 3.7576215416090344 0.049352839401515004 -0.32369160359324894 0.3342130719498631
P 7.023212145761593 3.813676408527402 10.23407498915706 0.09974646136271853 -0.3188594723119283 0.926830753359707
P 6.235193141223275 7.542013020307813 10.218303399177737 0.3614672796801258 0.6802509044487962 -0.18790856032194733
P 2.311921991598015 8.619183867955506 5.993405789331749 1.2085544971616025 -2.2476766384285742 -0.8212373462979082
P 6.907650851077611 4.09111211004948 1.6001799505186738 0.150743778346192 0.15162103874482274 -0.4339973285290525
Ni 5.38640569243355 3.231738548760738 0.3785461842251199 -1.2842194920950851 -1.2237849409581116 -0.5981437534343957
Ni 1.5640506605081492 1.1067414488298346 7.139619606226879 -0.9545297619368722 1.647722057037685 0.28214360494813345
Ni 6.843555601190305 0.8022302503525414 9.222424132071177 -0.2088118861335178 -0.6794350934157202 -0.9971756216318568
Ni 2.8813391290665247 1.7398922268773998 9.172250840551493 -0.6914457447233511 -0.42660566405067174 1.1124667155973937
Ni 6.151118977055159 2.089640749816763 2.4623171109457154 1.1312450246461614 0.15542858541637103 -0.14784614508342278
Ni 3.9861459680972215 6.745857806333871 10.240029790440667 1.5558298016120626 0.3002657684701409 0.331267616168294
Ni 8.18186261079071 7.366894672555063 0.318203534934178 -0.23590848523999375 -0.0751749426709415 0.080296580168223
Ni 7.676377999020793 4.04620927419754 7.995670881996074 0.7988777476557855 -1.5661892904695156 1.1438118055675786
Ni 3.2014176082639785 8.434699839119084 12.647450088277685 0.23898018218678196 -0.012463936794965632 -0.3673185962545803
Ni 0.10878202417756552 4.959082932641864 10.141046474493404 0.4202491257050246 -1.2994656196208783 -0.49157486983320503
Ni 8.706196107753154 1.9753722084097753 5.694444389712823 -0.1653450731991346 1.0439763840354797 -0.19286641854785494
Ni 3.799483243178591 2.773118503340017 11.458499475287033 0.01104031697456163 0.5078072725316674 -0.12982296903312482
Ni 1.1542659521665857 3.195451054677854 12.587102014847119 -1.3083896615833852 1.5711286367526618 0.49644119678657084
Ni 3.0142667107792107 8.472171603686485 8.175722484736625 1.1529176245235886 -0.1410466056630861 -0.34693540461253797
Ni 5.582153851221961 7.803682555990193 3.58785049150203 -0.8506631077581931 -0.46488219103336714 0.1564130608168274
Ni 2.9388259688455625 8.536501899624152 3.766354406403271 1.602518721028169 -3.2214472508729295 -1.2659970555497873
Ni 3.3706869254557863 4.223542478963322 9.174434056750053 -0.10065457499928472 1.0194328903681602 0.33924420661586735
Ni 7.571185851250879 6.084031410142084 11.374599787610148 -1.4891652104049773 1.1542926504942443 0.19442656394612323
Ni 0.68321197068169 0.1842435586464383 0.22287428104678175 -0.579399382947357 -0.7417290663589354 0.7561568117484914
Ni 4.736186955036587 0.24561950653570436 1.6403890975495283 -1.417428089770991 -0.2470069091460004 -0.9118386508262489
Ni 5.993384996796525 5.878257633282443 0.22391300378472975 -0.22776091643219484 -0.373744297275266 1.2645958043268866
Ni 7.825162148900239 8.891385274740667 11.257330792967956 0.8621947625468764 -0.992818887325058 0.3755492116944887
Ni 0.17197777091059957 4.794080605287406 5.962193481890154 -0.7522147963816078 -0.9741056271862708 -0.3928828178769298
Ni 8.075413870674627 8.447916659335618 2.6821421215006795 -1.5972919254115912 1.5850182502505605 -0.4255720805798348
P 8.324535563360731 1.530610839727734 3.42578081563748 -0.3862586276921928 -0.4758844556811418 0.552590490284629
P 1.7347302540021317 3.4403419184574346 1.5838252655297986 0.26720858090485594 -1.3163670233619071 -0.3601264493815153
P 4.665772582487613 1.0329912304122548 8.26072056068732 1.4093288577026246 -0.5266295474444931 -0.3523187804116384
P 8.369085830137127 1.6616580530375205 12.438514942040667 0.7011586011357409 0.28953784052967557 -0.2166946313157042
P 6.274174624652621 7.750860476287579 1.4304351170865177 0.7879690711630817 -0.14376091927045564 -0.2664385355080508
P 1.8029026488399558 3.1544355188896023 5.844183188166049 0.2813596755942574 0.13466795583025196 0.4444496342106281
P 6.9943376424978325 3.780155225652631 6.021641148143177 -0.368813692742868 0.13263652722251998 -1.2971264299647403
P 2.4709758458317608 8.366102553344065 10.420755794541105 -0.5088120596470979 1.1996345689641532 0.15961357003199608
