# total energy = -340896.05883939663 ev
CRYSTAL
PRIMVEC
9.05368893939359 0.00000000000000 0.00000000000000
0.00000000000000 9.05368893939359 0.00000000000000
0.00000000000000 0.00000000000000 13.25098892371194
PRIMCOORD
 96 1
Ni 6.249408528770452 2.052208774108529 11.486752226256941 1.0409787348597361 -0.7083965136450767 0.007990731514960433
Ni 4.5356628699756305 0.387146612629801 6.056457210900396 0.7478909721952732 -0.5316092600472715 -0.779501914232335
Ni 2.705876077300652 1.5827930988788832 4.884632791551951 0.589120724000179 -0.24890129795523588 0.1500873757091157
Ni 3.584264998971309 4.362194185794948 5.089134806044018 -0.3210647074933632 -0.18915297425200972 -0.157915870614599
Ni 5.282230077571614 4.595480594212674 2.493372412334739 0.3894349685376454 0.2870220160863573 0.33593853928140205
Ni 7.506911630053942 6.035189189709955 2.4249573048775503 -0.13377346904044057 0.2223423165197848 0.5626293625778698
Ni 5.0156623078256946 4.272254837744275 11.804709641006932 0.6008992046923458 0.7083260654184576 -1.0369940391803754
Ni 5.699442181142293 7.768862018331587 12.416270046684048 -1.2463427716539697 0.6636801445743087 0.2080917201380416
Ni 1.8424529038006976 6.49159471362605 0.40148403477325234 0.34411387600334287 -0.1225230929376019 0.33976331234413093
Ni 2.5729950815950215 1.355129031425468 0.3436038000150529 0.25893502804215407 0.6420201431023718 0.4696389889920621
Ni 0.48017689015747234 0.11858069368770797 4.922133172025666 -0.01430690354097536 -0.12473038500156582 -1.0899518223243294
Ni 8.661410909838287 2.225070861115928 1.3078026821134805 1.089161208102234 -0.20020717518364228 -0.6280253714851765
Ni 6.993160039039704 0.7427854816365753 4.791412386552057 -0.8620055293542058 -0.6477027953094457 -0.7021052813197263
Ni 0.8219808167688133 7.240760330009082 2.67085640765499 0.7326175909759705 0.8322347258496764 -0.6919836195046922
Ni 7.610141793781925 3.8178501791310997 3.6970259812711594 0.47615802105750255 -0.0763638207727201 0.3792541713499017
Ni 7.73989021304045 3.8895916119832776 12.569279204115695 -0.024819373036524997 -0.32283876867465044 -0.6060416681252336
Ni 8.005145197859116 8.9266568409678 7.017379562894179 -0.29692307725015316 -0.4890706153541125 -0.06788663653964438
Ni 6.899345712031341 0.5037101443741135 0.32434479244776965 -0.08072029796920291 0.009450346779622434 0.01702301692055778
Ni 1.8331819261075337 6.675194475969477 9.074356915079845 -0.005048875277817111 -0.18174665448560956 0.22870991060902546
Ni 0.3571218632901143 4.70956613123568 1.34284226987528 -0.37291717338828034 -0.4496468621408515 0.29363746452034595
Ni 6.484876876274168 2.0483700099074533 7.0758564357675935 -0.7529755858070323 0.29598025372090964 -0.05367254982279144
Ni 3.7331710244785987 4.33972292931601 0.4869671570225825 -0.44996336494000566 -0.32122205900683387 0.5601770443826352
Ni 6.066705081653221 5.7271645773302495 4.7743715328273755 -0.4609265488197287 -0.6617721289183183 0.2805564629666717
Ni 5.134102669331524 2.725314347913174 9.546741294982919 -0.345613857587637 0.47613616668063163 -1.0890352240473309
P 0.25143452832587765 5.452529970548579 12.413884399592106 0.6951568750263512 -0.1340920287221239 0.22291284431127414
P 4.109252218225016 6.17926959889844 12.673763303791434 -0.27934213094359633 0.16105210225073552 -0.15553708596977728
P 2.247361043811796 8.439450666551565 1.3804087422798157 0.2704615406245149 0.32215125568932257 0.4926837866266676
P 6.311643588011475 7.892517304789822 5.876270689367831 0.10398903868915639 -0.2674014136419524 -0.3311066651103975
P 4.521339933734825 0.852091576155458 12.545758625063868 0.8217358832008815 -0.12641857133726614 0.33684922402112955
P 3.9098718756870734 6.270376872849913 8.09390303947526 0.123872922097277 -0.012210168912946713 1.151918493835113
P 4.856471291440051 1.0625862274982132 3.674406244290104 -0.19219921727750125 -0.9720286900525842 0.23620570476543834
P 0.22547216930935757 5.54959457196304 3.6854182464074823 0.05484702974686683 -1.2813529691805674 0.3587005155682661
Ni 1.7983433302449419 1.2338729725929065 2.7323807522974652 -1.0247699863103577 -0.11486531928202798 -1.1592237692472747
Ni 1.980693683485188 6.5285428190614025 4.811964260930457 -0.06106395719085612 -0.5398493885688767 -0.47884405253009793
Ni 5.73093996570725 5.783786349296115 9.329597614325847 0.4926408492038742 -0.6869817954147266 -0.4997934010882554
Ni 8.46805127058741 2.4497019427029274 10.175938287131014 -0.0033835717602522376 1.0131833099140228 0.1524165380629246
Ni 2.3176176716428034 5.238944389728825 7.100727825241119 -0.48225179266006624 -0.47824704237604726 -0.5320594602108127
Ni 0.2853098116625395 0.23589930310742083 9.486873775455528 0.12544669434230007 -0.2891742865426697 -1.2732935892112007
Ni 1.3515528242098434 1.27576439230606 11.317722565868213 0.1218836595813901 -0.5459691283133694 -0.26493392593806636
Ni 4.055310338248581 6.8929628611781375 1.7459242807841215 0.09822436829123728 -0.7570037331298187 -0.9091212518950859
Ni 5.576891444760784 7.87976971046172 8.048333105859047 -0.47597547273305124 0.5600158362144226 -0.8050144566811425
Ni 5.206993920706193 2.5983454112247664 5.139370105681018 0.13778798951647236 0.7549638198816546 -0.34613681997064255
Ni 0.7889248923005414 7.3452670639077065 6.701157740354912 -0.45233777870945324 0.07319082236137717 0.9659917398298848
Ni 4.975373391092707 4.396036875850657 7.136664633598028 1.5119397850973317 1.2652187826228662 0.19282450956632596
Ni 8.106972039768308 7.285521769183889 9.08352649145449 -0.11185661436269123 -0.2485063765096623 0.1723310175986645
Ni 4.623565137966771 0.4229132116306249 10.290320785158253 -0.6377333428015597 -0.527861362969065 0.442060050932529
Ni 8.020925778053632 7.236831028916472 4.650712624893481 0.5417684599684605 0.25608496018786864 0.06234359523422812
Ni 7.141070158740111 6.17000767489443 7.0669376465825 0.35326468926467547 -0.5172524771049674 -0.6575596334988675
Ni 2.530596655289273 5.1434008080921485 2.5704663862144543 -0.6279330688816863 0.01637587025486212 0.47860056906072407
Ni 2.400069618763548 5.448211360822369 11.482008998509434 0.011448093935941574 -0.851218723151347 -0.29633763706032834
Ni 1.1937560759538355 3.3632553930457014 3.86112590791582 -0.9071965240685473 0.6898948552964634 -1.2060237603199488
Ni 3.8086425772620105 2.8686523545910734 2.9861764827545705 -0.03351998613431646 -0.3052310828952163 -0.26939196170941987
Ni 1.0842517056424916 3.31920919531402 8.170824993261059 -0.6886069897229753 0.443785518264068 -0.003072982498368901
Ni 3.488965866941775 2.750311583665933 7.216342530362146 -0.8070697965482745 -0.5069984034771269 -0.8208953895774571
Ni 4.03395268553552 6.95181184067576 6.0567749953896834 0.8637417953190222 0.2081714243360415 -0.5815637375885274
Ni 0.654083772893183 7.282724179235464 11.276273871554665 0.6962303105961881 0.2956814915335682 -0.34911544298299235
P 0.09540053334805242 5.515118123666587 8.082838525960792 0.9000033487542177 1.3893187331292847 -0.7598589431904268
P 8.384096411067187 1.8091353277158901 7.986146031170538 0.963476943827831 -0.31103843360561273 0.8581164787124448
P 1.893696784409396 3.343473082245347 10.313947292373177 -0.7884362406074873 0.11559319858698802 0.03653768991471772
P 4.016252723240466 6.060421821380705 3.8779811610128543 0.4272114159554707 0.6501018916692417 -0.6444485500382062
P 6.682002850212894 4.079302614505304 10.373484352246463 0.6857669491710189 0.025776594743471735 0.7186061071882269
P 6.141334641345359 7.832962137538228 10.162621215755161 1.485425540856887 -0.2368975886261404 0.8636916588073771
P 2.467075972188456 8.611126720279858 5.696216351696908 -0.9276756178585056 -0.4945830605319094 1.3228562306306766
P 7.1329399458802865 3.7668054796837778 1.4842038562109752 -0.8746964945583129 1.4831362306020779 0.00032627299116718
Ni 5.498124349125505 2.512308203199243 0.4063015027718192 -1.157317296253181 1.0936971482993745 0.42524169382360955
Ni 1.2480057813614893 1.0428310777653191 7.090551478632607 0.2633987202404625 0.30682979484090384 -0.26400395792462916
Ni 6.821275750460881 0.7140653689039052 9.202493777669053 -0.09549514228553231 -0.1153728550460658 0.21150871623939058
Ni 2.7405607604476345 1.6315653223486815 9.147263557726077 -0.4681305227673357 -0.051454202015233964 0.9772277177550202
Ni 6.481246346923622 1.8681382199291212 2.4414286815544766 0.2659266288686388 -0.4834136741786513 0.9993111799176211
Ni 4.039873798241897 7.0449743020650715 10.506709388139924 -0.4330964139813379 -0.02008725766817831 -0.36980433879091146
Ni 8.254827837333796 7.025264420777945 0.12303873022688168 -0.2639263106091584 0.893725486165306 1.291137559371157
Ni 7.515467366303981 4.1022808775768365 8.352867521070088 -0.04685732667317091 -0.887817091100671 -0.37845712936990306
Ni 2.898945998498619 8.298602424390873 12.335570893783418 0.6238851240645578 -0.13367062491398915 -0.3979795156735469
Ni 0.25362189962535847 4.974151143056987 10.239092295821116 -0.4048104225524512 -0.8562424016181833 -0.1785381748506409
Ni 8.478281939330842 2.3726278869393496 5.688371330045417 1.00115286111205 0.7442564607664794 0.01036617372567247
Ni 3.428532491842294 2.482992357720274 11.577349777509074 1.2135133838287746 0.7204241342335721 -0.07329392359814474
Ni 1.281649290255822 3.3197795777306887 12.553934106369462 -0.6375955316721149 0.9002319198252561 0.6996115683635952
Ni 3.1072261174744327 8.60808468072429 8.006048756036634 0.17192298352696844 -1.0926000585804538 -0.5460267210241821
Ni 5.586225798278021 7.748319197642341 3.570572199495585 0.1688091204883351 0.8994706161791994 0.32027460749190007
Ni 3.0972942204730645 8.416762121532944 3.609092025367982 0.6670611452313995 -0.06872121662579778 -0.23322245376739834
Ni 3.5118535931217734 4.450775480472599 9.310833843555258 -0.3453660032428891 0.0698185634550346 0.11309871429990845
Ni 7.2294884870130005 6.2178292610031125 11.354521285432533 0.1161524135245677 -1.311909758921502 -0.6581720702718858
Ni 0.5939373997398674 8.994369382146678 13.191837126007545 -0.4331761181793379 0.013450469077951027 0.8915073954680647
Ni 4.554250093807726 0.16589527320379593 1.564358882393482 0.28682018448819635 0.8355815308347222 -0.16913796458266353
Ni 6.2432882349027 5.610462524141889 0.40248718353145796 -1.0145776191583884 -0.0658202409289189 -0.29849813504675693
Ni 7.898284504780588 8.721844284937768 11.486129332443182 -0.82733523166553 0.7808028924319457 -0.9491960084287847
Ni 0.19705807127007507 4.871953099892502 5.831959218543953 -0.6391713607996669 -0.10992494455761716 0.09405301052236706
Ni 8.181873210135052 8.772789393804402 2.3160477619435897 -0.593845640279674 0.367491888607651 0.1287130237983977
P 8.692456009945571 1.6147707289689757 3.3991170557826367 -0.41112813724036285 -0.5028180468471921 1.5139755845804377
P 2.171020336869651 3.2097229323809824 1.5896811455868511 -1.1070195764398933 -0.4716619329593619 -0.5518212162187723
P 4.7376054065440085 1.1161478525302027 8.071588411818677 0.25272529968701635 0.19395630917792403 0.9048277667260546
P 8.429238105186439 1.73621691527376 12.336816681410935 -0.060772136982050175 -0.9774529463919489 0.016755879302100173
P 6.263921592483482 7.6561164273032976 1.4365135485950178 0.9177102791156776 0.0024471759889119144 -0.10279013328504878
P 1.7747946847567395 3.213027528922003 5.8681341389255985 -0.15407104294721208 0.4940834951876717 2.062801465616312
P 6.859455157621108 4.034686034356953 5.955060419225994 0.11985994428314195 0.117050756969121 0.09687376780061381
P 2.2774645602471186 8.592059650922629 10.088852661901518 0.012569352024578352 0.3358259249629378 0.760631045469761
