# total energy = -340863.77567821223 ev
CRYSTAL
PRIMVEC
9.28206297327254 0.00000000000000 0.00000000000000
0.00000000000000 9.28206297327254 0.00000000000000
0.00000000000000 0.00000000000000 13.58523740669102
PRIMCOORD
 96 1
Ni 4.536961002911516 3.031707412561191 1.508178368397285 0.28505666482987035 1.9745038695204835 -0.040648883869613864
Ni 8.462243337093714 3.2276981725153564 5.673290646017594 -0.36565097874417024 -0.17758892356349415 1.0473203608070478
Ni 5.493635388712889 1.6040704329016888 12.8064910764915 -0.03747048614163224 -0.3544990758924088 0.5952913715872651
Ni 1.5793430171063823 6.271750728848228 7.428529684919261 0.5451988258062481 -0.3570490960077722 0.6862513450066052
Ni 1.29934958712687 2.2045642157326046 5.688370285545017 0.630427553168766 -0.06669672999660126 -0.14836293681884127
Ni 0.2403135389196941 7.0904101201074035 3.1692731552548543 -0.3411504224996447 -0.4030427891290672 -0.5562723100115904
Ni 8.786586464021415 1.9478037894076163 13.428368876030083 -1.155734010926461 -2.2921978607694005 1.040596668929969
Ni 5.299872323875418 6.34250789499223 1.3745946307247123 -2.254041404304337 -1.5891914077916436 0.023547705412952993
Ni 3.8811368426197057 2.4767978410556317 9.314446247572512 -0.08131859367483414 0.6249768144668398 0.08592472498827783
Ni 2.090691867017582 2.0539905899700437 3.2205027172884337 1.2888281945116902 0.19780087973499483 1.09739927974131
Ni 0.7046051141096229 6.0470876763296095 0.9892135858058868 1.3869751725977726 -0.28125040370990273 -0.2849432791804577
Ni 7.275577994619629 6.497351269728455 0.24723238866962707 -0.7420026317352962 0.6103775764964262 -3.01422404938277
Ni 7.2362777399359475 7.421863307282553 2.1994089579500544 -0.5810906546068508 2.886891707981983 2.0118537709238513
Ni 1.039229054000868 9.204585606480137 5.777421469628573 0.8766003964492451 -1.3537089543454752 0.0994322725564094
Ni 5.717379516995869 2.9380513970301685 10.899463389782376 -1.3181356852265556 -1.079105880748761 -0.34268022888060984
Ni 4.881947437920584 8.360187054560157 2.9443966152875527 -1.1379154946878014 0.07856571352004534 0.4253602216793449
Ni 5.455421135398595 4.8518549897192385 9.54899562537776 -1.4401345302295714 -1.2275775752313247 -1.5718935399431444
Ni 3.8134520393241447 3.3157385399397112 5.282959476908214 -1.4501980851131604 -1.3534634139935724 0.08645051558476079
Ni 8.110425303726783 9.22841266216578 3.610860804380474 -0.09669764723406572 0.20654494447621202 -0.2701784621664573
Ni 2.781630071586285 6.84273683344593 13.31369548527935 1.0961389249716478 1.380789869722667 0.8311188670776783
Ni 0.4228471639564289 5.596926185623613 9.512586733314288 0.5912413698876076 -1.1582153825874182 1.5574495966036725
Ni 6.017375792710699 0.18939956702764632 4.849766525547337 0.9030020263712254 0.6956682674451309 0.6485394322781283
Ni 7.920802038981169 5.5553703896342785 4.1712115212085585 -0.7710267868817883 0.2839606035522142 2.515566561671171
Ni 3.6824728485255074 5.377850935022703 11.240357363220816 -0.07831965894751028 -0.6754624819212173 2.641544960147225
P 1.1075821658314373 7.69348431644849 9.016019568708654 -0.11217620248563906 0.6083386916895265 0.7715209529093874
P 4.230764309121887 1.0610419020184993 1.68162114094531 -0.4705866976173121 -2.0529322861317163 0.41762402937735166
P 9.382030804587822 2.259114899902656 7.807232285519497 -1.1367682684572358 1.5518651605373595 -1.406938245983261
P 6.507097435863992 4.105382202303944 1.0190349977680344 -1.0569213742319217 0.4627895701703965 -0.14677219529295368
P 2.255884741983449 4.256744803420334 9.398403435489227 -0.11805940073929345 0.19375499180039535 -0.26407286348935166
P 0.9201782423458298 3.61273670930999 1.6924217494360827 -0.06077290831299856 0.023672661026591487 -1.1642937275710143
P 4.4278039421934965 4.007976233326486 7.370779473637858 0.9215203968903871 0.7354303778344173 -0.02058425190925487
P 8.473316838236281 5.290497440259328 6.305968125840652 0.6313145837594095 0.6063730833227234 -0.10020591749764034
Ni 8.305005190107043 4.198472011992806 13.412826989765946 -0.14620706681810303 0.8513164250714758 -0.03836060205606942
Ni 3.1685157389151786 0.2737085451315386 4.949659159198806 0.7180206669984022 0.5735336681951994 -0.09531413662297779
Ni 4.135715984142931 5.595515312049707 3.5695890395185175 0.123774963066832 1.3474956264459117 -1.6153441549276113
Ni 4.6499701197688195 1.6434820723412051 3.7936366912611494 0.31140738690925723 0.82128105505165 -1.8484653072304553
Ni 1.2115041430252256 3.259192212227622 12.930782540908561 2.069594320168429 1.2624309354650838 -0.6089179612317641
Ni 6.6868817138442065 8.000275062269237 7.107130828370791 1.5558462566722946 -0.41390210044107434 -1.7634080724487955
Ni 3.4219531866910975 9.372748741601598 8.681360356978061 0.16044892144909786 -1.5812251017567154 0.6063031493167365
Ni 0.47206159011569865 4.0514534163539695 3.855599102725702 0.14585585412627136 -0.7420072597209866 -1.6161301411640168
Ni 2.207877912218687 7.468459263473409 4.285232382931361 1.9798232248508676 1.1568064180550337 -1.1319610768765795
Ni 1.7589973462047899 1.5638419719193846 8.79126555197277 -0.41739442986504893 0.8470864461505282 0.49865774482191544
Ni 8.355564587193015 6.512573853025866 11.918817690517136 -1.225069206987174 2.6646229250126106 -1.0961697782095832
Ni 0.27073085932555724 3.169731689166374 10.27274870722167 2.272361542769764 -0.6651960669982029 -0.2295455191364434
Ni 8.511976630573914 6.71184118121417 7.966084583259473 0.7713283772826071 0.1554355273949065 -2.538046745051558
Ni 3.2787216727506414 4.683747546975696 0.42574873684592324 -0.7102317670816027 -0.37622438338464237 -0.5409009697618425
Ni 4.436334158077838 7.062378289889 7.744739868258431 0.8007258566081177 -0.4460997682195414 -1.5671148876075787
Ni 2.258103155037157 3.7907388311968493 7.118664719837476 -0.24040225934528922 -0.018310625383729757 1.7029706930983446
Ni 3.677738996402532 8.046221274051057 11.083013400716101 0.4706818284342797 0.9503617466021117 1.1574774759801294
Ni 5.532044565349892 8.632597039079922 0.8137148363064128 -0.835127216906123 0.4290808650640417 -2.565173168954705
Ni 6.700405679615138 1.9522034872630876 1.7409892158052125 0.16635371696930706 0.3522377906620579 1.0586653535062218
Ni 6.749414972182413 9.083621761643638 11.282634375504182 -0.6726296404581126 0.7722406046842313 1.2982196630289191
Ni 2.3840329035712875 1.346790211049472 11.321298808873305 0.6356882873470729 0.23457125448580893 0.14225862369331627
Ni 4.842786414181695 0.0027344957557422288 6.818471664387338 0.31841312880312905 -0.2053288126809238 -0.08750569632215252
Ni 8.824438716879245 8.709749546621435 12.848455283252228 -1.787800642360547 -0.24681253374700718 -1.1349543551769485
Ni 7.6190514533619424 4.187825485747605 10.646994989382218 -0.4594738755336023 1.7531493708352646 0.7364377360530091
P 3.529198142433955 3.3413755979076685 11.700313286789878 0.4305494791897682 -1.108061901661479 0.9201949932107443
P 2.5577652764844827 4.458239826725332 4.065830403713336 -1.8337544833828419 -0.8961716337129534 0.17333863292757243
P 6.7822641930906675 7.514683937144815 4.39778575049604 -0.6786830457410441 -0.5521150933101072 -0.5320520040116451
P 1.0437679828011324 -0.1286011262615663 3.293999020219671 0.6741496766470647 1.391866953472435 1.223925323190718
P 1.6149768569105047 8.720646688567264 12.403892732939525 0.6223139229226959 0.31285620354064186 -0.17833634325247996
P 7.672608956792467 2.1830483937305325 11.664502159582721 -0.3372778269181159 -0.45926047397121544 0.5836825837037432
P 2.7591025047187143 7.862482837238709 6.501039033352883 0.458507654965591 -0.058858979119737344 -0.475466908527749
P 7.1216628261820265 2.4960581217520508 4.0962755703081575 1.9709110099629024 -1.867497384161242 -3.325428833362918
Ni 8.082040755114903 8.000999063182162 9.776005183419297 0.5644360767693054 -0.7822450241951109 1.145206114811944
Ni 3.339250005483822 0.303692393195945 13.43624841929909 0.7013843439933017 -0.5944637334796471 -0.6616608001514346
Ni 8.07818869897562 4.199112474338856 8.242163767277694 0.5757779841446857 -0.07625043512330738 -0.5586323256033348
Ni 5.569859689955778 5.414440827314407 5.547300564074053 3.269837212140543 -1.2538928160870857 0.06415519452167016
Ni 5.634240078828242 4.848290677532528 12.519502683845568 0.7177566147037381 -1.2938156204239524 1.2032024888210697
Ni 9.007156126763107 0.18185046520094858 8.251931282158099 0.7279476963041269 -0.5345829979636149 -0.47431942518686704
Ni 1.183982826271065 5.811295430290507 5.221050901408981 -2.2489591046854236 -1.5522168874498237 0.570941481987991
Ni 0.27916361354854374 8.744288102993181 1.3058739491998885 0.40042386344898134 0.0001871763101416131 1.2781935976159793
Ni 3.339444928806533 6.439394068442458 9.48856846713113 -2.490013652902731 0.2979443194258159 -1.9570170255896295
Ni 6.385753026445058 6.449994184372728 10.757606549370179 -0.329604112422942 1.4424302682422836 0.4623002892388038
Ni 8.04559937583098 5.469186434807169 1.9876154857618389 1.1551871372840556 -3.9982687900596234 0.2514590313800831
Ni 9.109713640697919 1.8849270947389203 2.74609276523722 -1.021711401989692 0.526195802341184 -0.3491316409329084
Ni 8.63061067760087 7.613398677003331 5.423946588018601 0.1608423002327746 -1.07193404559067 0.8589340895177336
Ni 1.5586997090250152 6.717039136486456 11.347409252053561 -0.1481114829296675 0.859558867585926 -0.7010806967099539
Ni 6.055775687284718 4.327863970020799 3.1706311210697393 0.3629382077986975 -1.0244753378880744 -0.05512830843271151
Ni 1.6685157962150572 1.4469807989227972 1.0067928848955006 -0.027090685569204957 0.6143332187100646 -0.14489708975742788
Ni 3.428998272497643 5.57838990584012 5.900448717066911 -1.514017750672283 0.5637102543468744 1.0532045875019669
Ni 4.712874660626474 7.391436704813704 5.064263862683441 -0.5884440096481285 1.7621847415646554 0.9284574903298525
Ni 5.785324218055045 8.512041605014817 9.148000294103506 -0.4546769683655911 0.5185413711197199 0.6678808129192174
Ni 5.946256626110235 3.0672020214205196 5.53814473714444 0.18822454890046939 -0.09146750918337795 2.707757037197924
Ni 8.261592981520462 0.6682426323610818 5.959503986404177 -1.579014724368958 1.4522318277137376 0.09237382304773123
Ni 6.185000568178959 2.915774445863226 8.20405718589404 -1.5089909868816527 -0.006497177688569456 -0.9450781296056692
Ni 7.599707634098647 1.7662187912080738 9.566235200962078 0.6178564013719746 -0.5061031453563671 -0.1287132809087138
Ni 0.059191715663164265 0.5838417618336259 10.87794385495511 0.11683915517894718 0.5374520919812938 -0.2343660804535383
P 7.440000458357639 0.08320348440223274 1.0755014997384424 2.104548467646111 -0.20947163120470377 -0.5434399341336125
P 3.534897329107497 1.5493990819128167 6.824136507427832 -2.240977372031528 1.7136374287835714 -0.04320893128730623
P 6.552069031032258 6.328761159709629 8.524450795021103 -0.5556668152171075 0.44587171136913534 0.5007809618125053
P 5.184384896200791 6.917225388910396 12.487197391828305 -0.8850503269888113 1.198128159621956 1.2174595129607162
P 0.300433460881481 5.052765243056104 11.79831702062365 2.243631778935239 -3.9192911858131407 -0.4398591866264683
P 2.8397821961949923 6.856112286209083 2.131727867479688 0.616165643933113 -0.7300284900925557 -0.8562328885364866
P 4.6880172959493605 0.6401114840687262 10.46616183828456 0.15135210135415225 0.7381637176051803 0.8302570332980153
P 6.839803701542283 0.8534736249016139 7.658908631824797 -0.7456569406584319 0.034809394369701346 -0.10405537315071757
