# total energy = -340862.4157476701 ev
CRYSTAL
PRIMVEC
9.34069085855717 0.00000000000000 0.00000000000000
0.00000000000000 9.34069085855717 0.00000000000000
0.00000000000000 0.00000000000000 13.67104524300168
PRIMCOORD
 96 1
Ni 1.2816642421848319 2.6719607213778884 2.7401421616889667 -0.22937839743095978 -0.18275375559388526 0.9250129834246779
Ni 0.8814203006814834 5.162655992078081 12.577566500141593 -0.6007315687662299 1.7778221909915963 2.227333813106164
Ni 1.353951850285146 9.125705712918643 6.4255146209552025 0.01907218614010264 -1.049178497061709 -1.7299220248762077
Ni 8.574390104583607 1.980488043712808 1.2542390391685077 4.074338219520376 -0.7263968068772393 3.6265291819192127
Ni 8.430048405659436 8.28224131035263 4.82086142487215 -0.36000817863609613 1.312678004546094 0.903484879544915
Ni 0.9308699191442128 5.617771823203512 10.249182549823562 1.4167788862227666 -0.4633912083101374 1.1560366297685445
Ni 7.275725804672637 2.552549326888366 13.50682888635467 -2.2453099379686106 1.7849014664358809 -4.5929284416001614
Ni 3.0904330214815428 4.799928936210462 12.628395738673635 1.37496529262109 -0.1608919225237874 1.417421919123404
Ni 8.34744867463074 4.169114706278091 3.172188354038567 -0.5330393076255788 -0.16266932613918436 1.44421101429179
Ni 7.499715576251076 6.345934735345661 1.7560321716505596 0.08106328313091846 -0.9483732554171731 0.5540650179476264
Ni 3.6425145664833605 3.0666703034291847 2.9518657377696234 0.04953075974027599 -0.3425249342496682 0.8760098140530977
Ni 0.8250314828315304 3.546193360289997 9.017531169772276 0.1193236121636977 0.06418861886276686 0.38477921493318895
Ni 4.670466958142191 1.555757480600082 10.076804766687852 -0.8587363716846307 -0.3593350638284714 -1.4891533833304353
Ni 4.868769829310257 6.593789972578099 8.293156841923379 -1.2230244086430033 -1.3359002082988283 -1.128145302674915
Ni 2.343373891328418 2.7089405172777656 0.5762664622900122 -0.6228813653903919 0.9464703819675055 -0.6169760556495503
Ni 2.0031672416024016 8.767181968027266 0.7625955015904229 -0.6933686727776768 -0.8268027562008278 -0.5312259085659238
Ni 3.285074341754749 7.9831897454295575 2.8368239185571813 2.8462525943043824 0.3953243374388869 0.013206214277628869
Ni 4.4473552115232335 9.549175282738496 0.16118950338605662 0.22946092984243704 0.11952441532059414 0.315753836803411
Ni 1.5115479898210682 3.1533332350682484 11.530364812349784 0.9692369862400598 -1.832021045631503 -1.6443402850496454
Ni 8.082331840322533 6.2632976415527315 10.52391655964541 -1.1932212092386418 1.3328706774438852 -0.277363924171303
Ni 6.873216745587648 1.3296660535335223 8.301879179233635 -1.0220163348246205 1.1121175597880912 1.868351504631421
Ni 3.9132358154265585 5.048027031410416 1.8961873728423924 -1.9190189490793017 0.9687160807395832 -1.5826006419480037
Ni 5.947983933497129 5.025058272098015 0.26128621690519177 0.262000040120723 -0.3064338449540658 -0.3456596232239079
Ni 2.3443453231984828 7.772202215804296 9.811422656753589 -0.3151195456535218 0.8262761942733963 -0.8554949819291975
P 2.7794347126948824 7.501994704869306 7.463707212221265 -0.1744472926107189 0.48622209016172385 0.41566870542319384
P 5.338232961901262 6.893383297582553 1.4471756833235716 -0.02397502275835871 -0.03679711422369147 0.9166358151045763
P 1.6400105139461 1.4102108325293885 4.755254279016745 -1.016350651898411 0.11815993087289973 -0.026135520744787245
P 6.499346245287457 0.657963882562475 13.17570232240644 -0.9366330841621096 2.4071734803770477 -1.3512388955384276
P 1.9912858825762225 6.0386820436733855 0.6328065993351101 1.1466755002686186 0.7058418655440231 -0.07015794907232432
P 7.945359946643374 3.7329885000742182 9.320262966972324 -0.13881000302308352 -0.7134916687797971 0.7201775654404049
P 2.268872539447283 6.996392438573673 11.836459258330828 -0.6493896960935656 0.12699552688665872 -0.0652049759424232
P 0.2668495324995253 2.909008779055854 13.074263351582227 -1.1709305161612416 -0.9846756893926332 1.9487491291538825
Ni 3.772219402519149 8.588186305276741 5.642259378881995 -0.6417000407587916 -1.480716822527308 0.9811607342608394
Ni 2.2370301236294807 0.601951494562172 8.247619104875874 1.9418032939636687 0.320864418557099 2.6466228888907644
Ni 3.6825581090503654 6.323881363756975 4.659789614193428 0.18279797856825938 0.6890972990958326 -2.085193203047951
Ni 6.035730385298957 2.8679657825456095 3.4280971351014857 0.6558326235054317 -0.24293968105516225 0.47174472248115523
Ni 9.155894826419123 0.12510267755135526 -0.14698137821725082 -0.6897526732916444 2.153457020421356 1.1377128917586923
Ni 8.006971144864032 8.687459169844532 2.152751870417605 0.9036162629164567 0.19713342135432502 0.9899809036556304
Ni 1.7612433431919945 -0.17376394168876277 12.134898073920475 -0.30436873489492094 0.13556167128911492 0.16792260411832372
Ni 5.541262222744837 7.766691208079889 4.241086599020634 1.0197092839579989 -0.8943106692448146 -0.4248038349552426
Ni 4.932781585132902 2.6230248409233665 0.7282759345039551 -0.4113024580346981 1.2412710135580172 0.5346421333363244
Ni 3.0320163396028286 0.9434191375810616 1.9499561268504877 1.19510145698049 0.9014691346664668 1.625218990839162
Ni 5.710945216510222 5.399591961463346 3.2102208458207158 0.23488878572622773 -0.23858783184436974 0.2590522703463087
Ni 3.8651219157851684 2.0083513251397673 12.413897043279553 -0.7768130545462621 0.17685847315537284 -1.391888036518358
Ni 3.067968659486291 3.119454548599733 7.5162037641072175 0.309195466859603 -0.21568264511142213 0.2821829428265011
Ni 6.083414613151666 0.954898846891733 1.8668491962973253 0.6043719937322946 -0.5503016942504523 0.39766712663945064
Ni 2.568531249289146 5.527288548921596 8.494217085091861 -1.3205607497282805 -0.20392961834055204 1.4540431698908634
Ni 8.33796787320655 3.3183272019223575 7.174646450454167 -0.2934626295053785 0.5328744999129403 -0.2419552056547059
Ni 1.289949435153559 7.194583221449039 2.3928291142057825 -2.0248162446217903 -1.1506959342819214 0.18245576473749223
Ni 2.0589778706758444 3.5383284984188945 5.137892886013377 0.5742083256647208 1.023919208274288 0.419903826550464
Ni 9.073257732626194 8.143139739112176 11.823690533654108 -0.7596697099977561 -1.8701643894704434 -1.6244733709223893
Ni 9.249815475010498 7.2814423076003285 0.49048996223238267 -0.02662891544143801 -1.6155192470528954 -1.345459055631857
Ni 6.223767836993934 8.955555684600343 11.274251470152688 1.1397664318536114 0.07497722483783863 -0.5282439431194644
Ni 1.581733942433261 7.759256017997469 4.521260627314848 -0.006193273294905463 -0.4826757675713623 1.0372529492687168
Ni -0.31436282570586577 6.323031360870668 6.222239699936795 1.2106445469214118 -0.2370235726810434 -0.073474415040067
Ni 3.3018035194401953 3.888903315219643 10.418703949633636 1.5189118455397905 -0.3041622753110697 -1.431115614560413
P 4.721084162987209 0.34577930601140866 3.6392051596413992 -1.6642923026915402 0.2886022160892836 -1.0848319845992607
P 8.007671696693405 2.680124485362858 4.94444810826474 -0.9093421096566404 3.0893246871723505 -0.9377728541935076
P 0.845289573598808 4.575294656949 7.09737838588156 1.127448790828523 0.2775169048093995 -0.6478341786809875
P 8.71682630253188 6.547534870457313 3.807249796195155 1.1765663742907801 -0.891522050756084 -1.8032735411851655
P 5.960958153377132 7.06555091516945 10.011470369011349 1.2435058164258068 -0.17547856208871068 1.8340774139398992
P 7.062758048543014 3.5217674531724987 1.6281254186434977 -1.4268884638529424 1.5998843687291155 0.962710755085768
P 2.271123645992337 5.086809580684548 3.6691859757312786 -0.19620011090677822 -0.17307972283923095 -1.7124632059698124
P 2.403509260361862 1.0918146964245417 10.554170123914195 0.684047652487067 0.6665818916021359 -0.4599109630710209
Ni 5.945798211789483 2.1429600239811712 6.274216909399904 -0.27227262569132465 1.2625049832361288 -0.37035712597058795
Ni 6.792260976185215 8.213568549691885 0.17174074800553138 0.31038563051296225 -3.4569114494866526 0.716268974414618
Ni 6.132182361167138 4.843241720647877 10.30344355825043 -0.729503213716705 -1.1555442635131583 -0.6525634658358567
Ni 5.586555233686616 8.758457762578798 8.79455579724277 -0.3800522417711648 1.087253706666876 2.0808727212957256
Ni 8.62486719906275 4.134180521719986 11.448940140256223 -2.0173605596746937 -1.1071764137327318 -0.9055967836815952
Ni -0.2936311619019314 1.408342694317725 8.597474688465132 2.1176400107227464 -0.5979414076156024 -1.406664423496584
Ni 7.27732306284361 7.1613770647367225 7.652804832351361 -0.811207472865732 -0.010715843755607352 0.7644378208103608
Ni 7.18470077030934 5.68487534776646 5.030985874643623 0.17481316059056992 -1.1221980839525447 -0.8022721180493151
Ni 6.0671804920923105 9.222904944071487 6.707001016343112 0.03209276676948667 -2.387190609497218 -2.3645021667607664
Ni 8.75063026347193 1.8320738034872115 10.741108176271608 0.033786095311509556 -0.408011188877936 0.9998318283077814
Ni 3.68547240466056 1.4533087810724625 5.292375773219562 0.533841748922216 2.061022519339018 0.03657060003518218
Ni 3.526428458010599 5.348554425520703 6.558041279759708 1.5718549733957252 -1.5138007495654704 -0.654619319923621
Ni 6.67647376982632 0.5447612454194153 4.369252089170011 -0.8390769455824905 0.3467109473065577 -0.5492909935977508
Ni 8.227588926970418 8.92704789549036 9.642721369618434 -0.4980769326177809 -1.342903636199855 0.05027920787052631
Ni 8.030547049095224 1.099520766547653 6.158737945845933 2.528484812394736 -2.487955741932438 1.9565927935680174
Ni 0.19463104551304264 6.82785834980846 8.511839232842481 0.6810104083226401 0.8515290553029142 -0.34219557593470745
Ni 3.733399490480784 7.314713849150053 13.623442743872227 0.18051046808566332 -0.9888994976659936 -0.20620581596923843
Ni 3.966898085556589 8.922228098904268 11.569478022087381 0.12192428301133841 -0.4438009448830357 -0.8037983248858543
Ni 0.5482210373874159 4.972937215992606 1.6740330470569134 0.198001168671259 -0.8616597159790128 0.06830932589935977
Ni 6.464262609672418 2.4761704961045092 11.341075708052992 -0.09663696919945937 -0.2571720226044603 -0.9039139966625336
Ni 1.1657462661511195 2.1243627080840626 6.829056760471244 -1.5594105769847852 0.4394804631308108 -0.7464835503247854
Ni 8.659026106263015 1.2346992475436147 3.5504387043760026 0.9094110152213628 -0.24458210175459172 0.6104503387158905
Ni 3.9351210545761948 6.1580000312523255 10.781587929111035 1.229909822908927 0.42477812392362974 -0.5455253559077314
Ni 6.242327790126811 4.540500582756769 6.956826205319748 -1.2193438744676226 0.09102450810868841 0.9386385446279125
P 8.842477278648358 8.639550765406426 7.344522796524459 -0.5923199476637669 -0.021090759232028196 0.4990621793491856
P 4.7214484499384834 3.7367060951154283 8.668167840601791 0.754294818839088 0.9248355773065493 0.6181842170250386
P 4.484624568845918 1.019368296576236 7.633583558291557 -0.8247242764052443 0.5285933560390832 -0.04773073041705973
P 0.7303383590896315 0.4749778765918358 2.206615899474495 0.6238439864139773 -0.34361353932815664 -1.6749526106188637
P 5.021415402585271 3.9245940957534717 12.14267700143384 0.2914620541355819 -0.009893090743995865 -0.005371805834874619
P 5.030036860432098 3.7117571092986634 5.1695008504856155 -1.4010347360146322 1.5150881009183261 -0.3620198097494862
P 5.765027817737877 6.658184696734135 6.166885830656103 -1.6664345458455236 0.9889074680857936 0.5567222530648155
P 8.004766741774269 5.77051080338911 12.761920917352274 -0.3185475974984643 1.5430830434693554 0.4493038769791359
