# total energy = -340895.7236997752 ev
CRYSTAL
PRIMVEC
9.01763828550822 0.00000000000000 0.00000000000000
0.00000000000000 9.01763828550822 0.00000000000000
0.00000000000000 0.00000000000000 13.19822514769414
PRIMCOORD
 96 1
Ni 6.472004187238542 1.9606059291564313 11.422655220154413 -0.24419617917008266 -0.7149515411547751 -0.04101038097409066
Ni 4.666222092234999 0.3987284095067374 6.140804363092274 -0.7851840522187767 0.639907467634743 -0.9036957100041404
Ni 2.725436932341078 1.5517642381538315 4.713851454878642 -0.23508650355933058 0.13816876989465882 0.7260625634662722
Ni 3.441257070675067 4.058884144177627 4.704507377940601 -0.8729381171063095 -0.3452523604831602 0.8106395161774039
Ni 5.018901931114342 4.3728783142052094 2.837935578773074 0.5396658118031609 0.6448547843376894 -0.3858184548309807
Ni 7.2204321061245045 6.2287984788627835 2.6220253601519534 -0.12303962756270422 -1.7962125205733257 -0.5463005435108591
Ni 5.145716980313018 4.688856364686728 11.48735226704881 -0.2723399885941503 -1.1429376304927412 -0.050456613988655044
Ni 5.618701133446756 7.80333225404475 12.259263919926324 -0.032149845259667215 0.04905793386891551 0.8698515077611859
Ni 1.8321135992103363 6.394344285105356 0.42593011582173457 1.010276677790189 0.21728547082216773 -0.6737167028747043
Ni 2.823341432742843 1.543323728586174 0.4437733169772078 -0.1076276638830082 0.2216738296978505 -0.9713378346331465
Ni 0.3820151184461653 8.898587564470942 4.697050692725329 1.0381505213823217 -0.5950478881178913 0.34459287252229037
Ni 8.463224998854583 2.4145087593786703 1.4413784244052776 0.5851049179725665 -0.29449852696906054 0.07535877654697344
Ni 6.784889187739605 0.7306352165056808 4.819991764455772 -0.1559708310730862 0.5031386634114045 -0.9085427536837964
Ni 0.5837559218069656 7.135206405351079 2.338158218345082 0.610831119094077 0.48701681814887743 0.4807332991330108
Ni 7.374615687949077 3.907964947463623 3.8659445559215633 0.9679925723099975 -0.2580693376077491 0.14642098260112205
Ni 7.307578563882878 3.8591434530199313 12.589087652448633 1.0584360111042352 -0.15787601851559907 1.2082829886677706
Ni 7.932807506579385 8.734980550490173 6.768709740873911 0.44080715236203444 0.47610531344269613 0.9239632020039249
Ni 6.758692948109216 0.6341176288939858 0.43863506660151236 0.15900627546530036 -0.00937655611889353 -0.17855848656561504
Ni 2.1183154076059543 6.362448897989113 9.322619467403799 -0.5160000927551048 0.6589125479823361 -1.5791263102461577
Ni 0.030090055903160162 4.838828709365899 1.0632057216928503 -0.28235160719388147 -0.019334181552237668 1.038855003648514
Ni 6.511131720373225 2.063091389879104 7.134591402410359 -1.0386773404200693 -0.18308388523979435 -0.3278457349709386
Ni 3.472539258378274 4.149547480922524 0.31998007841541437 -1.1361301206526047 1.0212329196913768 0.41440449399878954
Ni 5.915363402417674 5.647160800322316 4.9089345357888 0.4774816249649325 -0.07373589623156979 -0.2877380683167754
Ni 5.361509067870745 2.673810952346595 9.42085401337199 0.1935657586077247 1.7492999151821873 0.541365568103087
P 0.18929285527619163 5.697244764145786 12.244337023038138 0.09626081680696325 -0.5740926260224629 0.9830816054326359
P 3.904439050838672 6.142887437568907 12.611076261988991 -0.4492457700476908 0.15263122517689195 0.6567021705945787
P 2.3456140017965126 8.382075270650155 1.1746393850266192 -0.2710485234762364 0.3893133553581166 1.073809665346828
P 6.284816048771208 7.896403300249651 5.669878035047574 -0.45376448385365076 -1.7759375723743738 1.2596078641939918
P 4.840190372768373 0.9450665424247757 12.5914628984103 -0.8661406345685018 0.18534799868362273 -0.3636082372825286
P 4.1839678067983215 6.305475458407429 8.241777048475452 -0.722822973483052 -0.468808779781283 0.37047179717158135
P 4.637158243584829 0.976411853596972 3.8275249074033977 0.4629939728717187 -0.018950572960573814 -0.3246881631785634
P 0.21641971519224487 5.322552869866175 3.4365805233868327 0.2409249646179786 0.41888052749227206 0.5885244851770768
Ni 1.3911240272155385 1.053629891447236 2.326675157572161 -0.49430255317701316 0.34828934753727114 0.8232903721721949
Ni 1.86896868746142 6.563298758673327 4.700798423255582 0.07432647862771716 -0.4751113249605431 -0.22739144890791807
Ni 6.142048797195198 5.600828174084473 9.208903439784159 -0.1788986435138532 0.8485242070383192 0.020524859426229166
Ni 8.563392926501521 2.397591669689648 10.058855539136479 0.6116582429810627 0.7674149011608139 0.4929352405158413
Ni 2.4752245189075532 5.381257696025839 6.886992300592974 -0.09738053223370326 -0.6226988170659404 0.25902861619722484
Ni 0.6398375169482218 9.332985242775615 9.12934442299825 -0.2158957895634927 -0.908871854888441 0.3578368820163902
Ni 1.3550624911460296 1.2751932675982325 11.327006932887079 0.6165690500191188 -2.0168931331199715 0.02977620282116807
Ni 3.960934555583727 6.751830525266281 1.9425940981623733 -0.32950383939965183 0.34509038098399925 -0.6022418347631693
Ni 5.629197664575764 8.127840990478195 7.923317343898828 0.3219234559492327 -0.9231705308993005 0.7997755768797065
Ni 5.358641458850964 2.745465107287409 4.978885258830759 -0.3188455883548573 0.049682969047424114 -0.06448249595410185
Ni 1.0438096832002504 7.531892319754104 6.934215869507404 -1.5017841847205684 -0.551038829526793 0.5735215840103413
Ni 5.057470370666552 4.683563010930088 7.114410829374611 0.0921712201186219 -0.724048875470353 0.04539796851882504
Ni 8.325237095644875 7.274519901409555 9.052359040219404 -0.21223865242687961 -0.10427006026468495 0.008756920257023628
Ni 4.6385108893488765 0.14275913570142618 10.337958662562373 -0.021044479375125047 0.9715661485938686 -0.5243955159076517
Ni 8.000493900612327 7.00140268637149 4.655106049346055 1.079521628129941 0.021816324544143072 0.3409347069444128
Ni 7.331276917668991 6.18710091877641 6.899227432410706 0.26871858979147917 -0.3331152108999941 0.4232164358634647
Ni 2.4588033993320155 5.036152673425162 2.5567998796457356 -1.2929648423878828 -0.11497176295290522 0.606242214171814
Ni 2.225958957508862 5.20792966782078 11.38872184675367 0.8228430002221312 -0.9321349391814399 0.7171012405079263
Ni 0.9504410549272582 3.0477904531904745 3.7862935592236986 0.08288593816195403 1.485677766077009 -0.31475393478398694
Ni 3.6426479896649 2.5499266356366888 2.579262816967353 -0.4676890643545429 -0.2997286650197483 -0.13635562794532
Ni 1.2892698011827544 3.601725946483247 8.123441284689669 -0.4219108296781637 -0.42641128865167854 0.6274234762351194
Ni 3.564528187971938 2.808092606162813 7.0224065697956215 0.7793425058363352 -0.3285967542043502 0.2018693933774136
Ni 4.166293235481433 6.862837654302455 6.076000908064438 0.1382232772816781 1.3869877710032628 -0.5495540174511503
Ni 0.9754108957315768 7.427450031492776 11.249098143933308 -0.9888555318019355 0.7389808141898371 0.2798676644297632
P 0.3935414638835362 5.683168230561264 7.839336978992168 -0.3730367296852801 -0.3429440240649578 0.6838861872085384
P 8.588705437566066 1.754011832794228 7.952221580348839 0.08484229055737647 0.11066902181249329 -0.3731202905380219
P 1.8345032733934872 3.1750744195873537 10.426465881959379 -0.11978332540893565 1.5754498898358353 -0.12420099486065705
P 3.9988988133613295 5.963418397595071 4.054706272294405 -1.0617573621679843 1.1171204123193212 -1.410044138602094
P 7.014811914712416 3.9468850749144857 10.410892420395978 -0.2529207035272741 0.41874245925251113 -0.6597368436558444
P 6.410404699143814 7.692848148037341 10.127843178394434 -0.13232953750506243 -0.21503112757035225 -0.297270690397559
P 2.372152911687126 8.556539521297013 5.67839158748649 1.266198372927316 -0.17638101929832203 -0.5215441625017856
P 6.836650432310493 3.934837509976035 1.7011188746007535 0.05614029463699363 0.5740478888274564 -0.8215291665067141
Ni 5.306772002618952 2.86484962242225 0.4581898155304271 0.32566852481396175 -0.6884720068070079 0.030360871680044487
Ni 1.6142925430065382 1.0078022529613033 7.0229341016435995 -0.759689250381782 1.6100620805930657 -0.43225694879917814
Ni 7.067763487555665 0.722761916395081 9.061887978745196 -0.7899465066044266 -0.913718384347465 0.9996744767943107
Ni 2.780155962316017 1.7575647823344598 9.136510740256174 0.40463481620653546 -0.9415014679980043 0.3272811207167202
Ni 6.28687207033256 1.8781666786569435 2.5627650474651857 0.1632048869276802 0.10081269784370381 0.6136924998022721
Ni 4.1908482649181105 6.748466946133017 10.545936064659276 0.21985246021839558 0.3641900779279276 -0.7935712478412075
Ni 7.925755713329483 7.1460005185481785 0.33547689005218634 -0.030662462080863317 -0.1995785404607079 -0.16020698064162087
Ni 7.74945186444352 3.9947867702386244 8.162997155649634 0.3594993573204776 -0.16028179974361428 -0.013848218737001958
Ni 3.0839241303673997 8.464947367794137 12.261322646779204 0.2573519998257503 -0.1946307095371293 0.15877179085699109
Ni 0.18415550666433886 5.059057475029702 10.139695060579019 -0.8084643629029561 -1.057237877031076 -0.8193110758094728
Ni 8.54127265944013 2.1835039157946214 5.846153929254415 0.8972736085278805 0.9785338381609535 -0.7751850320245359
Ni 3.7190183695030274 2.684424712775155 11.563348414892216 0.013841533868782615 -0.3138548200084853 -0.6274353033096614
Ni 0.8776777304599244 3.1506726900039346 12.562625392484648 0.5754720228684927 1.8721191992039694 0.5769023275571161
Ni 3.0897855953449387 8.277723158773096 7.908086552595652 0.8659457449488762 0.39250615126380145 0.7072606002684207
Ni 5.441468467802811 7.790806754269669 3.5282682638570355 -0.16063326954576204 0.5485805977942875 1.6813101774057753
Ni 2.768532226383634 8.467138653931896 3.496420670224456 0.6827294478962759 -0.4735691772844038 -0.44821630034191196
Ni 3.6526305154035716 4.4155678145185515 9.400436276445614 -0.2211837774353094 -0.3431309432647833 -0.3254754349665491
Ni 7.196832946361088 5.973301729311046 11.521866376364247 0.13114117362391609 1.1047557201063811 -1.145266278625918
Ni 0.3748974964357468 8.95974518828275 0.32846928323057706 0.4009997905571094 0.2816661510910827 -0.3609093502941268
Ni 4.438030751840168 0.21637011818089646 1.685426380210116 0.27866413103996523 0.051410750371808235 -0.3939246288778829
Ni 5.692970403531395 5.7161457342887445 0.6419539566870348 0.7337077387163558 -0.6395521411778534 -0.6178180919348715
Ni 7.894022643704927 8.776642040022839 11.29910635959399 0.5820193370687072 -0.05671545041417329 0.3042016131894374
Ni 0.2942671842047122 4.832958226749932 5.637846481591084 -0.8648396563688912 -0.24662484321623332 0.2509067584210389
Ni 7.802168978687668 8.70362622167955 2.5875518302094367 0.4648374538383607 0.40988423753093284 -0.034571053106650144
P 8.544158303736765 1.4544549018882469 3.663510296165728 -1.1852047666920684 0.9941679451537845 -1.3104915384177367
P 1.75738442956592 3.267063349181017 1.5459740125198649 -0.42661594846331685 -1.2366224590424124 -0.6154207953472884
P 4.714123787559137 1.16714392396611 8.242674303498937 0.01870194728487747 -1.4354947174647148 -1.2364756490519027
P 8.434630067402617 1.6176380868629492 12.408694304536033 -0.6440418015180908 -0.4230781105133875 0.380142487492126
P 6.150299936355888 7.765557366674114 1.49138664006596 -0.35007986377879063 -0.3625417436912272 -1.015297270933232
P 1.7887928642071051 3.2467285745281678 5.968501640376362 -0.3150177299683349 -0.5147585070385199 -0.5721054203891051
P 6.833692646906442 3.978239403725109 6.080185092294559 1.0034198027693557 0.41105306102805333 -0.2354783396811106
P 2.4014782718516785 8.519693450684358 10.065784692503772 1.04640839051574 0.2923182314882901 0.2677109744625712
