# total energy = -340897.2164688102 ev
CRYSTAL
PRIMVEC
8.99860562859270 0.00000000000000 0.00000000000000
0.00000000000000 8.99860562859270 0.00000000000000
0.00000000000000 0.00000000000000 13.17036893044794
PRIMCOORD
 96 1
Ni 6.284122166506686 2.0136539494688392 11.290615123772149 0.9089399891222152 -0.15074146435334684 0.4181649894824862
Ni 4.78549440481614 0.36487545623290685 5.975804745627313 -0.688412357213666 -0.15483414636548173 -0.3080109596331986
Ni 2.8114613154092876 1.4425664493611843 4.769648760372997 -0.22855075932334187 -0.027749402199126402 0.3480600051352844
Ni 3.4589829707216952 4.346695404315862 4.896519199602604 -0.1900225213411566 0.4015916585048374 -0.12345537494388417
Ni 4.933836416653948 4.41810833764585 2.6347188047203227 0.908659481767319 0.2106790212492436 0.2672211793103462
Ni 7.088768472634986 5.977710650274401 2.640277243344054 0.6519052634265675 -0.5031124381591593 0.006093000271615313
Ni 5.096324236353997 4.221272840712866 11.605017401697609 0.07687444186055148 0.8933858434377002 -0.2091777541133688
Ni 5.492973768643883 7.833259100926722 12.464292442158026 -0.7512226076716675 0.3596610797093225 -0.5135657722819994
Ni 1.838442101577182 6.355058173744627 0.29584715336315676 0.7168240755871396 0.6233441639594232 0.6342692955123592
Ni 2.6919238398100487 1.615744612407507 0.31807370897367465 0.22430072579773627 0.022106602091052252 0.32838720929670545
Ni 0.48024207817810716 8.790935692363712 4.843363536992527 0.9028966111416127 0.9040422947102819 -0.8514370098097401
Ni 8.633118148923526 2.2368643591526034 1.3530582202104715 0.2729061455102655 0.8700623382204112 0.016356586981152475
Ni 6.880036819217345 0.5124759829766643 4.585434707528804 -0.16287887104682916 0.24497702320016518 0.9635769597408049
Ni 0.7445320218770836 7.259687985698215 2.3630140100808332 -0.01964219971095972 0.36524191623120966 0.6905671987731397
Ni 7.744289888246078 3.793056200292739 3.896559060733119 -0.42345092047177396 -0.2689559026132658 0.1494134895705427
Ni 7.31580328966064 3.76917390126832 12.725223206419997 1.5711893147872682 -0.35092704227043436 -0.7055423320257332
Ni 7.809655758673124 8.723959071550318 6.897387930362366 -0.10421401021576893 -0.8270652658335949 -0.26442459040181554
Ni 7.051901185859159 0.6226567085662609 0.2597852417805047 -1.2227439012881072 0.0609567421890305 0.14977395823375497
Ni 1.7122096634782566 6.748243242913035 9.103069421840017 0.8809931262003021 -0.471902073994626 0.2312517031942727
Ni 9.18568651889092 4.874976538010872 1.523705975387289 -0.9999038191962971 -0.9460186391420675 -0.4012106210163348
Ni 6.543371991259326 1.9552080066792388 6.8370540801366975 -0.11016354293098446 -0.12409763651357338 0.3507792038386604
Ni 3.5874740588037137 4.268830470834966 0.6037497385285041 -0.8192501406645503 -0.12705646203158116 -0.42061165125076594
Ni 5.871734073179231 5.57278240091501 4.8511338328506985 0.31420731825189757 -0.6060234132927885 -0.5620076698334708
Ni 5.296336241032127 3.0357155633322495 9.105320872938702 0.4717933163309036 -0.5129080840933425 0.31201828102037876
P 0.10814704074426165 5.454873672913141 12.47445996652415 -0.15118883630341057 0.15771429612675417 -0.3984073472395848
P 4.032140150096727 5.990677640814789 12.563030540980687 -0.3731999947360218 0.3241502883972224 -0.9222608746008375
P 2.4475217141494547 8.47994388592667 1.1660348027259533 -0.39049400592977906 -0.46498143561539274 1.7005147753586842
P 6.2200790910896595 7.653637936335002 5.76700200322614 -0.26050211541895785 0.07211687257090806 -0.07657979343826811
P 4.632761073489289 0.9786433422760626 12.55953998190323 0.8141858387677655 0.6366344533104261 -0.39500346376435846
P 3.8923468134937322 6.398512439754016 8.207246545099391 -0.40620473179681654 -0.8197183385502206 0.00083303742425663
P 4.73824272728139 1.1597852711990284 3.678089116432197 0.79644342718268 -1.8957887749067674 1.1774783445820882
P 0.14401638216899257 5.488546454732799 3.690350616300574 0.94498377011965 0.42119117790331984 -0.21110119638832678
Ni 1.4987717393787126 1.0537547024707965 2.518279548998291 -0.4839857446320374 -0.2660320440982515 0.20943357887791675
Ni 1.8719709057086755 6.46141269227123 4.873800420270671 -0.13346673643329918 -0.2613531505653434 -0.7251331096734673
Ni 5.845764097676415 5.616938558154205 9.382584106201925 -0.10603563680553997 0.42028306426675355 0.2927571187979216
Ni 8.73540529775946 2.2701591995408283 9.99015915193287 -0.30523802487375173 0.8803215540545742 0.19811069766592979
Ni 2.296714084401816 5.281614522417226 7.089187807651768 0.09591963141746063 -0.3551824751126786 -0.08335824981268224
Ni 0.39278103178099477 -0.012527858591483006 9.153353629431749 0.6882377793090148 -0.3939405697174828 0.43626349885540994
Ni 1.4888372788953068 1.1152511725283996 11.328439862174276 -0.7169282052651718 0.6598386593410314 -0.8033887481522616
Ni 4.001013973636492 6.785929402790302 1.5215328121565441 0.4762043009144057 0.7286524356806353 -0.3993522276513574
Ni 5.627223964252513 7.808575926011884 7.981032400896278 -0.295463204875175 0.3262825042488768 -0.0804701296316098
Ni 5.289236341284476 2.9130735688319467 4.830272365696097 0.4548026953101781 -0.33792728757665674 -0.3563993782389152
Ni 0.7952409636489017 7.457882272063259 6.780329570581222 0.10694092222862873 -0.30118365229871996 1.0452380243567225
Ni 5.206269198479222 4.8456500826527025 7.249418777089826 -1.803245001940075 -0.12972886665742173 0.1383307493938198
Ni 7.91446251705195 7.07855505538076 9.055959022411782 0.4060939172505651 0.552014820286817 0.6159332162073328
Ni 4.600717039267 0.6093954636256859 10.311292386780059 -0.4221579126919633 -1.4528069834909172 -0.2911221542976599
Ni 7.9741952604295285 7.017184565800301 4.736710264762981 0.6050700482405837 0.205763072004865 -0.4015199247266375
Ni 7.254792744300595 6.100964549949406 6.988250449642383 0.34340168042766667 0.07537626004847019 -0.4185845935184081
Ni 2.3032560706078264 5.283756190528684 2.621956982385571 -0.5205833412504132 -0.8021589895102185 -0.14285177719262496
Ni 2.254231667787542 5.273983704944464 11.355900006749602 0.15167657457310652 -0.4696914394965524 -0.1360542946548173
Ni 1.2868635782159246 3.206302127991597 3.7766292459336293 -0.5835787111360271 0.4272083306316772 -0.150009985503961
Ni 3.577944535568273 2.479655734426848 2.5720021237555186 -0.7740226362853186 1.053452698957031 -0.43786401057331037
Ni 0.9280621807024914 3.2236514394155154 7.963568807182378 0.026838460349082813 0.7835981957888957 0.10311743471748047
Ni 3.8850849388468953 2.8404728195745954 6.951663019497928 -0.4393326246990369 -0.2953955848620332 -0.28942625465247573
Ni 4.126436537239487 6.800975071203576 5.856072900149051 -0.32593771931494836 0.8198312099790009 0.7700523387836609
Ni 0.7136749037216072 7.3140125671640845 11.396056283839455 0.337088079504813 0.00761560756372882 -0.24282526696448503
P 0.21112708220449114 5.667375742039611 8.017250888214809 -0.10417930032309154 -1.0138967910412795 -0.9381667471978166
P 8.428534852646147 1.4667816967894853 7.868715406358529 0.7744808068686598 1.4201380325029864 0.4264897072980978
P 1.67616124980387 3.4946354457536275 10.132412707282388 0.8726974618504131 -1.014685348380846 0.189413427002248
P 3.941578184240754 6.120266558769067 3.6504570984916236 0.32039673489206116 0.17274676497984442 0.8839208413700584
P 7.019380225544822 3.946761381014705 10.385019761447303 -1.2611446125534924 0.12483888555497209 0.06318126064417506
P 6.17253945817858 7.756231037758287 10.20222838813429 -0.7691779065985075 -0.5933468462663846 0.4933407034843762
P 2.60662605817762 8.453164035927925 5.791551098918874 -1.1452719350528728 0.2794640012334413 -0.18660681079138827
P 6.9433600061935445 3.9420821061493325 1.6657093695036207 -0.22426267347094925 0.10258315948056525 0.8277535501498712
Ni 5.342922021759112 2.688459376688571 0.6366369420871113 -0.06219318569929289 -0.36490715859961026 -0.600999734825952
Ni 1.5276482644613651 0.9971534738108137 7.152445304807743 0.03517012014322975 -0.027328512611623904 -1.1309930565363555
Ni 6.912701757219847 0.6266898835559912 9.26412916284558 -0.8245424994117411 0.520039295821485 -0.7620276687069715
Ni 2.863212295699202 1.8659688358332847 9.012522753613412 -0.27312263239644574 -0.2286381768308256 0.5870815820829631
Ni 6.50134850352608 1.9660603249246982 2.661968381926707 0.16402198351233685 0.4060851754998168 -0.2981312386256414
Ni 3.90642063251189 6.925749735209827 10.439189566898392 0.7690668349419401 0.1953256787216249 -0.06788277988490245
Ni 8.19188952493546 7.15845367370699 0.48158107067804445 -0.2599287594139911 -0.17967254556540024 -0.601651509477338
Ni 7.490268253294941 3.9805241488894674 8.190850185999016 0.7435373232122678 -0.233349723373882 0.22421305117993645
Ni 2.8971910301062125 8.485379043654909 12.198026404688983 1.467944610463304 -1.1174546557302882 1.1976003121429442
Ni -0.0034752614480898845 4.973889209780432 10.186674298509686 0.00518745773821042 -0.34566605098181113 -0.18710329081183263
Ni 8.882883443468277 2.1625718720593095 5.754608223856761 -0.16142182688532844 0.6555222913538646 0.024739925948841265
Ni 3.495598296543233 2.5510866649678565 11.355518465875964 -0.16073508523094898 0.7139812068217058 -0.2397743959533032
Ni 0.9872190133274081 3.278093002753019 12.36517190260118 -0.17548653250851068 0.7175802370268738 0.3638002986886767
Ni 3.2137349761431304 8.535474280530922 8.008690514792832 0.3458622261530172 -0.22733694152089878 0.39777202764843106
Ni 5.539064626067799 7.6765843803863465 3.53110769374755 -0.5133541704918255 0.9687374208958218 -0.06437528095227622
Ni 2.8650390126177987 8.170661814536588 3.4231370256712914 0.808800406086136 0.2438421382647736 0.07606840101948835
Ni 3.4557794671600175 4.480756629208775 9.287059409407004 -0.1816587227574936 0.32751817642819075 -0.07817824827363956
Ni 7.143066058284324 6.0990028539481544 11.439452958773577 0.40433399713666496 -0.5817619696422627 0.19012896501203386
Ni 0.5944163848931887 0.1747952124565292 0.29692338658219236 -0.5572616705080532 -0.6960230796813884 -0.10316988522197071
Ni 4.651946100437314 0.37653944869539807 1.5922978458897883 0.1592926963574676 -0.8816040203114236 -0.22623830914008133
Ni 6.022595694559932 5.626549068839238 0.4153522339825583 -0.5825831799919773 -0.12950055269669958 0.2042142394605064
Ni 7.806353270450832 8.570460858755089 11.29118113605875 0.16745594889455032 1.0149866816713486 0.5700649929203085
Ni 0.1637944172201494 4.81811434979109 5.839149222765771 -0.42061242258171433 -0.4970590328762278 0.2449610823605652
Ni 7.819554224734488 8.815438895168345 2.4057519870916 0.5569364259581505 -0.3117457440852825 0.37292180137397063
P 8.611467504065669 1.5547880586805238 3.683330804141965 -0.1282201433223792 -0.02347340053159183 -0.9099635452907231
P 1.7786193721445005 3.2794157977630376 1.4373220620697633 -0.24051230256059225 -0.07156614227376062 0.4848092689745973
P 4.893648644444808 1.1306477865565763 8.074976942563584 -0.37460150306923873 -0.0729841056672098 0.46440139474220665
P 8.494827579440756 1.6288285848195285 12.15730411531253 -0.8515239130965915 -0.11298198621638608 0.2782648387190176
P 6.21956617057557 7.602723826357549 1.3684143405138516 0.39792912205158565 0.6605405705040623 0.465959740368262
P 1.9055716986842521 3.2554975043165775 5.953981327543658 0.01924316450032815 -0.44471600049813736 0.35459909180538285
P 6.704788976903646 3.983169738909505 6.1160030194782715 1.819104337569835 -0.10554738431521177 -1.6074107590131477
P 2.3439927577530955 8.52917525667369 10.18509414338207 -0.49702355165260215 0.5605038315944346 -1.6158671173106172
