# total energy = -340895.90286891453 ev
CRYSTAL
PRIMVEC
9.04610821487895 0.00000000000000 0.00000000000000

0.00000000000000 9.04610821487895 0.00000000000000

0.00000000000000 0.00000000000000 13.23989376711341

PRIMCOORD
 96 1
Ni 6.145030319735123 2.13255667614992 11.354864027088446 0.7665934337007829 0.43489207242918004 -0.002224518455144556
Ni 4.755530014020934 0.4792239120937433 6.106583455440934 -0.7885054032825258 -0.6915419039815832 -0.21664449480405917
Ni 2.828347131445506 1.5140109384393492 4.620298838514416 -0.22753517357463393 0.38347129475504277 1.0143845293109757
Ni 3.5834710101677354 4.195358812271962 4.9574527173320835 -0.12346874468032283 0.08501943956518906 -0.41252321781567663
Ni 4.96471221913112 4.4531276643137705 2.6737835181885576 0.8323959340178891 -0.20392730434770684 -0.25317061475455105
Ni 7.298137726991458 6.055084866292353 2.697747563317315 -0.09942533057787394 -0.023197006941753598 -0.8220588137579391
Ni 4.998635124734095 4.721371909605778 11.388307488958898 0.20455825306348638 -0.5570014748681311 -0.27365613630241253
Ni 5.547797212851381 7.695108091411555 12.441912229500588 0.5166333554637297 1.1507339866087085 -0.2556869534185016
Ni 1.7534433292392293 6.310990220053038 0.5543237974338341 0.5614852216710976 0.39877192966785513 -0.950118263132738
Ni 2.5869336429584124 1.4494579106039278 0.4243013710063022 0.6831369677473397 -0.29440262482114454 -1.0626060833215247
Ni 0.6012106806420424 9.06483360468625 4.997424755462181 0.35296515574638565 0.07664021436255833 -0.3566163793457277
Ni 8.496538997808885 2.1714911256739753 1.4361709869373542 0.47808352021498957 1.5485024147127138 0.39814612315839815
Ni 6.8088518287904645 0.7996361585382298 4.650618679236948 0.2817034320869213 -0.757569890045934 -0.2633691525541077
Ni 1.1139648972445826 7.409911439426222 2.6418218088348424 -0.9497711642059644 -0.7054970806100948 0.2918839721643489
Ni 7.561813687662264 3.804657400807295 3.727215478064375 0.940321074536658 -0.35708560567266245 -0.18872951356134593
Ni 7.666558574056091 3.807117942227031 12.729217529298202 -0.28388835555338204 -0.13997317009324925 -0.8884634664354183
Ni 8.005796676194004 8.82322110181962 6.771119607040979 -0.6655709338391183 0.7203328600713466 0.621364157414917
Ni 6.780419910841091 0.5794204153043232 0.344202606296557 -0.32337587212504304 -0.2067701731131407 -0.2786011390125137
Ni 2.012713835235729 6.468139211022341 9.160616511725179 0.2821340918664367 -0.47098573282794365 0.13219506880972717
Ni -0.03317931551215806 4.877815304138538 1.4070036203945082 0.23596427817859358 -0.9978978445098621 0.5696551590763996
Ni 6.272806597506329 2.127481809471715 6.892251518368083 1.084280740081481 -0.407721168441343 0.287635224190324
Ni 3.3884821487618337 4.324935265567167 0.59509460691453 -0.7718932486471416 0.592155911282077 -0.5990809205366844
Ni 6.113640324417169 5.6916755631488 4.765673415101631 -0.5658054463130062 -0.34552052654288234 0.2784008500762496
Ni 5.565735645334234 3.0757672357513663 8.916882696494842 -0.4942922687643681 -0.12707240287118116 0.9942671897358103
P 0.14220934334175275 5.542016749736634 12.478917144153945 0.0071324972797232 -0.3353153038751064 -0.7270059012161479
P 3.9763796720236364 6.15423925784281 12.712892922511235 0.03168164737399705 -0.11766730750719734 0.08989013739392905
P 2.2515582290051577 8.422297588133254 1.099125661417617 0.7028498727952347 0.08801091809334519 0.9726953771023052
P 6.227747932757417 7.8341558199511105 5.8457705880030195 0.20160842640654314 0.4968492308582669 -0.3925125790217046
P 4.6641733677050805 1.0471322501526408 12.492144363506656 -0.43085749734849016 -0.6640979488380175 0.4564528293190913
P 4.080355639223796 6.1250836512405735 8.296898627586703 -0.410532412637893 0.2055985214025427 -0.39438614189533366
P 4.580062654026024 1.0116986444868132 3.436692477593966 0.7850518975162867 -0.633419031696922 1.2414918713195715
P 0.3296944580282765 5.582715190352044 3.7194168282189546 -0.4736072296111908 -0.38304706273343064 -0.44286557755295985
Ni 1.3937610226579225 0.9588784189359404 2.535784233584838 0.6713098932054244 0.0500596356605525 0.48580659989086017
Ni 1.5623352482343078 6.732475537588885 5.12837983564109 0.6081725984253075 -0.23046417429597083 -0.47482670384058867
Ni 6.071783981957179 5.637426052508522 9.114845918264011 -0.4265408722510073 0.10535403735748305 0.040685136424187994
Ni 8.607380961103088 2.5017102579755774 10.42689254129467 0.0026634057647760582 0.32250041149862524 -0.11483112360998288
Ni 2.498019445845974 5.257326679808304 6.946323725288409 -0.4992863795448498 0.006426472351634092 0.3675163140876832
Ni 0.4208041455913395 0.26104444780683145 9.448424775136532 0.20396741355702294 -0.5320795148154708 -1.1331507263093066
Ni 1.3619639524727338 1.0477654777238963 11.443094338423927 0.5218910043182431 -0.10951511071370815 0.4640704937653492
Ni 3.964266933196334 6.742245334402543 1.721278987062712 0.40381283452587224 0.25065119076680703 -0.4486225346413952
Ni 5.586948768971295 7.873434021585275 8.148267452061605 -0.1142143159615904 0.4882913139859268 -0.7924597599445836
Ni 5.47824168720304 2.7913395029597003 4.697620448018799 -0.8385408705733622 -0.025494030506046417 -0.5047162923111694
Ni 0.9486653628224047 7.654889094528667 7.3156102849040305 -0.4643605142019422 0.31695994129637023 -0.1507671753849597
Ni 5.200698042721738 4.779719307242895 6.924874498228353 -0.13210765130224345 -0.5905029490596863 -0.08193668687480726
Ni 8.017031942529709 7.28129387359606 8.997448240385683 0.6080808100424496 0.3160772815811008 0.5427480502729104
Ni 4.65185256839008 0.3162302306417516 10.241839020481768 -0.32857001473147285 0.41555531977378113 0.9009708548738097
Ni 8.017086219178674 7.3120144569101155 4.6551064534955175 0.5751141253084419 0.06254928348713099 0.12631521299018245
Ni 7.288196054122746 6.26175225333384 6.895746934561413 0.39551614173471883 -0.7222843273707625 0.2841426376560332
Ni 2.4638070647818533 5.075834611778307 2.6901081249755254 -1.499489732259437 -0.2335153024174688 0.8079105472820151
Ni 2.454661449431291 5.093691629287713 11.553223468395059 -0.8696643314510442 0.5536870657829174 -0.33012321815120566
Ni 0.9792864389466903 3.1478466255765682 3.7859744736228085 0.6185711680508121 1.2945776954009576 -0.02219993313580693
Ni 3.524264232255343 2.543087156703047 2.334855697560559 0.0803171489935133 0.3981039570665531 0.7955011178740687
Ni 1.1982113025460515 3.380376835849763 8.211170469768497 -0.784736680268713 0.4665852897674028 -0.2403873469469537
Ni 3.7769582176189456 2.726487953554972 7.00521479402599 -0.3548788278293308 0.18010474800681242 0.10070239751808464
Ni 4.118086956362466 7.029974896672899 5.975388653395764 0.07674794358501622 -0.25377868065219517 -0.12461879912436605
Ni 1.0784136921726644 7.1885531727316065 11.276007293029178 -0.7151006651381298 0.2421596083560281 0.33802653215868234
P 0.21269933196310323 5.730863303701357 7.9519732372481 0.3394910325193508 -0.6151066065409794 -0.16121408174989654
P 8.425717017018034 1.668771756854203 8.057230133363827 0.5605899635503377 -0.0651944344194619 -0.11921819693408499
P 1.728765546176585 3.388853039196426 10.378050794112916 0.10765954556220814 -1.0038769449114324 0.037424206284729096
P 4.07002498370417 6.002581254527108 3.9234174225746394 -0.5060164991798317 1.1665403575133457 -0.32235360150811576
P 6.916346732065172 4.0436917628481 10.37185511463359 0.33094314294933974 -0.04174520225758618 0.24418306654396013
P 6.306620949811375 7.937317637416799 10.216907946390622 0.7900192688238911 -1.6551232345977624 1.5148944968502813
P 2.5316257376633216 8.631461701027119 6.0376964371856765 -0.3099426294382727 0.15670462391531723 -2.242250068096364
P 6.883663143280225 3.9280191777960347 1.615002594557263 -0.48280715094290405 0.5576244531641107 -0.7468417049951525
Ni 5.0894399584521395 2.903601705235146 0.34083564483910966 1.334125890007225 -0.29864005994125986 0.023981707626578055
Ni 1.607212990820004 1.2679748886820903 7.088189316520053 -0.322969894935876 0.027617761717268565 -0.018705289718987137
Ni 7.033792354316754 0.7380231158550657 9.460526658634043 -0.567942547260667 0.5478902565954822 -0.7258833575759305
Ni 2.716591511227064 1.6129572695021077 9.31320626418144 -0.36675526755194254 0.21803571872463093 0.029214673890743236
Ni 6.274263020920216 1.944153381485076 2.306032083127823 -0.419717935791903 -0.18260257472800165 1.123218811907575
Ni 4.083521777080073 7.043697842752822 10.50596185889572 0.5097363712335802 -1.4686094977408126 -0.9301230509577335
Ni 8.269020331456773 7.208789316687302 0.3069633974418348 -0.21188332596998993 -0.69570220600686 0.09558076002080312
Ni 7.753428350724191 3.8431576371396323 8.15198811634814 0.37571453362775936 0.31752661243311764 -0.4085140966562836
Ni 3.1213596208817656 8.254700342238236 12.328631435446235 -0.24079332413612076 0.8071705837921971 0.4438117435163131
Ni 0.1601568219327669 5.007681232894889 10.038368528064307 -0.26557721594902 -0.16801927759718804 0.7635677595005816
Ni 8.636554659921647 2.23186485153911 5.9043043354682485 0.19760084790904678 0.4567611045881294 -0.4003973810864201
Ni 3.5066514596662777 2.8102820534484017 11.629631420975201 0.06787918034047664 -0.6308882948552683 -0.29619365528329633
Ni 1.0696118289322125 3.1836149372443456 12.602961902308824 -0.6268123250136818 0.7325191177248932 0.07856674196130985
Ni 3.1406459234805766 8.4235097666268 8.043527088721858 1.3175199060194278 -0.05900450355866612 0.6470358511494083
Ni 5.423223257369094 7.8034171444207345 3.6494976490225506 0.5461581043957239 0.660131765101418 -0.4294570174565378
Ni 2.9865364248533 8.2702596482748 3.696220797673049 0.902555168641794 0.016538621084971516 0.4198125523882383
Ni 3.42241410047297 4.162186733646333 9.191809301885227 0.3221862226923161 0.47617190501457346 0.15338867216820679
Ni 7.190606639284107 6.070264235786165 11.250427612982902 0.7270506384111544 0.3349800320228747 0.7593256963947762
Ni 0.32527452958091285 0.21308288694912086 0.4797223526534031 0.7331624077358471 -0.900813760470655 -0.3210467097712342
Ni 4.640535887080928 0.11941586460900161 1.4208125045019593 -0.6447681381611541 -0.3039771558834571 -0.35754531891790037
Ni 6.061127666543763 5.6348569577908565 0.27198300179486284 0.04627317203492676 -0.6306766930650944 1.2985086550242475
Ni 8.191042879110732 8.61298954816278 11.538223211842832 -0.941814885473365 0.24124943783693292 -0.566480875113476
Ni 0.09631753203123172 4.813054215815419 5.906528773464988 0.005734331380615931 -0.5873988562130658 -0.1174168820592881
Ni 8.070313519596784 8.568229404983175 2.476985435150497 -0.40577484334824954 0.9804493100161114 0.5404091177270887
P 8.697136446274481 1.4838964443720681 3.664723153667982 -1.8161699375318594 -0.7171688605210681 0.17692069385187595
P 1.5745565403595396 3.1931585813539822 1.5129751590549385 0.5928881614624112 -0.08740953706392043 0.48787170995000495
P 4.614410726712556 1.1659347886283407 8.286624057937676 0.9869454592634165 0.20749908085936522 -1.0258984434878462
P 8.325386631406674 1.5565728773358825 12.468246354967473 0.1884628901635206 1.1822397705264736 -1.3602683527305477
P 6.40929427743638 7.624521309432884 1.3973649921491829 -1.127385027470123 0.15359513175205805 0.15985705350136986
P 1.888185110294247 3.296609874280816 5.968239514116289 -0.5368347701122691 -0.6612301403719192 -0.13275994017426168
P 7.027867153471433 3.935753600273513 5.833973558350528 -0.4163785870060248 0.5867519666576864 1.0216900618334535
P 2.4356193917528213 8.532063064556322 10.085965530763136 -0.8510760269258956 0.4119143805870842 1.2594050041545666
