# total energy = -340872.4850763195 ev
CRYSTAL
PRIMVEC
9.18094619489361 0.00000000000000 0.00000000000000
0.00000000000000 9.18094619489361 0.00000000000000
0.00000000000000 0.00000000000000 13.43724278048951
PRIMCOORD
 96 1
Ni 0.5905845635366691 7.055502082642319 10.590872391229567 -0.2682907582254412 -0.581518743283205 0.4397419443223136
Ni 2.1363051944555957 7.106171724817928 4.508436763932717 -1.881887334334327 -1.7048542832743026 2.7751307386568915
Ni 1.086399727835521 4.352411173435634 0.43935326315448126 -1.0049753201819338 -1.6016139498257125 -0.06464884632863704
Ni 0.4853654113138403 8.584102085054438 0.2547483051762509 -0.5162680017045108 0.4689075101426763 -0.5638238971066031
Ni 1.1871789744674592 8.693924563710832 8.96308420016504 -0.14914609484176894 -0.2181699303096501 -2.233223696228038
Ni 8.871539149238888 1.2535572156215917 5.604149643611495 0.4389626429541279 -1.2716100308611908 0.9535781966568804
Ni -0.02610969294858059 4.53446015598685 2.7390343136490682 0.5063602556724957 -0.25765847532257563 0.15237385775044726
Ni 4.7539765800525915 3.9299682951195756 11.682379479446006 -0.9220973524397796 1.4115729165417947 -0.6124115762073195
Ni 2.803658994075615 0.4209078241084553 0.2805265659663717 0.8597871815466483 0.32106625015525997 -0.6783053506866511
Ni 7.073625270476104 7.290874000826067 12.587794296396945 1.4050256023415804 1.518758607791378 0.21189438171358344
Ni 6.891851716311418 3.6372980915910227 9.670366852980559 -1.7411328059903628 1.1516462140103325 -0.7195476451658898
Ni 7.6523462153102315 0.1892110386956617 1.1428827451561925 -0.5121763481336404 -0.03353901229770998 0.730638869983045
Ni 2.7686061414163516 0.8664334374051113 2.5837129017268845 0.47221600569061895 0.03905120036519081 -1.3483949983317294
Ni 6.288030064518036 7.415652240871132 1.8400828828354059 -0.2924190187322125 0.051319219099266455 -1.9771641899614658
Ni 2.9336887353572174 1.4511495401194123 8.831870116821353 -0.540777813920417 0.7052533400304049 0.5777024548609083
Ni 0.9291209381797194 2.3508088218864605 3.431979082756367 -0.5720977070796212 -0.18713131583629064 -0.155006667387604
Ni 7.988350484986434 5.627093746304205 0.6898315102448696 -0.04051724338775602 0.35561236356124565 0.5938602955676933
Ni 6.470850246551542 4.387482387987333 3.732516439098886 0.1806667911578695 0.45940908373393785 -0.486724226609123
Ni 5.142495862094167 0.9880993366823678 3.8423260644305763 0.8301295065812154 -0.4150763232548335 0.9169620880957433
Ni 6.263884175965427 2.0863424851387506 13.336705195552858 1.3464874968963714 -1.658677527607924 -0.9109241094317795
Ni 0.7388054316540659 1.8153576765764576 0.8419212290984143 -0.2661613705872642 1.271700276582152 -0.28457432587681314
Ni 6.345328349862842 1.7256598320293104 6.050750345710246 1.4009313776675485 0.42892094244740964 0.1616984775854828
Ni 2.159670702579699 4.0865126090779595 11.488990192126659 -1.2958691605188715 -0.651216207779343 2.030477813782942
Ni 3.4281377748588717 5.27477493519911 0.01230797649947858 0.7568522951536192 -1.9242264614221698 -0.1751461184499564
P 2.061407035211417 8.2818561546208 12.176883604624967 -0.16491904140530952 0.10466215349678104 -0.6933285635683608
P 1.0488404768588189 2.5728041014309873 10.064077960108254 0.9114493858076302 -1.0097431738842222 1.0308295622408763
P 7.791602807540643 6.1613054638748155 2.9188918043381142 -0.7509786099816614 0.321480197764227 -0.41897205876481397
P 7.996475622389118 8.379587327108455 9.838977684552894 1.0345648609135925 -0.400957110244632 -0.8071739262263067
P 0.5604829951726228 8.754500446855364 6.779035331093424 -0.8321583640857863 1.8376998411838352 -0.4164444072469538
P 8.007006167700846 3.527117556032137 0.2344648406974369 1.6571963150767073 -1.215427827242668 1.5712739040812744
P 4.864845686577808 5.551295854330689 10.04241735369678 0.15589601197109282 0.13102855930545176 0.27447991775528857
P 4.3306064261685435 8.890819136296106 8.487366127136784 -0.003879794670380415 -0.02612420789087759 0.09391417095165762
Ni 4.679234496894114 2.092346823965141 1.5992069873941335 0.41056120899329934 0.10927754078160534 -0.547557812956728
Ni 3.0448699940538346 4.94742829780622 3.9687302500507995 -1.7940471374908908 -0.1779679041694677 0.000537360560708752
Ni 2.845055880571326 6.359320111898651 11.071024861280984 0.5929149009352885 -0.8591675456847785 1.4293652075282093
Ni 7.4793037409986 2.3965850197280245 1.9959413801113257 -0.22106473535894183 0.3764046177162485 1.4014080601936512
Ni 2.521354078826871 4.9467397268398905 6.23451800139342 0.9371946130925344 -0.3851908485493108 1.3831321447025986
Ni 7.498620451840688 0.3446417038778357 7.934490464000166 0.4156103413814326 -1.047972649679066 -1.0672435820935362
Ni 4.856950072830565 7.260898211425203 11.820971371170257 -0.5496162381476535 -0.970402981523703 -0.45262651359446565
Ni 1.6682513753298926 7.752491976653147 2.311514372074609 0.6835105490366744 -1.978209600506845 -1.1884957787385144
Ni 4.185033342940338 1.2831290433888756 6.788817629288407 -0.8196255217260981 -0.7888820698956542 -0.8463891629731874
Ni -0.1809839927899607 4.338896820603147 10.497738118513125 1.0499102330214112 0.14136953622014362 -0.8215996147333334
Ni 7.00406124098442 3.855979049550951 11.883830555639134 0.57158374355768 1.401287732565703 0.08776306374859724
Ni 5.881286604234283 8.637801439481896 10.16096081316539 -0.04788576793768527 1.8310627954832916 0.7809923827349323
Ni 0.3177911085694849 3.6569085927120772 6.915973734403861 -0.44935195660825195 0.6288080152874719 -0.1610186779096388
Ni 3.8662800712072354 7.36357791392421 0.8998529997322424 0.004896151750036729 0.9849911637505229 -0.37656196922971924
Ni 5.117661402575227 0.46236714103844584 12.185173999059572 -0.10811283104954283 -0.12236342743128603 -0.07185333449687625
Ni 5.601405458787018 8.563527584580521 6.5596988535735505 -0.033960416105844736 0.6830423511510043 0.1677382560216595
Ni 0.5906607653902762 0.3638574243115286 10.865300972718126 0.39409894967221804 0.1736145122967784 1.6530264999697337
Ni 8.778123021473563 2.2245891732852137 11.937565715756843 0.4712137896783498 0.23637951133914128 1.0360769266827448
Ni 3.5015394398695623 2.0548334777195274 11.236841012824646 -0.6420890486670942 -0.9720446308921841 0.06068986168088902
Ni 5.7283687640319 1.7445817621840363 8.636398590899827 -1.181674642051623 -0.23683639637090176 0.2744374945531273
Ni 6.776079984505939 4.465915211525336 6.208006183000504 -0.3844660545681443 -1.7276540547776376 -0.3582477443015637
Ni 8.284215657798754 3.273053231349106 4.736561243172194 0.3575975123120745 1.397389168842245 0.160117249141292
Ni 2.8095531615473934 3.4347664180280675 2.0577796433607944 -0.916671039217886 0.21113822027384932 -1.0540340253817977
Ni 3.7820173468209797 7.71579573462091 3.2748848301195417 2.5701834776851022 0.08379225202630732 0.7266449183323034
P 0.7989332846231729 4.8809857900285625 5.0303662116532575 0.2585151668959161 -0.28939745829706937 -0.7339869605196715
P 4.557972559250437 3.4844628799045982 3.356247293595619 0.6523456933980958 -0.9346564200517129 0.6989219984957382
P 5.877494873446364 2.1416393242080924 10.871266751570403 -0.8553800536178882 -0.7890761881843315 0.5354535734940262
P 2.7446622336805317 2.6523294575688983 13.28892296096272 -0.3406547138101488 0.6767801722913763 0.4318761684209917
P 8.835210145055362 5.682776185114691 12.132849032280905 0.3382525321265594 0.9396572157004139 0.11098963837670563
P 3.6292372208118624 8.564519126772035 5.454983138033673 -0.2135797398358064 0.5805988025720968 -1.2805428145744462
P 3.3849046991196174 3.213762680675055 7.49462214976287 -0.4853913667303124 -0.22203841212612083 0.23851378407332474
P 6.196339954641644 6.416223616556094 6.593346103366881 1.3636650371169226 1.3348833369985398 1.2597883556359144
Ni 4.682236666307309 4.978175286689371 7.8026713563007295 0.8609966284737172 -0.09858046607907538 0.20417258758929352
Ni 7.9578146578662885 1.5588420392532953 9.806392670236955 -0.6668621418467161 0.0043400221362505905 1.1544901112170312
Ni 4.636717534959842 5.370660737497002 2.335513365487735 0.2588884910749348 1.2938418456761975 -0.7263489843584394
Ni 3.0971187589788927 4.313860380267418 9.526722686552697 -0.08422959667404203 -0.17343324952390776 -1.5666831993867987
Ni 3.1343566768379745 2.117566883225224 4.340847771674413 0.2773904065338642 1.745500338930439 1.6501355515751839
Ni 1.8044507124698037 1.9838831253489693 6.3868289810508125 1.93530740182668 -0.1729287990836635 -0.860734375951266
Ni 1.0646959709768253 6.758278129789775 6.964012117393472 3.2068459560199867 -1.513175971497278 -1.8491721034894928
Ni 3.9025539897134562 7.119282116016836 7.00319547775609 -1.429032763889455 -0.36167065394018355 0.2894591647729402
Ni 2.6213988497613916 7.059927298719261 9.016094065531549 0.33866467996331356 -1.5700955675024573 -1.7032486293500797
Ni 5.779130215669687 4.135290976332718 0.5775907703547267 -0.06717521229491658 0.4909760599069415 1.048980007897658
Ni 8.150329919105708 6.038813279437964 5.07594501915114 0.6981028450285526 -0.07113573960456136 -0.14979401283841298
Ni 7.6777223506560155 8.234418205513828 5.73901957973908 1.2502135674632855 0.7621991612878293 -0.5175694941247537
Ni 5.981368098953675 7.008321200029444 8.723659812320792 -0.7212024071604934 -1.1869626299234397 -2.053118176890277
Ni 7.451274312195895 6.263471033385629 10.35589525373318 -0.45560230839333793 -0.42049980826324995 0.608611485734939
Ni 4.883400378883824 6.031266541646996 5.072828087910224 -2.3013659004219136 -1.7732517980120945 -0.12306688125621384
Ni 8.362097624563694 7.200331509226889 7.811982671954743 -2.356583426134322 1.120523010242967 1.9000418937561665
Ni 7.929913762310631 4.984960005944268 8.129532321638703 -0.12017001932439304 0.8464295292928197 0.7880426047134944
Ni 1.5065565505433665 6.502992739259788 13.176882365700125 -0.9373571068123275 0.3151056616964509 0.16829515696639405
Ni 3.309400597425069 8.780978295747275 10.53008167394354 0.049612520820804876 0.7148463830354785 -0.0423920918129657
Ni 4.64583421455404 3.425548748025474 5.725596118274148 -0.06652626585700801 0.8486293651576159 -0.8326651285188756
Ni 6.219889081690102 7.317094783223882 4.03476053334328 0.7794360939914061 1.0790431458316256 0.4044543247646131
Ni 0.522273733203706 1.581867852367343 8.224506455977176 -0.8802688464397678 0.5049494913678981 -0.5160306888827241
Ni 8.516181444935727 8.180461784592273 3.172559512144539 -0.9542765082754856 -0.0643192309033602 1.2295910061169275
Ni 1.712879954894241 0.20787957473477828 4.441505829816277 -1.2142291789488766 -0.46487062106914134 2.1614058429547875
P 2.10819313713693 5.641360936726546 1.9697251881866198 0.38376594317732615 -0.20171101342267841 -0.36318451948154873
P 7.45056737933713 2.8716163579791965 7.739569794851702 0.5514808021602179 -1.1833201480748459 -0.8908129405042013
P 7.574133734481455 0.31897728682081467 12.479705180386455 0.2675685353474359 0.3974323849208252 -0.25817963793336823
P 5.561110285837435 6.138242926975897 0.08069133630756173 -0.6190218824349855 0.1894990447375188 0.804311259966531
P 0.8585102808192169 5.2533741495656 8.572611212768335 0.6552255860490521 0.4585842738397973 0.32887957555209163
P 4.609183877252892 9.182139740730653 1.9747636914709057 1.4885738566778814 -1.041504011235587 -1.6386015827936555
P 0.7202250326986392 0.3326862757131177 2.402444299604175 -1.7794975218114901 2.600138115065664 -0.6417848871631141
P 7.349733047027884 1.466068577723211 4.147351067284318 -0.577927940608153 -0.7837403777937147 -1.453542576105361
