# total energy = -340896.2787690121 ev
CRYSTAL
PRIMVEC
9.01884845266610 0.00000000000000 0.00000000000000

0.00000000000000 9.01884845266610 0.00000000000000

0.00000000000000 0.00000000000000 13.19999634965454

PRIMCOORD
 96 1
Ni 6.10310899810603 2.2008876750402844 11.374147136241607 1.0789546998828774 -0.3802013657545194 0.09681386109695585
Ni 4.703194290987995 0.27467625087485203 5.928382333683359 0.14734375152570753 -0.5877343851756136 0.5416630447388477
Ni 2.8568375565859623 1.5146434808615896 4.768590864472149 -0.6603353964717918 0.4526609663768269 1.1354500638664444
Ni 3.3190264936220455 4.2115227376978694 4.540310276734547 -0.19098051437905172 -0.44464658071278257 0.789273391796802
Ni 5.028864915929415 4.430770948507228 2.6303634442340105 -0.7621675367189454 -0.06478948567155939 0.08084396803126076
Ni 7.253841935727898 6.091871512681576 2.5710554954770237 0.010221163507375945 0.04897103058206405 -0.1186227294419312
Ni 4.932444404956036 4.6654233528197695 11.357078965161529 1.0241074130256944 -0.8594850769251972 -0.7356278385572042
Ni 5.568444593276282 7.926494724983117 12.47402278629647 -0.006883357383394597 -0.29599310923671607 -0.17849215210405386
Ni 1.6489341373384032 6.717094176858785 0.33471743202751103 0.6920098447569373 -0.194893990500845 -0.015824625737082425
Ni 2.610812384119139 1.4080587274537328 0.5872217453682731 0.5244201984980001 0.062394503076821574 -0.8103800918684302
Ni 0.5157076868412585 8.973023885242117 4.831093289422828 0.43459870955847735 0.5822530503460681 0.8885400853096245
Ni 8.712234857526633 2.305596507927847 1.5230950439364332 0.06772054327542532 0.7420003177424511 -0.7151564580767296
Ni 7.048987807372334 0.7169010645276527 4.803452322064188 -1.0784268524038654 -0.16409577417306578 0.09987501652078282
Ni 0.8004552860094388 7.391361340023295 2.589786742249132 -0.20950505554580048 -0.6607316034689459 0.08181070281990425
Ni 7.640182355573249 3.968365559103418 3.754884000124233 0.40429620192019405 -1.2391922766521175 0.09273249193873062
Ni 7.505530945150225 3.8004165594451758 12.727898866517695 0.9391977595654922 0.15132253366779747 -0.4105529814631833
Ni 7.942981180324931 8.684925783798509 6.9639220268559265 -0.6168750112953117 0.8184772670542678 0.3607170317776626
Ni 6.718501117249006 0.8230321698481499 0.4706008171768437 0.3523241797282771 -0.5671619603409006 -0.4284663714084943
Ni 1.7577194898181434 6.425045819704172 9.173179193448291 0.5288394106116182 0.24325978339874232 -0.8301847852991832
Ni 9.195618088902577 5.036224296432108 1.3318792185173525 -1.1215920749374297 -1.409627619889966 -0.3495057364428755
Ni 6.514855514613246 2.008641897104773 6.949784981588808 0.07209553241466939 -0.27763903220956054 0.28669162933013204
Ni 3.5638431403690642 4.201295363322805 0.4245857494528442 -0.8411759942033643 0.6455109298644496 -0.11919325723342053
Ni 5.966347177097674 5.430510321942743 4.714880013190616 -0.26460328207152495 1.3309878585988755 0.5109383619614813
Ni 5.32093131078134 2.903843795777175 9.093596872914283 -0.07144710019739307 -0.009620553808899559 0.10185553728592137
P 0.14982742705522936 5.510570641455481 12.321484293335468 0.6690092700967059 0.028881973141672842 0.6375096568265278
P 3.9719911362628326 6.09062691156715 12.570740017390605 -0.7602438373336714 1.1058037017549214 0.01960620426670172
P 2.355560929477985 8.488350958508473 1.5060800840634205 0.3856281931970455 -0.6389649012158156 -0.7806180301146491
P 6.418822814132043 7.678647745087932 5.653611384897627 -0.30763069347564437 -0.1843082445651987 1.0406095244457756
P 4.62670543554274 1.0638633873744097 12.557962112615833 0.13743137750800202 -0.6734575356760466 1.5326137685069152
P 3.838088290278195 6.141881028474989 8.136028733905896 1.0528803713933286 0.827493354509949 0.07741514485536989
P 4.863044364553815 1.093526380601558 3.9166370507563117 0.23734444635557186 -0.48879730708806785 -0.459249418227622
P 0.23893455365405866 5.453102537824167 3.592458143382472 0.6920769505494467 0.5075424489060549 -1.3635768482784902
Ni 1.2990028095143349 0.8826025671010044 2.846975445581436 0.8642243913823955 1.026419863208955 -1.5522125165744494
Ni 1.966902665528232 6.39925191255013 4.69579342378149 -0.3709268824311289 0.2003303310250679 0.061630628327603534
Ni 6.11252467610212 5.692372592648201 9.107773601115484 -1.0139070754539248 0.05513550752156311 1.0041988470272254
Ni 8.561096991761795 2.496137723467514 10.242287041315736 0.4739065060191645 -0.529658564078804 -0.027114596828604915
Ni 2.321072852220272 5.1909246074157736 6.861424615658634 -0.24776307058573457 0.7090349185600241 0.6058539775944598
Ni 0.6747550828767596 0.04142357187360684 8.93074803217059 -0.18808673777102444 -0.8105089041368106 0.6218758069440128
Ni 1.2856278569585853 0.8291135794963914 11.46007872622892 0.43520908944896664 0.6791355598974304 -0.9903560276068621
Ni 4.031686895511995 6.551093248510078 1.5069648331165015 0.22382738570574354 2.176839403901038 0.40655671581959657
Ni 5.581404678793889 7.815184094879904 8.104111930399798 -0.1282376268238759 0.1536532386835031 -0.7222519314709303
Ni 5.292558012911893 2.9590752249419836 4.97249170052485 0.2134804952537807 -0.3590517282600978 -0.32193425458251007
Ni 0.747635496975046 7.302958585504442 6.888087939823042 0.4687167342881089 -0.3525797473825089 0.03978550742805406
Ni 5.036521918437732 4.58778008474664 7.088780771409071 0.5530787427749572 0.04177759815741837 -0.5909726896072532
Ni 8.268805125693492 7.051982065125881 9.186102301686413 -0.7704868552179183 1.2598649745101205 -0.09876995638206215
Ni 4.599288135630751 0.4420769045348545 10.446517065344354 -0.5459634718864146 -0.9804773350405694 -0.36656140637358164
Ni 8.302364261539712 7.096129329293376 4.62741702270164 -0.9707876185566313 -0.1984012323231551 0.40570850888668836
Ni 7.325424537504693 6.122842238963737 6.969901523514364 -0.6418139406288366 0.039217550739726006 -0.745620945214174
Ni 2.272091485173558 5.273104356362498 2.3395281222235296 -0.036822311034672074 -0.6947154166135584 1.2598564898696882
Ni 2.26190920504177 5.362436052292844 11.314944708013888 -0.6139305839550072 -1.3626450804928403 0.6973168587921474
Ni 1.1059453351998503 3.3120098293682534 3.6704044447704174 0.3284748839145053 0.2876527076918207 0.05253535089455468
Ni 3.5414042449147787 2.5142295338699645 2.7796813063402173 0.17629643000431575 0.25974081177290104 -1.066583322801718
Ni 1.0882142787436102 3.2482014751322925 8.269269596399237 -0.25820097808960696 0.7703683273621829 -0.08392055007405547
Ni 3.752291983020711 2.5415476264467456 6.988051956433074 0.49246010065163576 -0.09496318104146226 0.28095575528761935
Ni 4.075762008890248 6.733246934800355 5.897758833074426 0.7860330304826333 0.9415055817630623 0.2809012479006001
Ni 0.8451355641324598 7.476778855637257 11.313333941644059 -0.40800013313434247 -0.40913861761415987 -0.18195517095198988
P 0.15316349917280983 5.426505953139808 7.937382279079746 1.3722838891341849 0.7198628624134634 0.34543259481476635
P 8.646640771256932 1.615871038168222 7.977286174954942 -1.345025053418232 0.27496482781150705 -0.14780063655746803
P 1.9658023659922903 3.2771970735589515 10.430478846780707 -1.6389602516846546 0.5688971978644525 -0.5908333358159115
P 3.9899566827841095 6.022895358166151 3.7123673437936087 -0.15906978171338412 1.4411416313378471 -0.09905509172264876
P 6.856913387561273 3.946332511838619 10.309765165069521 -0.18655204629405292 1.1774006972666173 0.3969155931854067
P 6.166439353363262 7.855290914849844 10.274969545072665 1.0386503438368757 -1.1565647343578727 -0.36699875102131635
P 2.3755827734926607 8.37407312719768 5.864731809298866 0.4083654868935612 0.3457984627946174 -0.3719805205066239
P 6.810024393402578 4.076104725139149 1.639663662805662 2.176595663321348 -0.4573234048495027 -0.2809398144480194
Ni 5.397726807080874 2.8546820517573557 0.5322617835479874 -0.7739686431189315 -0.48508617678506777 -0.5906834405016086
Ni 1.64639082201762 1.1988214386517124 6.953454751106633 -0.30502230931851987 -0.1962718446849781 -0.24645129375284652
Ni 6.858482667227289 0.7743285833400175 9.161497078785134 0.29676212619225667 -0.21546435845302894 0.13084035455404563
Ni 2.7751267877693113 1.6644014627821733 9.282580533291185 0.33918198591936427 -0.7661347488968095 -0.29367757372966197
Ni 6.36641428459633 2.0482436615500172 2.568059433953746 0.518137707923398 -0.08342689826708859 1.1144811749242611
Ni 3.9489389590999897 6.725265253740449 10.370102164458071 1.0934490368443104 1.2834728437370477 -0.5575141528384915
Ni 8.050413705506383 7.105545007289466 0.3007434291431485 0.46506088270307655 0.2911807754497372 -0.035575840222080664
Ni 7.581343386946336 4.006740760131548 8.178850227321067 0.2431965342609747 -1.3979023610332375 -0.11338282119923053
Ni 3.13063176406233 8.378248854125065 12.453800723841645 -0.018045030427168925 -0.44247888363750243 -0.3203327144233451
Ni -0.058618006834859064 4.997867133101289 10.192272114213129 0.8953815337114902 -1.6577449884913256 -0.3995059796204023
Ni 8.74679508557359 2.4105849251237226 5.829356277333476 0.3020280025768863 0.42231397865385334 0.13559895228495358
Ni 3.567207170917476 2.708206930747286 11.646026642148463 0.3111980991119286 -0.22182809588752764 0.1236806035808128
Ni 1.1229458649150146 3.07190102161928 12.502970584825256 -0.33849061627929444 0.9849150590969489 0.2369353838426113
Ni 3.173886162212954 8.479287015609936 7.968890528741761 -0.0628390468134079 -0.6671963852576832 -0.2108602840221143
Ni 5.617985128939622 7.780055679367669 3.634896335729795 -0.6513077390518848 0.2330656164745599 -0.299314203190149
Ni 2.930999549078161 8.388467209651473 3.6613486188356714 1.545881432150099 -0.8504381362315806 0.05678846974395381
Ni 3.337163398267772 4.205894976136988 8.911568548620314 -0.1448045300436216 0.1128086938633154 1.0335826995059811
Ni 7.294066000730355 6.075682679345385 11.369500625414418 -1.5539315561480849 0.4439084169951774 0.09591423210082191
Ni 0.3741703854699437 0.051686119758426616 0.3282644458146729 0.19878484091481893 0.194168168078414 0.564849253047324
Ni 4.566441488828296 0.3332004616836964 1.873634242159866 0.0687852370945138 -0.5653552461494651 -0.9139402705502842
Ni 5.91858335461942 5.630268800808085 0.4044295245932048 0.45595660640896307 0.0925201188176084 -0.5579998342256584
Ni 7.8343040540290545 8.847977548636944 11.334758216624628 0.016265312818926826 -0.18226344622102802 0.09431320616228918
Ni 0.19028868777732 4.917473116188305 5.660488256997263 -0.5074897412912485 -0.8122734522364011 0.8756444602938791
Ni 8.017025927784612 8.870254104815436 2.588532220401185 -0.9058690635063753 0.04449371153700079 -0.3499384531049199
P 8.572433684521457 1.7513612015161855 3.690164742174091 -1.1885315170724564 -0.1063292567865588 -0.07395161178680167
P 1.919842313245088 3.2191517636137017 1.4857515991944659 -1.2849026342050387 0.6542241413677313 0.29323945775097887
P 4.840641544494151 0.9488911047171616 8.207375041847921 0.13377526881265348 0.6829932430806237 -0.7810006102650485
P 8.338105958760504 1.699944745332551 12.332215821350362 0.11224639360194218 -0.28221739560886233 0.8287789060905919
P 6.345806215419063 7.738036863482814 1.422180440678138 -0.8046102792641885 0.6624375304164591 0.5546887675745543
P 1.9592727195658823 3.3272516835956423 6.037124395689554 -0.9993302060810144 -1.9281754187675888 -1.0136684770805575
P 6.994441810705325 3.991047963471396 5.9907918644928895 -0.1432616110365339 -0.17957458653495526 -0.016693915715913183
P 2.4477065061887706 8.402428387369817 10.035865437063887 -0.35938828566391007 0.8087263583150912 1.7219860578585826
