# total energy = -381173.8434371724 ev
CRYSTAL
PRIMVEC
9.18932804543101 0.00000000000000 0.00000000000000
0.00000000000000 9.18932804543101 0.00000000000000
0.00000000000000 0.00000000000000 13.44951046600086
PRIMCOORD
 96 1
Ni 7.453813018075212 1.5385967308341943 4.247731881770793 0.5277700888068394 -0.9328666751411417 1.1981088763482464
Ni 6.574541371547113 7.032105573457292 11.500218672657653 -0.4319497019714045 -0.43323191111793774 -1.1637640803197893
Ni 8.269218836007408 4.543957216655941 8.43416083848459 -1.2017084207740465 1.0250682342770667 -1.5288573867882769
Ni 3.913652029717594 5.489548242317366 10.10164432502203 -1.2287322576610582 0.16288169926030657 -0.6079895358802239
Ni 8.153938718059841 5.225483717060987 6.06009339234566 0.12584290133945425 -0.09329479220010385 0.19115509228370306
Ni 2.359608038758261 6.425242361878391 6.386916432191351 -0.5655128547732519 -0.7423157921003409 0.4870427862908064
Ni 4.003900418586709 4.777605066710532 7.834178595603906 -0.3479389061763879 -0.907351818699489 -0.42916879679215764
Ni 2.5192450422644495 6.3464806328286825 3.0298114493797286 -0.8458877978567367 0.43877340976145723 0.26481205564822136
Ni 1.2026073364526169 0.9062772432299164 4.575872671230966 0.6176309156247299 0.8944865327010465 -0.278791657756765
Ni 0.03935145867571668 2.5345728411274657 5.822750513560363 0.39037316408119865 -0.024239075053022772 0.540571868557198
Ni 6.066886143496464 4.555921721523835 10.060624084407749 0.8834415877407946 1.015375175359019 -0.3001127878320445
Ni 4.458367817009576 6.701308149314087 11.887296135252026 -1.2200774101995375 0.47042908899352526 0.1174428502012171
Ni 1.1897330881270258 4.599038047821961 6.9072115807072745 -0.6513792157197684 -1.3222255390252131 1.2951549080606664
Ni 7.863987856234446 8.577557542871709 3.29932616498722 0.7286526927909516 -0.8830055286446405 0.5015936875217878
Ni 0.023969442778352612 1.9432212149686914 11.865682836135829 2.0733067360230097 -0.17393152931656497 0.3392611758967318
Ni 7.779694151815711 8.919584325654366 11.072672329120335 0.3022079797981763 1.1041787645569887 0.15706997767453595
Ni 5.731484866097641 3.5687489873161566 3.5012037518469024 -0.39272649480472366 1.3766467940885712 1.9048902229874034
Ni 5.022344435486741 8.088703679613465 0.4358663609777126 0.5317277879030068 -0.3748411298838706 -0.9573417774643707
Ni 2.069721502227855 6.884644429359675 11.08686157026205 -0.15532368440739056 -1.155669733347429 0.8204395329869612
Ni 4.389374343470291 2.7737802345346494 5.830389601806661 1.468006316939175 0.8303408512610732 -1.741153374815653
Ni 2.8120262170693464 8.335933356238522 1.7581067999830589 -2.0572951910861024 1.1522640500999897 -1.119841153684594
Ni 6.987877338488649 2.9107931128605338 6.12914383971765 -1.304319862389386 0.2329126358364634 0.9670124677849152
Ni 2.5489541392213635 1.2286131342837543 9.421328059095556 -1.9188996498926176 1.576816945386691 -0.4448514976347371
Ni 8.013709574984523 8.62548907696613 8.59332275374065 -0.8772817387869858 0.04880468020752885 -0.16415645220767214
P 4.553936826707042 2.27756571966413 2.4531903157733614 -0.0017509212528356943 -3.015020577142137 0.09910471401366158
Ni 2.3319941085524074 8.215203966872629 5.196366412817969 0.6839867173421446 0.6712471582882892 0.11504941026837605
P 1.1830983934153365 6.768417810642989 1.0556883626984759 1.5303815367422868 -1.5267441971000157 0.0832392077363147
Ni 6.0747338294850834 8.504245085240328 4.9109945930629815 -1.2018765709207946 1.0146077010653751 -0.7808383736555713
P 8.569691478227378 7.011861484191569 4.776068611093088 0.028743647791595658 -0.4902715776407492 -0.15297009657354946
P 6.097964450303851 4.293217216790073 7.749540291390589 0.05108653426317008 -0.7975317751508523 -0.009089363895777896
P 2.3340065713527673 3.680665811268601 5.380853196711069 -0.07434910433553647 -0.022652961512825504 -0.44724288068504914
Ni 6.9538308787839265 2.39142149179409 11.6363815381569 -1.0390601776807848 -0.231802176381104 -0.44643786828525056
Ni 5.477510222826628 7.551523141163013 9.141067343493813 0.5606133605891055 0.04026090440257582 0.0931073587796461
Ni 8.531794690151191 3.7823089666785688 10.523044846089572 0.4156242253385035 0.7234585501845218 1.5939587472733001
Ni 3.490253748774258 9.06331460264264 7.816276866008557 0.4599225330352466 -1.1844511763554957 -1.3756381503183988
Ni 8.054455054695921 4.180298756101376 13.201945270515921 0.22619434327602334 -1.4677468926302013 -0.15894688298227463
Ni 0.679248466029661 8.70453567517936 12.10665733728963 0.5560205990121005 -0.08246659123634831 0.36218821700655046
Ni 9.22461487449068 1.192480697155828 2.3052862460731083 -0.06373661892701282 0.0855233757848011 0.5746166168467329
Ni 8.828876470392474 6.56707044800057 10.898891112178921 0.4415987950253943 0.4485276609347437 0.018513485423155212
Ni 5.941902095333463 0.14787558278390128 7.312808295728886 -0.3025057135442532 0.5775800703504311 -0.045581802394856985
Ni 7.925390944965066 3.8900170784731825 4.059048331846074 0.7242579061573656 0.3534361818455332 -0.46582912832766876
Ni 5.947434070702489 2.918208900439943 0.28367730769842764 -0.2745742772413078 0.023562617811288454 -0.3810189765598083
Ni 7.946838836179863 6.602302330998655 13.178623675351384 2.1631817039082875 -0.2726690897987949 0.1968313167328739
Ni 1.5458011638729265 3.246901968504233 13.170096898034242 -0.32640771697283144 -1.5617397393385943 1.8681262759944923
Ni 8.890748214843727 5.882640119993178 2.4469902762692386 0.6891438360630519 0.9521769454339793 0.0772408240610347
Ni 1.2583497992242345 5.503332234100655 9.247076348567939 0.5171113235414126 0.05147322817862748 0.8997644932705343
Ni 8.786164474519992 8.909163627866201 5.799038371961965 -0.5328760425748371 0.003923246313806147 -0.8608680733156528
Ni 3.016635791100476 8.24389304843758 12.829716842803293 -1.0828329518913609 -0.18508086106516514 -0.39912468502158355
Ni 6.826641391935598 7.091882151157486 1.6127711474184248 -0.19104839150250968 1.397253414595329 0.11815838821100295
Ni 4.212443024940004 2.9859526253908766 10.121522679039101 0.2662025082378448 0.3720118879651916 0.6809476734055045
Ni 1.6015711946281104 0.901837878942912 0.3734313107289159 -0.7946583102577992 0.06468458466257893 -0.284957934468477
Ni 8.88275349960942 1.5058183983735351 9.744143633063452 0.41758649127119696 -0.0889228883846533 -1.9723248595912937
Ni 5.4244510437888245 0.14451596451992116 11.716016253352885 -0.49074723172558715 0.25943947848239834 -0.34989500146149416
Ni 3.8823899363530963 3.7029131740068286 1.1093770106943834 -0.5720388288172278 0.43960233342065586 -0.5636408345615196
Ni 1.1914790604195757 9.328270492701005 7.351193037114202 -0.5060298689162704 0.07870481020107091 0.862491982072321
Ni 4.121624897743846 6.236199509234521 4.748605385864064 -0.13821376419998133 0.5810916830481153 -1.0845399072801385
P 9.098950816066367 3.3292383460897415 1.762908223787571 -1.4725934220892252 0.3426617169378485 -0.896978702995281
Ni 0.16507800452944493 6.919591443194238 7.625454959491858 0.19780113684531095 -0.23791240304389996 -0.26804804608701577
P 0.9314118927803496 3.4080827790901496 9.02089574632875 0.6061694519523495 -1.6601122031719213 -0.30958627454011844
Ni 2.80483097335847 1.0343691220736568 11.69788662842672 0.07332117729165438 1.2698459969822322 0.6627638034076264
P 4.352929469195278 0.44395480735614606 5.702767297616338 -0.4597860074573823 0.37924954336421135 1.832902934015824
P 2.6888432771660273 6.955696312338598 8.486614440816714 0.7207347234954555 0.41748467558601 0.27523865029818406
P 4.6365488841282145 2.310270537501945 12.097820879623757 -0.05185426566713005 -0.1400274203699524 0.8967699294185847
Ni 7.051871817674527 2.2475533748879837 2.191731883896809 0.4884193549233589 0.852002652505223 -0.9062956095208328
Ni 0.8803504736183368 8.249342319855906 3.250665917193856 1.084028771971675 -1.1210997086820433 0.001687157894435804
Ni 4.312450479991688 2.164435904434756 8.020333242502785 2.057890658578256 0.35128853937491117 0.4958801820767782
Ni 3.4147450417854057 4.1825868987374015 3.516777824696447 -0.39932317418563484 -0.6985766993411776 0.26399161662945503
Ni 2.501344231601886 2.1152454324241283 6.835955694649959 -2.614461730777188 -0.6553322868302456 -0.16269529428111337
Ni 1.0813357767432474 3.0601748264799555 3.6220470888782046 -0.654671513317795 0.5848426654501154 0.6776733735296071
Ni 2.3866522306370728 1.6912498451701834 2.484541545618058 1.601906798475783 -0.6470978147355951 -0.40058841405130363
Ni 3.847011024109323 0.08235108051007697 3.7416002442785907 -0.2623576805704579 1.3296848235167358 -0.7075647617724008
Ni 0.7698579954834988 8.400175947276502 9.856701872100214 1.030570909262851 0.5214737142751664 -1.413914677301094
Ni 0.7749406127203899 5.259879371224218 4.424176165924738 1.1447854823347574 0.7929881216442279 1.0966102081811113
Ni 4.531726221280237 6.854797492484928 6.934378909579349 1.1065002136013136 1.4557434404114218 0.48390732598561825
Ni 6.652025784024904 6.427190499383762 3.8075970780041892 -0.019873341885159324 -0.9974355601614628 0.48799075202637254
Ni 0.7683123505381994 5.130070925937066 12.239107714335246 0.6302069525175276 0.8054428024678129 0.2970452046503142
Ni 5.840222182612074 5.483961130981207 13.283301146819245 -0.7479585922084151 -0.7939286311806262 0.2959440011663355
Ni 6.653349047236099 2.422123036159401 9.197003701083181 -0.13399484102262726 -0.7818778706636792 -1.112261284454807
Ni 3.496006268011817 8.44195063170772 10.19736495862911 0.2850893178400187 -0.43517000868091504 0.07955764511966942
Ni 7.026003859761223 4.825187406346442 1.7552553515494893 -0.3878249437380482 -1.8613483338407102 0.5020132915577097
Ni 6.059111972130689 0.17578540934670317 2.4374545107535597 -1.6847161177635308 1.2582210111487946 -0.9170996421148722
Ni 3.31566570884713 4.624354646063933 12.503660192900755 0.5728168446338328 -0.11978666784304533 -1.8770012098866191
Ni 4.652859941071774 7.5225216224509746 2.568170861632838 0.9551164876782777 -1.9704595242477807 2.0830069940299096
Ni 9.15767981039103 8.396821842609233 0.9072081221416811 -1.3330766228071043 0.9288164163311681 0.44785865989217705
Ni 5.829047959939754 5.127130341023298 5.685444495675887 0.12741333115036765 -0.9541728928180858 0.9645758333189645
Ni 7.051338836658907 7.399816527596144 6.569359509569382 0.48363093239578 -1.8631995281168363 0.9464364434057766
Ni 1.676307998077099 4.498093281329013 1.6446599529426693 -0.052112918645155416 1.0102910759678925 0.44288151839255985
Ni 3.417373189552086 6.07266623071759 0.744523018585815 -0.1010960334120775 1.3118272265100246 0.22266396152526166
P 7.9290850547629885 1.1541336320147204 7.227282302444725 0.580411369151639 0.8215391938090433 0.32494527349469193
Ni 3.951659089728047 0.9752449866512061 0.6334865322419299 0.830612616865221 1.518593285858107 -0.04486395039222597
P 5.12838008961165 0.6489337923670682 9.378934932899659 0.05782822386237783 -0.2963075551533413 0.49616171787293906
Ni 8.013084700690346 1.4395817231909076 0.17754608456382187 -0.3390742566969064 -0.7109326498033691 0.547687910776689
P 4.954104486831609 5.438262603555679 2.2102116222142705 0.2590844091358248 -0.39712230987957414 0.4911367538545219
P 7.00643978075681 8.695410672618822 -0.044274181607921674 0.5149050599187133 -0.00481953287583041 -0.7036978226178268
P 7.367451714888983 6.461374799006316 9.440211208905874 -0.4536608683962509 -0.04174391670600553 -1.0176657711654087
Ni 2.0682420204431153 3.352597617498487 11.032108798100474 -0.8296852199549453 -0.06100456470783042 -2.49199083123376
