# total energy = -381167.6161730643 ev
CRYSTAL
PRIMVEC
9.24953067069530 0.00000000000000 0.00000000000000
0.00000000000000 9.24953067069530 0.00000000000000
0.00000000000000 0.00000000000000 13.53762309344861
PRIMCOORD
 96 1
Ni 6.796083475635832 8.75382065702176 8.792009194666395 -1.0228977089883093 -0.111866127444388 3.3553004241113698
Ni 0.27704009538706326 7.492314154926394 2.326792533716482 3.554487385560614 -0.6531224236631202 -0.5882745739497998
Ni 1.6267704717678115 0.7178653317358344 9.760287997593393 0.10579189622585006 0.17080635342402198 -0.5785866572380745
Ni 1.47246979964637 2.923906166346801 5.489452212779667 -0.9598815131670887 0.8615334748137937 1.0520738163316332
Ni 6.585656650868851 7.789649570704829 12.029193268007823 -1.5121971525237763 3.2874824360261323 -0.208306407252009
Ni 4.181731355200091 2.7971135987025906 10.302632383740516 1.8946322927048214 0.3661340890281759 -0.09702469155618129
Ni 3.671906469295419 1.1384599944085465 8.48891594599049 1.5446483310739463 -0.8367912348721072 0.014669686197032801
Ni 1.9133116851505076 3.379519552473042 10.897204245318266 -0.6608012803646168 0.5361999647417475 -0.9983799263526031
Ni 0.7136780691612404 7.088461142927451 13.366223113703406 1.8509513068771026 0.1949556969767159 0.028790184758814934
Ni 2.200953592693523 2.5293119346376045 12.973497287207525 0.14834133955228646 -0.6618832005748859 0.718876330130478
Ni 8.368993929794057 5.344517615504776 6.94952579130284 0.21054069589916644 -0.3552783772605946 -1.7485218993655822
Ni 1.6042571139004342 8.706638800620162 11.727724236933195 0.5220974639020943 -0.47232450624402533 0.21418934839534726
Ni 0.8933400296707518 4.262951484794766 3.3929073232936022 -0.30335546313905826 0.6975734548876438 1.0138787933191507
Ni 5.873785015064842 0.3381563698770779 5.1155972789382735 1.3791453921407086 -0.3297349815738515 -0.797797112997097
Ni 8.67165707528967 9.226998902059321 13.29738440598271 -1.130424842737711 -0.2500428677588468 -0.46566123529123676
Ni 4.262720246525792 9.222642373071837 13.202120713836663 -0.9580426601861372 0.7410202132173689 0.47085460656671807
Ni 4.489398496836316 7.371136052452889 11.929935628480045 -2.0526913737655033 -1.1982276613142977 -0.10083403799994248
Ni 3.3328926679169832 1.4196827276048245 1.4848197731157713 0.08024901475973921 -0.23128512753536942 0.050221872270029645
Ni 7.590285184725597 8.90128592591231 6.814839674108909 0.46269521068437736 -0.4441051063870158 -1.0620954622336936
Ni 7.781121503345042 2.213634699364096 1.644455574578997 -0.9231371065582038 1.5411171779922361 0.6271277993715716
Ni 6.324884630180697 0.5003024939882931 2.666817308806875 -0.07423828978928505 1.4123244499958387 0.9716147424436169
Ni 7.935930899658228 5.127699364983334 11.740788274177193 0.33843019535500424 1.138246138554343 -0.516184183741453
Ni 5.831496160434747 5.012061731434463 4.375197315414316 0.47841339275058253 1.363461919967181 -1.7822743132256789
Ni 4.401426209787578 7.592662314130657 9.13727290397868 0.28953398387493356 -0.49453292402026444 1.1508620275461408
P 2.6193746156378728 3.0977695960235025 8.769185052565517 -0.896504848682656 0.17568605011382646 -1.3990110207163842
Ni 1.4293947349017622 5.483103334866697 5.546742881347763 -1.408711792943916 -1.7176367797509513 1.9841923004528408
P 8.452110213194324 7.466905693931454 11.86220686445043 4.936801662347607 -1.2067506111836444 0.3626049928289949
Ni 7.877344371830796 6.637639013734365 0.4632534985331658 -0.4973156289717241 -0.4064921811302483 0.8893528110189071
P 8.53900030514426 6.369495117031297 4.768519736644151 0.9370956256208249 -0.5189776873261901 -0.020853189299925377
P 2.18480391198833 8.596930116287803 1.46215842275625 0.21779917723379266 -0.5779287119391014 -0.8634270922920808
P 7.952543056901371 1.8010038826748724 4.203147718719452 -0.013580309787595966 -0.10776598923308538 -0.6967651000537355
Ni 6.15372206348562 1.3711781883046903 -0.006590290665779104 1.6529203134091726 -0.6052034884946544 0.2136756419837223
Ni 4.43551998016521 4.783385582479997 11.813024334545663 -0.8546310912670056 -0.9451593764655657 -1.0789084200259742
Ni 5.557867291991599 2.850760877104722 5.1672429588841595 1.9840226076441962 0.39341477912099987 -0.7956584693875394
Ni 5.892959292328224 5.917979273031286 12.937635931501852 -0.21496299333657817 -0.4230115189415102 1.634941617443565
Ni 1.2458377969896408 5.127958351844585 8.24550899434926 -0.6453260675471532 0.5129623343700456 -0.11827948716989951
Ni 7.517287887975662 0.6416954459355664 10.946941747068571 -0.4767352337172112 -0.9551306287456649 0.9029284928208128
Ni 0.6011510528066175 1.674266812215216 0.7937179586310692 1.0329118986912018 0.19030919934363996 -0.20806600910642878
Ni 3.0172986784203046 5.13376705716123 9.718294202994512 1.3329138719769946 0.03081595693959209 0.16063866886240077
Ni 8.618204037033475 1.253450160804288 8.650555195816112 0.46777133965570405 -1.5410852963130364 0.3554208163757298
Ni 7.964373206742116 3.8459641391180592 5.172387547892309 0.494096093593162 -0.5053876073465813 -0.5604434106701445
Ni 0.7094898816335706 7.883180825739718 6.1094075616193075 -0.17604266212229683 -0.5194006337962216 -0.09784255947178634
Ni 0.27225901293774224 1.5339606801321237 11.376057077476464 0.09332076034203284 0.5897113063963263 1.9684651195255711
Ni 5.384207351991595 4.558409245829127 9.350814970705288 0.8299271607624223 1.0990468426470619 -0.08458029514524143
Ni 0.3547528029179305 3.06762537527996 7.6340687635263444 0.3425377897654746 2.2855572155244315 0.7936599509002719
Ni 4.459513262954025 3.1587332532559937 7.341114850468442 0.0984727368566175 0.6181801032599805 1.2703882426389477
Ni 2.9921584538173747 9.237228883078762 3.357005269652589 0.07144735730770921 -0.6617561880787184 0.7642935819230127
Ni 6.0125094773881465 6.057887675291742 2.039402213410111 0.25429341550508466 -1.4540429127805476 -0.5108740843824492
Ni 3.3365554820975425 6.059867074874166 7.439086805220721 -0.05701884058720503 0.16121228197768364 0.44065674282709916
Ni 6.612674530215855 7.238201796384711 5.333025073536734 -0.2753101269660678 -0.4761780756621606 0.23090768959129265
Ni 2.4579425553012517 5.4645395266334065 12.848788638843315 0.8790619706158603 0.1784769825954023 -0.04559311524876664
Ni 8.995418400446534 8.052326994729334 9.929020712558085 0.4809392444962297 3.151328896789289 3.4822442718244866
Ni 2.032880369271948 6.065074560691476 1.6550148388934578 3.1740880448626756 0.16124030700214165 0.7723408777075216
Ni 8.299548452855573 8.831340974312841 4.528078184564253 0.4780536954183187 0.663540790782967 0.16934005329114063
Ni 3.807671081775848 4.587351027574001 5.476198560155112 -1.5012187991354016 -1.4204776752305923 -0.13207859783652093
Ni 8.677012553599123 0.27861251561609124 2.2847043939038576 -0.4539421470820956 -0.8572675004485881 -0.38126117447760144
P 4.011808225626718 5.678397927311974 3.045071319477243 -0.5419219548271893 0.4777058251605967 0.7013084964500438
Ni 7.056698254301085 3.15401599256891 7.368094806739334 -0.020472923142371192 -0.15727977969249687 -0.04791816383751747
P 5.940918109313578 1.1796481548783213 7.5649729188505495 -0.2504061646355365 0.713963466209893 -0.1509633505561658
Ni 3.0300352822754317 2.7289815551318837 3.9636126206539344 -0.8578465128805097 1.136048873792708 -1.285043016437645
P 8.073203185652373 2.3866934198647654 12.987847009227018 0.19405349687742063 0.021382579440834142 -0.5078119005173576
P 2.6301780675643713 8.450584040619091 6.982367175215704 1.6882305586746928 0.13952374126065648 -1.026274338770026
P 6.354002153009991 6.593777738875242 10.14788403433034 -0.6033988311857479 -0.6118937560306366 -1.1256215078117968
Ni 8.820731762532281 7.130398515388704 8.198600924058127 -0.4901399371588913 -1.3298529736634839 -3.1343927831555827
Ni 1.0624473506311813 5.8634070415532555 10.854777572679861 -1.4431311509640499 0.3054270009561062 0.010092865459627778
Ni 5.701114774856049 3.3001585785609238 2.4787789732420245 -0.8032373101760618 -0.7239223771948178 0.10494651750641926
Ni 7.797937150264882 4.806426163600636 9.08748175494997 -1.1251391688587398 2.1037097737948995 0.23206957110987778
Ni 6.1635358156209055 8.30450620134239 0.9891790426300081 0.4033736901059246 -0.34179628361375974 -1.0628927613240082
Ni 1.5884404163025643 1.093424029143033 7.4596771856433035 -0.2065241185406056 -0.23611288794131596 -0.9442366075409803
Ni 0.5841633646146598 4.097884358869862 12.817719465023872 -1.8755176833625569 0.2656520350510134 0.7646854180447927
Ni 7.534538262841176 7.383271436808682 2.8505092898680773 -2.1425673700920456 0.2659320281852775 1.8537108719001107
Ni 8.881575175864906 3.2539664219505364 9.981669041638245 1.0018555436060295 -0.7173781483183967 1.2463705395681115
Ni 2.1923052814338693 3.4394750108528043 1.7430907206866955 0.16899526835721218 0.5252164691470502 -1.1612965926159033
Ni 0.7903067316871543 1.7903761718327953 3.2044370346423063 0.21162287321975165 1.2859765839955077 0.25374294231825334
Ni 4.063392858669595 6.7712669846094675 5.395217068454018 0.4154668738250329 2.2968677554412444 -0.629631796740348
Ni 6.712708205374313 2.175665375598449 9.551713853837438 -2.1369204562189132 0.8695802563776701 -0.2719916041157961
Ni 1.8855723424043018 7.708114957064348 8.80503253397505 -0.2483631660635787 -0.7804938458319589 0.3910727612513845
Ni 8.7298828714175 1.603674393462618 6.264386224345381 -0.3273443698544879 -0.8290177615742755 -1.682918916653792
Ni 6.932079326385237 4.3327391943713325 0.5389017107986268 0.7789151884909294 -1.6359029529155698 -0.023328904533927563
Ni 4.402388160986513 4.824370253273075 1.0032133556506209 -1.3023115737101054 -1.2889156120191738 -0.7676858954340134
Ni 2.0703964660304046 6.840296232663796 4.065036500285467 0.7821547784741497 1.4007822536841938 -1.973179237171789
Ni 4.133421056045895 7.2083813092177325 1.1902342428319832 -1.5194931719645572 0.9257262074416185 -0.994514529859926
Ni 4.915672371395047 0.22587354113449226 10.859312617610994 0.12121388720787511 0.9907512061627518 -0.3521148919309484
Ni 6.431827704816118 3.3705752562291007 11.706700053518016 -0.023575987547727138 -0.8793851582832338 0.04479633037908414
Ni 5.065672011713559 7.745011335261952 3.3496685418545598 -0.3163372201107068 0.27946374412312514 0.8002329761320993
Ni 4.010069313844029 1.4457571548144121 5.791841572164812 -3.2945812518544417 -1.8212689493213214 1.4124357787627224
Ni 1.5162478287286612 0.6125899474962583 5.038811374389457 0.09936902341864177 -0.5474408277628895 0.757991550964385
Ni 4.378801857551093 2.6062865296139046 13.176493963915812 0.40071054145146473 1.173509589742327 -0.3397445432910536
P 2.872136542688744 7.066419511128782 10.73138235768343 -1.2943797204575385 0.23349987579850107 -0.21257520983069197
Ni 4.994580118299974 8.523562838307509 7.070998028854481 -1.1932788019494547 -0.22416548577145265 -0.6852020778064845
P 0.26293178612037854 5.187368087909567 1.43122429208589 -2.5197628591407057 -1.2825727005202816 -0.7541492944001592
Ni 7.73269096029098 4.509904706528992 2.882566313572579 0.9565529630144881 0.6950887407925771 -0.6437031872317495
P 2.9954512867675747 1.4546737024660767 11.3021551766183 -0.1320829687118951 -2.39720479920011 1.3277770649710616
P 4.580802359796637 1.521344320176864 3.6386155581876687 1.9888223430256844 -1.500496062036764 -1.304326033036973
P 5.837674846981751 4.806287420639252 6.462982899271617 0.26294183520870196 0.5459614150038855 1.4174224333440362
Ni 6.388160670102935 6.612332297577773 7.8134560129723125 -0.35500866853897567 -0.93015981773294 -0.3640687218587149
