# total energy = -340863.0723882953 ev
CRYSTAL
PRIMVEC
9.28760767185083 0.00000000000000 0.00000000000000

0.00000000000000 9.28760767185083 0.00000000000000

0.00000000000000 0.00000000000000 13.59335263352429

PRIMCOORD
 96 1
Ni 9.066404752304946 5.709900478143238 2.2236548256678605 -1.3720226650529983 0.7715199244681229 3.16835037104795
Ni 4.276107463466092 8.31339338240542 3.9646911908346176 -0.4976020498638914 1.4062641027343716 -0.15757648499730925
Ni 3.833543668714408 3.215379075084 1.304008913368033 -0.3090203747343194 -0.2978476459469515 0.6088765664708675
Ni 9.127266445595913 4.425052828231423 6.378014754771989 1.5583332847602065 -1.2978324548928295 2.4783660413614736
Ni 3.680418880481821 1.0339800781916477 5.020337400280526 1.180523302055999 1.4281863567287596 1.3320713214710413
Ni 5.954387463370061 6.99192469531273 11.891152619880625 -0.2128076375564722 -0.7435368089916355 -0.4992681247124046
Ni 8.574793101263078 7.167441905722109 5.401318783383334 1.510228715943496 -2.2346869110371257 -0.39719455787840624
Ni 5.99031192997306 3.0574711688833305 2.4159733184156122 0.5666917055727014 0.26180643605267817 0.7924939556166287
Ni 5.695356084477185 0.4959536076439643 11.951860138883688 -1.1373012581425703 -0.7828680024910903 -0.32657483867831494
Ni 8.442667594051528 9.091081925977171 6.547822872725096 -3.113551678040515 0.1016310799799411 -0.36127830359777136
Ni 7.165881587627666 4.826583972142349 11.585206748187407 0.1227542351118015 -0.8935419093995901 0.136213703050817
Ni 8.60767123253883 3.6801681150737857 3.8750434862227285 -1.0617542768441908 1.713560809909365 -0.26085795609647977
Ni 4.015933708825498 8.056108073761086 6.433000178667991 -0.5312966139028592 0.2812360055321995 -0.00022137198218671555
Ni 2.820878650205771 8.049105217551507 13.479780271368854 -2.0755829336516967 -1.7581139139293915 -0.0321102502709834
Ni 6.992426226128801 7.0496657524148105 2.531327263633443 -0.19326725353069943 1.4082587645668974 -0.5556107651681914
Ni 0.6070491847290457 1.732417465216503 10.067685950049547 -0.1292771238319838 0.05893405533204689 0.16033887823379483
Ni 4.081318467068806 0.3824395375124969 0.5348816865787653 3.6505684822566034 0.8563529590541188 1.5823327329985974
Ni 0.46511689254177246 1.6792459111052904 12.529033875908011 -0.6746253307319027 0.9584707488624913 -0.9695606881280656
Ni 0.5393657435787468 5.1160972795230855 0.3496496385099403 1.0245866666549581 -1.2613019640669632 -2.8234121993710986
Ni 1.2185619937211216 6.335012202336998 10.580113916240666 -1.23493504403766 0.8742750907501783 -2.4539477604181092
Ni 7.3549308424632525 2.0478803485250525 12.379820099280005 1.9094228207504342 0.4371628707412277 -1.9705456562036838
Ni 3.2586779022047816 2.344610127092586 9.603907401778066 -1.024114612114546 -0.4025612215069583 0.1639451075278144
Ni 5.571255070322771 6.52436794822685 4.4696844270578735 0.9377499713753721 -0.11370498042533966 -0.3677945074497343
Ni 4.697003269441975 6.664973041273076 8.865639180349483 0.16523734397667675 0.1292706960740806 -0.7446200147534854
P 6.970423883475619 8.24018845847449 4.712815421559764 -1.8168237690657743 1.5754648022341706 -1.0404737701988598
P 0.024183072942318824 0.6996392034618842 0.824924387598688 -1.1428016191355093 0.4502235605799279 0.49377650547021407
P 4.523380731004419 5.864548434039449 6.584769904936417 0.5717858322661572 -0.8997776058966567 0.3741135076892267
P 5.367085590143418 8.269054343221677 10.290589463730683 1.43180981241396 1.0344013387525346 -0.45998912460712393
P 3.571986060525768 5.164504290881625 2.880036996243636 0.860974259876214 -0.4133701391970042 -0.5358868043767029
P 7.061033784245749 3.7937184068753025 0.13387436374240197 0.8777766761455335 1.3866028768600185 -0.2038144329189264
P 5.5173683704182706 4.852394233954587 9.956111132406887 2.336466086559157 -0.4840394806881083 0.7848642069855128
P 3.507734390422472 1.6004405597282356 7.159292958721728 0.2927506910400184 0.41841850025418903 0.9346013984440614
Ni 8.189153054135431 9.100982515790719 10.77110056604352 -1.6467769195155963 1.664605463056585 0.0382371891043277
Ni 7.327281634325423 6.444726712156344 9.754644346069695 -0.9296335129158247 0.3859158996407935 -0.3826261731459281
Ni 0.4638890708031695 1.6725216831268592 5.9295839782330475 0.44919563353604575 2.0566498441926195 0.1992754073979923
Ni 4.834218385675872 4.446776542653454 12.397518564522683 0.3302314615942958 0.026879340889347257 1.2421310475654672
Ni 7.126734321151027 1.0785141571371961 1.8602363087352352 1.3587256908337761 -0.6977549747708305 -0.7757758715309995
Ni 5.183228108014936 3.1401308774579664 6.577375111681683 0.06015558644397381 -0.6169356893299182 -1.0579845253891134
Ni 9.252240494874597 7.9693803930116545 9.071836145290838 0.6193232157254882 0.3873513465357393 -0.5341842198632993
Ni 1.4541886011973597 1.6908739959519696 2.5671857882217366 -1.085856312098717 0.22436500337676843 0.5038074073436549
Ni 5.870278887993443 0.45575126893203505 6.5413252623746665 -0.6648335414524615 -0.26351133455892684 -1.5098947296428449
Ni 3.2293940751108687 3.74656522255694 5.46645834878323 -3.396068092947035 -2.644519726504833 0.15711034399416812
Ni 1.777388061724187 -0.0002303326710843793 4.41547451840524 -0.7354715154849978 -0.7632031770723113 -2.1316697493429353
Ni 0.9437231065143092 8.70033369461177 11.681339060498937 0.5731688286566128 -0.5049731455169819 0.3216511761244525
Ni 4.93936339250435 4.306143586784112 4.476427230251715 2.3739684543799893 0.44350089714411367 -2.1936150806974806
Ni 6.818794400083539 4.278698706015792 8.135227346278572 -1.2791801298989647 1.5374821523428102 1.1595765246010028
Ni 6.5919352942808365 2.1297227476216474 7.97224283370634 -1.3824268911054578 -3.147287893950696 0.8133461164752896
Ni 5.719996107718591 5.233260450721854 1.3597020529711572 -0.540105727554057 -0.4890171364083578 -1.2139314452027996
Ni 4.420576201317606 7.134628787700289 1.9462014768920861 0.06734850464798722 0.48387030210009563 -1.071492587177877
Ni 2.2859867472585296 8.7437253978096 2.124491038201412 1.5730621063299488 -0.042546615112958985 0.17240352270781276
Ni 1.3369418415292467 8.869200977904356 6.424137014635095 1.806182230191528 -0.8972229577956031 2.0642824210372126
Ni 4.458478928361772 9.059401896095364 8.537672390787671 0.710966331254782 1.2894884538035083 -0.18457126841859825
Ni 3.5994030784709725 5.204506017267126 10.587889501411306 -2.313998244473944 0.03861205594524318 -0.34372126855061447
Ni 8.797537796852458 4.571323361977709 9.452708863383501 0.569711980456264 1.2085503833965443 0.252908619342416
Ni 1.633968823543341 4.029930133636957 1.9829980498585864 0.5364799578760115 -0.34070510743211 1.3691152615982163
Ni 5.654834252060203 2.2414062302744564 0.1837469595967931 -1.109242038012509 -0.6424441180136677 0.4966288873173447
P 2.5379316814724797 7.143972121051536 8.782284758718513 -0.951083969480117 -0.2957272571698391 0.02471807157197033
P 2.2766712767303994 3.6355411600511873 13.345614276744515 -0.6653161375158348 0.32860703861699536 -0.11691808804599865
P 0.9116892187789409 6.945217316164207 3.8320065696392285 0.33042455144170835 2.308675803819766 -0.9345913711417323
P 1.3533623319517138 3.177671387801638 4.144504848568337 1.1632352043995127 -0.6457523564512943 0.8232160672908339
P 0.1493196553558424 0.8120118266064053 8.018718951423008 2.0243573027075006 -0.636797975471484 1.0307783972879667
P 6.050802118955825 8.795782438996211 1.0502649695416217 -0.8448765829834031 -1.331324673113004 0.014846578094529272
P 7.0057818060086126 4.973634664935856 3.083869336263295 -0.3208574765785635 0.03538557858814551 1.1250746341693916
P 7.906679753395097 6.036722105675022 7.611570662372087 2.1525795029124084 1.069016871943875 -0.0032581019259814857
Ni 0.4022444321826715 4.46865814640647 11.73278962090241 -0.7623806811710161 -1.1751622948544018 1.1538792171059096
Ni 1.630198054815105 2.9946776531897217 7.827894834754993 0.8720798828710723 -0.3242541609649383 0.3757541286164432
Ni 2.258365401943814 5.938691406348585 12.422394492999794 0.6841319846707572 -1.0192248881224124 2.302771008299557
Ni 2.0752044903932076 1.153706629117 0.40276546697492277 -0.17487281018391174 1.547087022422426 -0.38353017301743625
Ni 3.740862631426061 2.1948195900260994 12.233296942604145 -0.10266929143646833 1.2943390970275903 0.1303168779504078
Ni 6.95590735263268 8.584823717584493 8.43331590185335 -0.4685434419350382 0.7963881484647123 1.798498231283709
Ni 2.064533029140145 6.467787842087897 1.8970338104625057 -0.05108602004253783 -0.15567284021669317 0.11945216732176203
Ni 3.189011556809462 6.291314008084901 4.988257074506632 -0.0355141337462098 0.4713623994410721 -1.3192338033867408
Ni 0.08497975297934894 8.730732034630284 2.653368286398885 -1.5589889160663344 -0.9134725868852461 0.11145449382826611
Ni 0.8723599151912832 6.766895248227914 7.271301507644213 -0.5558025694640234 -0.8726702081569035 -0.014864061596026015
Ni 6.3758591010236545 7.251847684545288 6.637185447780441 -0.3440848225376203 -0.08969319089177456 0.22151467841216688
Ni 7.425303046044154 8.375750380536893 13.013297171733672 0.6771059310619113 2.5509146021531612 0.9912985940257896
Ni 3.2556129916621264 7.829861950066915 10.950152639945427 0.40971814426671366 -0.5644530460501699 -0.7382426504722318
Ni 4.148198530152621 4.194970922555079 8.41496451778901 0.16443336001814263 0.21528540967300344 -1.022097324574201
Ni 8.629441384999387 2.736342844874722 8.221504578054311 0.9924095677017812 -0.2184859188881721 -0.5991472549982456
Ni 2.3342637321091995 5.04910576514681 6.989456977945507 0.453910779623528 1.1785461237249701 1.1577266158764579
Ni 5.381546395340127 2.645705081281477 10.492070181479434 1.264776295768809 0.3510286008453051 0.15076923226748873
Ni 7.141770958025447 4.866687862212604 5.813809304386179 -3.0024998189673067 0.2844033475165876 -1.918888079928392
Ni 8.673678260498374 1.4406565567711527 3.975674715706569 -0.4233997555188644 -1.3103706965691562 -0.7674850922771169
Ni 1.2170481136652043 5.240374758223895 4.884635235341777 -0.5584106965108319 -0.9684000921610612 -0.4394583516436238
Ni 6.26016337184228 0.9324108003296006 3.9130093689992895 -0.6847025124622466 -0.11767322104446831 1.6101906357511302
Ni 2.2245306470744435 0.005933852562734272 8.749035123134558 -1.3948404342784624 0.5636889141906356 0.2833196275341056
Ni 7.796863079890995 6.173296376977271 13.571643999179159 -0.3529049919324116 -0.9591744597977352 0.6128386364424091
Ni 8.672415145850492 2.777691274377449 1.541785602027982 0.1226562760813565 0.7419167568897095 -0.8554949819291975
P 7.45381600169855 1.758478492436776 9.956790985290894 -0.03941809678630631 -0.11650414043703163 0.9295725777709022
P 4.228573487231824 6.590839356571644 13.024511958037479 0.49752980186505924 -1.3728266490115324 0.7801493180083467
P 8.448240158674539 7.051161057255317 11.59841929890856 0.7771380419858487 -1.3866005628671734 -1.2369528457986376
P 1.4745377496790482 3.9944143217729784 10.031867362174383 1.9273174416426675 -1.1772849976243596 -1.4831927948716261
P 3.4883325779266947 1.1358929975387806 2.8419215829830238 1.2943203279745128 -0.14640735575436722 -0.46230620277607476
P 2.921305552320101 0.3534166921950946 12.045273968419963 -0.7378716402860582 -0.010846198685884547 -0.7374677199794202
P 0.3790579195471007 7.330690186353163 0.575388658823419 0.28967128078374627 0.013836905883092299 0.33374975916019944
P 7.403839384637863 2.6411634411137244 5.492666120205242 -0.48347358088230924 -0.607709799856276 0.7106259171962278
