# total energy = -340895.76658056234 ev
CRYSTAL
PRIMVEC
9.02165068102815 0.00000000000000 0.00000000000000

0.00000000000000 9.02165068102815 0.00000000000000

0.00000000000000 0.00000000000000 13.20409769411717

PRIMCOORD
 96 1
Ni 6.323085484924507 1.6482555734951503 11.253165860319138 0.9774202933818004 0.8369501290474747 1.5285573390493545
Ni 4.6629303542238825 0.3763507871163278 6.097031788953225 -0.20260138644743172 0.5393166559938583 -0.6143208774148904
Ni 2.6913388214837064 1.4863710742570717 4.73113403312713 -0.14947828137020708 0.568668369683098 0.5977557739673577
Ni 3.5618739791675655 4.068123905312505 4.826414392121954 -0.8736742239413857 0.9185736555572375 -0.5936021568103003
Ni 4.7833603687317465 4.782521355221429 2.6342967287628793 1.207508058174959 -1.2883044607977359 -0.28657361569502904
Ni 7.120400925944509 6.046580914196248 2.59943797282184 0.448992259275988 -0.29404806969520325 0.2723785551415696
Ni 5.103141797621233 4.426626258785686 11.368292046410703 0.5668840240891656 0.7626712158282413 0.16057567683494925
Ni 5.725049285080938 7.597005708058221 12.237953908311779 -0.8009096904841496 1.6445896820562902 1.1323066331414564
Ni 1.8267940398305034 6.345197550664171 0.40529404672709485 -0.35442451390073154 0.5294870714979462 -0.27820210380188215
Ni 2.4777873289812233 1.42250680931579 0.42975895895590793 0.8268037846420921 0.1470213351892823 0.2199499050282083
Ni 0.48045522261052553 0.19367950261886116 4.895208086977618 0.13905605759561857 0.08370252052597843 -0.13450880454456834
Ni 8.402557916120376 2.3101650599306494 1.2526092799716444 0.4699202676779068 0.44816667805089916 0.2677860506748807
Ni 6.885450078103599 0.7060000974852281 4.829042398955885 -0.5133086619658709 -0.12221841721298951 -0.374867869356748
Ni 0.5203182881663311 7.341837341113849 2.305923981960753 0.2841292679195946 -0.40414450683367814 0.4715991980422265
Ni 7.589156871993959 3.731995245447796 3.8662392114287623 -0.4862416305457497 1.2475439910509223 -1.1161266809474841
Ni 7.654852532016902 3.7791694566892087 12.454752292882686 -0.3929663787296716 -0.555579911930256 -0.25972769914677846
Ni 7.833427084954849 8.997932729022613 6.986565640737923 0.7613663809738888 -1.4320332412786756 -0.557423392896898
Ni 6.812789703779955 0.6138006321868934 0.5699328559081843 -0.7762497258436244 -0.5616587711344844 -1.0638288999850323
Ni 1.8764852916028694 6.543195717448506 8.971524553244096 -0.4860361994031629 -0.7640439278060519 0.9447114902948698
Ni 9.075419686443247 4.807772955386798 1.531067940230385 -0.29052257304044804 -0.5340970594661317 -0.36807372925305
Ni 6.577261470297535 2.1307154068797898 6.880866177409057 -0.8500897517532262 -0.88104506248416 1.152208771382022
Ni 3.5269962777601642 4.416855811133277 0.4541138070468083 -0.1511178738561591 -0.9045210341189132 -0.009247229629880848
Ni 5.846201031640688 5.492597434469684 4.742317271271107 0.054473191347215864 0.7804023145594172 0.5140558245445405
Ni 5.27670933444922 2.8199965813830734 9.369416335614034 -0.5749981685558678 0.021240911656647286 -0.579577303286118
P 0.00945198338451488 5.467120293038101 12.543641714558058 1.0701946943020602 0.7040683185833682 -0.40219098265173314
P 4.047644758340233 6.186443564201149 12.625929994453864 -0.4448391563395629 0.00510569665768153 -0.9884330995525366
P 2.2618631423581643 8.374464496000703 1.458445456839464 0.31375943208120155 0.4047787979835674 0.05884843759677607
P 6.375808011314795 7.758105323689874 5.815018598338944 -0.911176848872534 -0.5729559413148584 -0.42178458851294454
P 4.672637650321752 0.9772432415552362 12.688966071865606 -0.021095387217718507 -0.06891456358352648 -0.24112653910582346
P 3.9745964530386995 6.262658468880334 8.224304533945517 0.4958940660338492 -0.06612465954321516 -0.10631305883664272
P 4.553218060686529 1.2273324191844592 3.7397701039767397 0.693920688626405 -1.5753742994028934 0.7384539951520895
P 0.10995226944460587 5.598195855311286 3.604520223948457 0.2558959841055141 -0.2045705943586606 0.6869033767683073
Ni 1.3065064252763774 1.1134070147942199 2.66217092277179 -0.11171931745387856 -0.08949855838246523 -0.5314187413030202
Ni 1.8938700124026788 6.229134015070218 4.848900856363534 -0.7558842748133949 -0.2823971157198362 0.3421449252024301
Ni 5.960541431960762 5.723822340592731 9.218546369652804 -0.013390048153660811 -1.006860967240421 -0.557765349617349
Ni 8.751325908543741 2.4139050207386443 10.125456822751728 -0.9536152205424028 -0.13459082273541337 0.062025806883493184
Ni 2.631002021946019 5.0625984996065245 6.958916085830162 -0.6750451918781406 0.6397909966615368 0.19590880491860455
Ni 0.658458705062418 9.020559028849245 8.940389032525726 0.26379569856856505 0.5513039102627214 0.09440370899356644
Ni 1.29386709271772 1.210913015004048 11.433890272606641 0.3218293535735296 0.200714453837364 0.19135563833028335
Ni 3.9633554763305714 6.766364289542373 1.6226909220522756 0.1837803970861867 1.2969883617249793 -0.442000144228871
Ni 5.73112987761808 7.952377548756346 7.954491321503308 -0.7138521374430093 -0.26739781409752655 0.16475346236172272
Ni 5.419368696155179 2.8185440956286523 5.003640208287939 -0.051690486395756144 -0.11111767931413766 -0.8832135308903886
Ni 0.6632870924895368 7.352672343542792 6.727408802041815 0.2907046071442671 -0.027727033601623215 0.7487348082528072
Ni 5.1476185353187205 4.718657090280147 7.008431415414881 0.19636106196467473 0.319104755553515 0.2025296526692318
Ni 8.198867087776787 7.1867822314167435 9.06838911409281 -0.19387223410454998 -0.07126198076978049 -0.24198245934821555
Ni 4.714407892824667 0.29240071917105265 10.228052838257483 -0.35904067251650423 -0.8931531586016037 0.7814839776593703
Ni 8.214654976411799 7.273967463284599 4.799808642194233 -0.5478002679848372 -0.8572515596089881 -0.6554464438106067
Ni 7.313897289055204 5.994029799168283 7.025583377627957 -0.5017662085439101 0.9668512596167026 -0.6066008830628133
Ni 2.3881391864863066 5.134167254201691 2.5515600728298375 -1.3958485638280025 -0.11447322604993189 0.07870532442170315
Ni 2.37029436150342 5.352752827766081 11.463520079831765 0.36830101477250765 -1.4324312480480426 -0.7245903497961199
Ni 1.0607566616091202 3.443149056632283 3.747507973738025 0.12860400902435914 0.03219175424119617 -0.11175865533224623
Ni 3.6260540018815477 2.6021417615212186 2.41913577378469 -0.057783229557055324 0.5065271202676631 -0.030236944507670505
Ni 1.2245266858327515 3.584509300644847 8.432730826714543 0.32707080447812703 -0.10468452209428422 -1.016118995503579
Ni 3.8919761763990244 2.8062656290959382 7.140973898083525 -0.7277031843934886 -0.515300495584919 -0.2523853998490944
Ni 4.12733299851912 7.013963491592589 6.0438455497196 -0.048684609689896796 -0.24667909349293646 -0.47127395349232387
Ni 0.8677700217600698 7.151209862909402 11.188584374151295 -0.0026767755012147448 0.10065483210960084 0.40102627291967063
P 0.19671979888743185 5.583689041068374 7.981229689695564 0.7425811299465856 -0.23045491832459022 0.4702182585342998
P 8.550215272285646 1.7363068838252687 7.869100495949455 1.3958645046676024 0.01754777907577623 0.8788123164988995
P 1.9088279091780205 3.225826514158694 10.43576642062527 -0.21230524399875694 0.28283446036757093 0.6389936975712222
P 3.7443909934389414 6.236179924226758 3.8232726980498457 1.6458595499076492 -0.1909802572687356 1.083272867642257
P 6.898089410662257 3.800613920280878 10.220776877009406 1.0541561527819587 1.0553661139296597 1.05912172431735
P 6.35465224054388 7.674158864404858 10.18269648962176 -0.3301828677445475 1.1750193415186345 -1.0497626516999534
P 2.3208196293466195 8.594286035703949 5.975131245389642 0.39313478598673585 0.10320253823211903 0.07154017413183163
P 6.710637553486109 3.9926217110345577 1.7501370742695384 0.7866421248215419 0.32861423770584697 -0.24382516898390913
Ni 5.464206299878611 2.8652942892895825 0.3748721385750259 -0.5220900077029267 -0.11468251384726057 -0.6383105554612685
Ni 1.7398163059275655 1.5122361466665437 7.154217681235638 -0.9490360858121526 -0.8547177374435408 -0.7220652693814209
Ni 6.906578783922568 0.768257606445998 9.077157256358165 0.12809673037063746 0.03799910495159262 0.16973626028829478
Ni 2.9112776426453832 1.5028806949439688 9.256006067475827 -0.8071854961905325 1.39882667261972 0.6826384308443663
Ni 6.196809440796364 2.0288429277560502 2.5841471771375653 0.38439534923120894 -0.3623699940000533 0.3249771551738919
Ni 4.146504006147348 6.90441358776691 10.435806115888125 -0.7732273940775328 -0.023400895422443568 -0.16751122761251797
Ni 7.995916034786382 7.239468671204438 0.16634931414405982 -0.5509742948374446 -0.544246746305624 0.4281526968228174
Ni 7.825957158217827 3.7706530184769513 8.15257970479413 -0.46664108270600285 0.8508726526658379 0.38426576563188014
Ni 3.021711668234623 8.358072156772238 12.442221220131811 0.8891754049007783 -0.5089627262923493 0.24159242299864847
Ni 0.09664623690301859 4.915680918794436 10.199584117470831 0.14969322559449058 -0.2437812031198511 0.30435587937911457
Ni 8.649706035638161 2.4702632723403095 5.517028064426032 0.6338376072915795 -1.0751407254534255 1.6196309552284236
Ni 3.603274333993889 2.726604453868997 11.71793694327711 -0.26144313917598844 -0.7269264541284641 -0.23140699782521434
Ni 1.223083221728979 3.436229450584823 12.741109408284256 -0.9050465676050802 0.4876248840465215 -1.3970459265702133
Ni 3.0776459022558047 8.330962096573261 8.168477657567053 0.9030727317081608 0.8363803725869338 -0.7844597724582426
Ni 5.5722495880459775 7.804792365796264 3.5273688719319503 -0.9804930187698534 0.2860413973406429 1.40982790882623
Ni 2.6373442423519693 8.145359677780073 3.7564339948897283 0.8527300175895508 1.176526007971148 -0.684463142757931
Ni 3.504333891330937 4.3398470011970165 9.251847086526833 -0.19843774198804534 0.4750125945991497 0.27746573985648987
Ni 7.256853392004247 6.072969242343337 11.263266500385285 0.5382676459040536 -1.3806551439170158 0.5637729892640096
Ni 0.4767238679022738 8.96243253372046 0.28004827510302 -0.05324728935991475 0.33588968832133764 0.008718096599288211
Ni 4.481080942100501 0.1949308055638189 1.6841824928729812 -0.43629152387986797 0.4397553140587523 -0.3537830236619907
Ni 6.0053158841296534 5.516134921011823 0.33241985928307854 -0.09949886412828671 0.24512537585257138 0.19587255236403042
Ni 8.153650574726116 8.620827731912064 11.004043803639442 -0.6344996663556105 1.5482990404526562 1.0497945333791534
Ni 9.2552211838694 4.784876006040707 5.896593265668449 -0.4714328476676913 0.5499566522062077 -0.096242304864202
Ni 7.7265024814679055 8.726588542465342 2.68180474107829 0.01266448284154593 0.2186846651625395 -0.19330067787179614
P 8.331557525516068 1.668256572983047 3.4445925207360553 0.5292320180643466 -0.3142602829770201 0.3276349045117131
P 1.7522571621719543 3.2466665271569086 1.5348047079290257 -0.044444603466620235 -0.6774486591133108 1.0864769764018514
P 4.803758320848181 1.1137137509162716 8.157914206822634 0.37585157342625597 -0.8543377283963028 -0.4645687735580064
P 8.281739970634623 1.5327333369401124 12.315686254630055 0.4172956995036555 -0.17397986605599713 0.08422214047487431
P 6.103606767945908 7.626452375775179 1.4142249340203956 0.8876119170684005 0.11985711606966455 -0.47517148877451715
P 1.84895121382341 3.3182713683546696 5.962587542327859 0.40011250285614963 -0.9419755794209455 -0.43246212283144875
P 7.036689029576356 4.059039103109387 6.046169526926673 -0.1362612684593008 0.365224432729713 -0.9296476539832119
P 2.339954550372253 8.68327559770152 10.413952971522075 0.45590107058067936 -0.9882937457611948 -1.5855103593956306
