# total energy = -340868.4116049453 ev
CRYSTAL
PRIMVEC
9.31278882053477 0.00000000000000 0.00000000000000
0.00000000000000 9.31278882053477 0.00000000000000
0.00000000000000 0.00000000000000 13.63020778996977
PRIMCOORD
 96 1
Ni 1.677950312028102 3.7968518515947833 7.329930141370791 -2.125903793393435 -1.7348336032452125 0.17088785739423473
Ni 6.799471840016106 7.837875707557854 0.44408684346103255 -0.6317259602652152 -0.2938220697273262 -1.430362281334156
Ni 8.844755785680224 8.286761430985742 6.379809647222784 0.7147000872656014 0.7027241458506478 0.28043742089030416
Ni 6.142333537859677 5.2319805136019575 5.906296254335651 0.6557994562746512 -1.2956537020739558 0.7311518050637215
Ni 8.79822909382226 3.62712627931468 8.379579201150028 1.748699305483711 0.31458629885787115 0.5273509989915499
Ni 2.481560153324255 7.34949444766687 7.248230909519001 -0.1964104271453714 -0.03088897626937261 -0.2671597299447915
Ni 6.3838234591104515 7.676075318378456 2.5942104380963706 -0.4881234209494948 0.44569173414784535 1.4288851825679971
Ni 2.2084067508250667 4.472103527583026 12.043242343988796 -2.1238728790063353 0.9648789663816802 -1.4325263788650102
Ni 0.42681068932458155 2.3175805716118787 5.428897566043567 -1.2115259210851006 2.3454850022283154 2.3307487244594056
Ni 8.625309235051507 4.029066235397493 3.6269437486580713 0.6940798399120885 -0.1690078667627025 0.9033033596617283
Ni 4.71374245345144 6.785195335088512 12.06169749716232 -0.7640223305394971 -0.7348266828121474 -1.23121928574897
Ni 3.286287529252705 2.3549993562166223 3.725653720171143 0.5191088135874157 -0.1279082685089152 -0.8160115791225945
Ni 5.816656007642531 2.9297474176069573 0.4298066134179977 -0.4061319695773522 0.19684417224868037 0.7660828126129516
Ni 0.8368015511542334 7.630656848364187 10.604941746183618 0.11233483955069039 0.021191032255318345 0.18632373233333072
Ni 8.214410376333115 5.934080959131135 0.571396388772304 0.5982859354392148 -1.3537655186150235 0.7587639103540352
Ni 3.4681756034476403 4.9242766653875885 7.089411543971255 2.0547626544722357 -0.17128303595012437 0.22720015883271835
Ni 1.6718969994364934 5.668927242041472 8.946472856633035 0.6369345010493482 -0.029933554334638776 0.8905231771779244
Ni 6.841351450361436 2.9604423688407144 4.972163024381513 -0.13553056094086333 0.08884395551760182 0.5303350213205382
Ni -0.004970235277140801 3.9143326798150033 12.632871310287026 0.21281869330006573 -0.30014312684934763 0.9787765502993789
Ni 2.632492518204564 6.707601180452692 12.819741726384285 -2.2181642307917544 0.427809968771418 0.2295375487166434
Ni 5.317080775851372 0.4385848479546905 1.2891162433455525 -0.1128842842962572 0.1826236577739242 -1.1965474453983975
Ni 2.0889888625755324 4.693980716036989 3.361917616772263 -1.7541593001570177 0.11686923708593422 0.6956258442429698
Ni 3.1182289461324446 2.0050433861128245 6.069462829603032 -0.6612805339938805 0.030588928530450546 0.646101769370913
Ni 6.750598325430318 1.8610583615299614 11.762146995369418 0.48632750539133657 1.9832980707733459 -0.8629969467331977
P 7.654935288250838 5.520220633637155 8.733282637387461 -2.7906964543056323 0.007996902162547519 1.4586212761798492
P 6.815182514388481 1.5001878031840632 9.363284404835138 -0.14188787061745886 0.021158122134853883 -1.0627971162864083
P 5.1244923075521935 3.2335678329740953 2.862111427823763 0.8690529231192904 -0.4803630602777856 -1.0253009191131632
P 1.5389569421361657 1.145016671462879 4.420480877801788 3.341963597793148 -2.607208391648884 -1.7128375585900955
P 8.640517018839349 3.9913587543460722 6.1532071498319265 -0.9420113177548874 1.0354873727278617 -0.24338988121870342
P 3.0630134225083716 8.356579407138495 11.396857518831645 0.4930532541509444 -0.6184181874127156 0.012425627357862472
P 6.010194380379161 5.676749984467552 0.34618429071979573 -1.0347643785189082 0.17252076501196742 -0.5449165186791389
P 4.178927629588517 9.113317983398392 3.2393827381774805 0.08879561877816965 0.17575084191349089 -0.5928943321099982
Ni 1.4787963277641785 3.1635729138378945 10.03066025550227 0.01711789062720923 -0.3167331699975448 -0.46356424355289194
Ni 4.930600048848668 1.1619752595079857 10.66997201771584 -2.0117023329476518 0.9404043782790836 -1.386868214706263
Ni 6.9000499569228335 6.8163838641182 11.75707618197537 2.1071455389493257 -0.9853359486844514 -0.5949203614010916
Ni 5.172108595676647 8.605780317352117 5.183881823027895 1.8314042379831106 1.4813845380182937 -0.5162788003377883
Ni 4.093715613875873 4.6052484662326085 12.960336895915848 2.702993297260693 0.029167879813207828 1.4140139218831196
Ni 8.31919787368816 1.7327933241080762 7.22978879424952 -0.9687582468314284 -1.443043219235934 -1.096285220741525
Ni 6.6760215143017 3.6093761042383634 7.497649738985921 -1.1422940833714716 -0.6196769995204812 -0.5442963685966368
Ni 5.828222491086804 8.680198811074495 9.293648028060133 -0.06829261372881142 0.6424194354233195 -0.19407303726144642
Ni 3.6964413648829004 0.48586215057401405 7.9351114646351535 -0.4260760167994469 -0.249783443449873 0.9641935102788813
Ni 4.3386512669095625 7.486308625025827 0.80683485998919 -0.27856077269288154 -0.14101215288072488 0.3316337412584611
Ni 2.8581786371969384 2.227181332647656 11.921293239797109 -0.9997580376470524 0.6322016143500532 -0.0862196305208773
Ni 5.681983771662142 8.846469338783079 12.083015401552245 0.15591529524480247 1.0007245153253796 0.5983075327057695
Ni 2.497401206737065 0.6405401190302384 10.12812976357349 -0.6335087631972509 -0.24191715332791883 0.33666847546889117
Ni 1.7765634305397076 7.147313807107142 2.9015576065072657 -0.2170838963343229 -0.08791964393111955 -0.8499270009231169
Ni 8.918662076029463 6.299514783892246 4.9278518449320785 -0.00032627299116718 -0.377713309225343 -0.3435919420616018
Ni 5.756281199132687 1.1294829400739512 7.2743737696838675 1.5864729804192161 0.2977347745181711 -0.5595846622142749
Ni 3.3188264126297518 2.857796812864237 1.1359115580462396 0.019347294178360227 -0.7805139004366171 -0.12045361200308285
Ni 6.819587463397451 3.846014062627248 9.829314972080184 -0.4727736779663019 -1.321157502772015 0.48264928520880096
Ni 4.356000992075973 6.655999018806379 5.853260854523418 0.24317750809758118 -0.8829571919052084 0.27816585124730797
Ni 9.148892835859845 0.46481059193811974 8.982252590443743 0.3558915853645613 -0.07666104029816474 0.9432413335072465
Ni 4.321431920783587 2.935195398939405 8.65921616707426 0.09680049136051716 -0.05694402148521161 -0.7343132335108385
Ni 2.5348386169190134 0.27171550793896626 13.242318822010182 0.9704466902774448 0.01623677357383655 0.09710696685734244
Ni 6.74240307146014 4.865540907671779 2.454132128332246 -0.9749769740476305 -0.04768830721489852 -0.468990813885102
Ni 5.5154524858726885 5.885198131756745 8.228160708704669 -0.3294796710299358 -0.08325437724496629 0.8782466738034165
P 1.731787542939009 7.920238009958141 0.7085393075689287 1.9825038570068243 -0.312682654077255 3.4869043963043174
P 8.882537769040464 2.4969448800955436 11.006405818768846 -0.46365860303891115 0.7146396663413112 -0.5927038133657468
P 0.5792293752658456 7.712255502099071 8.302731932160125 1.1022146988520825 1.6007500591635204 0.6054821960773378
P 4.7449309824811285 8.179589859748463 7.407091251336596 1.3734599117201571 -2.3275309888530558 -0.5062237300946314
P 6.203844506579022 6.247074471271711 4.185060100883247 -0.2359280256240195 0.7887252326028158 -1.1308886697480072
P 3.5120760889197067 5.419633203941825 10.377712498119815 -0.06983450429463457 -0.018349449041465172 -0.018547423984884185
P 2.3343808422507433 1.9302710064235544 8.415725858831673 -1.8423689645247305 1.7944852534695739 -0.961701597094963
P 4.504577221439856 1.5927010451610477 12.946502748446871 1.735817050204404 -0.6866619501814626 0.4185398563234017
Ni 8.135624184756178 3.171991674734532 0.9587627619711037 0.6592609324606905 -0.837130620489397 0.8095028314697995
Ni 8.384601588043342 1.6209839841467637 3.6687199870499136 -0.464102118334233 -0.599184278883768 -0.40715012642922144
Ni 2.14813438298985 0.203260924037615 2.2630234621420007 1.387139723200095 -0.0561678054408194 1.27068494794376
Ni 9.076122705720108 5.960864539151853 7.40932632060119 1.2305104326074034 -0.3063906504209562 -2.1400461463320886
Ni 0.22473155816062065 8.860596839093033 4.186068675888895 -0.19762270228591772 -1.259335841479528 -0.2630323380399792
Ni 0.5624849813585959 0.7469443164866745 11.81413191262729 -0.1282409692579856 0.199084888653741 -0.33843662311290745
Ni 6.007083908985936 1.0746119896281696 3.473277149044076 -0.18517907720592625 0.13116045689762573 0.751305654303777
Ni 1.413113229750924 0.36336266057592076 6.926230999520971 -0.10117548049976124 0.5558632474986297 0.12264702010997587
Ni 7.767210267642275 0.5590476310854225 13.232069166874298 -0.23862588417115677 1.1330882485024871 1.8705461982898948
Ni 4.2033923252472185 6.929496994483859 3.309196057935933 0.11256855282805131 0.6941009229580111 -0.6102775605834522
Ni 3.762496974440254 7.503183397973512 9.398914202749348 -0.7650343167437792 -0.7458374321003541 0.8407083105383263
Ni 2.842728720905433 8.066811989772491 4.891977120677624 -2.3585171528219253 1.4521541803982667 -0.06648332843421453
Ni 6.8520984084086916 7.440815652702738 6.953504432222179 -1.0715368101522516 0.014792842038458393 -0.05316167162464392
Ni 8.937706728721524 4.794633335252536 10.406050382558286 0.4722142059184061 1.4846015022936947 1.3451741774015866
Ni 0.10470833865192541 7.980221681346681 13.190973693329298 -1.706990612891015 -0.02209066125145228 -1.2055614759715496
Ni 1.09662742188442 2.4761587359348196 2.6961230776098333 0.0605448514625925 0.47883556788966564 -1.083032983717309
Ni 4.126617696008416 5.104656067828922 1.7479927263861754 1.257340408316054 -0.04163027394627669 -0.19718947140324106
Ni 7.9107669039494235 7.654814221999007 9.32163109525285 0.32126062555425317 -0.5275818840554334 0.5884622644805737
Ni 8.664329819295878 8.134357645506242 1.9375200810717206 0.4398967247326231 -0.9886457297839747 1.0307339172032763
Ni 0.3392350878646291 0.6017272099717043 0.8974417741392481 0.7271421696836962 2.423106092446904 -0.13728096797306683
Ni 6.904790166321493 4.396222926050061 12.24728647354788 -0.3425671003415133 -0.024688503885615543 0.8485509465111966
Ni 4.795713618730423 3.781830323578992 10.82391148203589 -0.7648669379279794 -0.18315947567273616 0.6222614724182057
Ni 4.155384900001461 4.77097885220225 4.077204039683685 1.7732571973287332 -0.9513122834408388 2.3179839685945693
Ni 1.9214145444626007 5.011574745747187 1.1047723867961445 -1.1268031868247237 -0.0021802954807704387 -1.4122704568294515
P 2.234268364774139 5.758926031095789 5.491732813302185 0.29597305463205803 0.3900556328407799 -0.4476347168068291
P 7.5603639199927075 0.9149684422891057 1.8114817314046872 -0.3527121591953151 -0.14067456703564804 -0.3041216518811214
P 4.90761608657776 3.1615241003453503 6.104969698707688 0.36785261438117933 0.5920769784150255 0.5817560561049917
P 0.05895367696910647 6.083513965046446 12.359149827683085 0.7160491450943282 -1.806361950302502 -1.8466773620920969
P 1.2722573021384924 2.6477561787240202 0.3867517291510362 -0.48410890047346306 -0.09437336997626328 -0.10442201246151693
P 7.942653892124297 8.660027310961535 11.617925425956052 0.1431911628099147 -0.5882406353880708 -2.531902065606401
P 7.312625117589673 0.13717178844129232 5.273636617020827 -0.04147086555027697 0.8489173287116799 0.3484778093989934
P 0.08818000144025313 5.791707046976501 2.786259695935467 -0.26759553193062946 0.609517542488976 -1.1999587850727915
