# total energy = -340881.5878578385 ev
CRYSTAL
PRIMVEC
9.16400771471534 0.00000000000000 0.00000000000000
0.00000000000000 9.16400771471534 0.00000000000000
0.00000000000000 0.00000000000000 13.41245160257772
PRIMCOORD
 96 1
Ni 0.2849584876609024 2.635550310795173 2.7486405816608603 0.9129971899107243 0.8045915102111112 0.6458266613326554
Ni 3.4222162310365865 5.7651872652973 6.464265431936399 -0.22684663214804157 -0.506546917762005 0.4950564006239022
Ni 2.206509794342317 8.574258063491225 1.8267624757620724 0.030248514471896294 -0.28448202327332295 -0.5920219568073739
Ni 4.771341457064811 2.660320623836568 8.76074562190499 0.5186737829325261 -1.4369653884729703 0.7600700307599684
Ni 7.589383818879724 7.4710581503667735 7.440355975086496 0.47307758235996594 -0.3260858148570384 0.19330736274001548
Ni 2.7379031137398084 7.968911201273141 6.248244109234877 0.9017792097077179 2.288909676936432 -0.37173729414756623
Ni 0.7751577592656883 4.068764472253604 9.635223813939435 -0.22277117652708733 -0.21748473131716742 -0.7212533150030869
Ni 2.7679244032417 3.611379679723413 3.503962846077085 -0.38767299154121626 -0.7020615725659844 -0.49251795047276464
Ni 7.203148382788081 4.166993471695232 8.66279429189923 0.277599951441509 -0.11009309470436522 0.3436446496764082
Ni 8.178455403272606 6.055438883854506 12.914433870697962 -0.3901669616076635 -0.12348288574770992 1.5379264389690803
Ni 4.347597737111373 8.007409197975658 2.646826622373951 1.3320687503678799 0.14194777732111682 0.5966057195233144
Ni 5.6858361218916595 8.905848521164133 0.8054768790205747 0.7439407292982736 -0.0505687140864871 -0.9016869071042276
Ni 3.706373784417127 1.4051264775990606 1.8146110014398784 -1.1303518234079306 -0.32796503415762224 0.20622304236041902
Ni 0.6834810253899489 8.796063707906299 13.255458674384972 0.02024152385785546 -0.2837965671705241 -1.2691875374626271
Ni 5.9511524752673495 6.546528897015941 0.9453526282394609 1.953636282042855 -1.4849439732347782 0.6894387415956513
Ni 4.94518268473602 7.456505706005051 7.642321542648214 0.19488730563262563 0.20517120405713696 0.542061308618531
Ni 6.05688679708445 8.709207242125185 5.998088690337797 -0.46242395930086166 1.784111623544734 -1.1158068357142203
Ni 6.664753761443262 4.060526029255374 0.40426837060990306 -0.5342556965311831 0.7242849027405591 -0.031132973959378637
Ni 2.3422562416535255 5.883338817662345 10.438910962239706 0.5695428018682513 -0.839380078645206 1.2113693409025783
Ni 9.061673309531091 2.675514548743204 7.621465177331562 1.4431234376545663 1.3237134364246492 -0.01301106754768727
Ni 8.221562895890708 4.679078226690866 6.338080710347497 0.20751270770612004 0.4057015669081529 0.5444213242102753
Ni 6.002278474696853 1.8210899549434918 4.5243686980712745 -0.6720390580619652 -0.11857079315807323 0.31460172547683884
Ni 0.6210677175723262 7.065550805904412 6.105804270637899 -0.19536913036505063 -0.7273226611256184 1.2861552756652173
Ni 1.9481947429139541 2.402225508595033 5.329478100379692 -0.3762503515265714 -1.742213183538735 -0.41441015042574436
P 7.916703848925071 8.076505816670487 0.727275818591884 -0.4339500202308849 -0.6892610783672065 0.25769781320094326
P 1.5760902068259492 5.243929338509422 2.8120408531168692 -1.4042946377128267 0.8010819543959559 0.00903691339128766
P 8.359426229000125 8.123672964737104 9.508046630307476 -0.31574612349392717 0.045244730770412404 0.12405675597330892
P 4.329727921931675 7.451227237521201 9.866507791605976 -0.8742774047430235 0.03001531541516766 -0.11284597485915403
P 1.4086454565882933 5.214897761848251 7.338850842861924 -0.482155376291518 0.13990683563168807 -0.667843789033695
P 5.756215701676314 0.514600275132468 12.103355950119528 -1.3149426322105549 0.7584378944731841 -0.9588343028494971
P 3.1365741083949628 3.8402965941792275 9.559550186857699 -2.808714745259924 -1.0656160737924423 -0.12106682010704956
P 8.033993984558377 8.135247106568876 5.223171028076061 1.9606340535169267 1.9275732664072158 -0.5840867611206972
Ni 6.516654231638602 3.9985406806012858 4.657621618864331 0.5113829056980677 1.281713694954096 -0.8346801020663754
Ni 2.7332569617930873 7.012133804528793 8.45546411418049 -0.5552189290464115 -0.2553977043128569 -0.11187564052608474
Ni 1.3952110211762747 1.6219469017793882 9.41281792701448 1.39578762868308 0.8868377579065373 -1.0131581131030423
Ni 6.362873017007575 2.534480468940362 11.314932373185055 0.621214262100614 0.23835000480195082 -0.7663142118974673
Ni 7.137140034716615 7.9636968808437825 2.9649294933896893 -0.31661181392833215 -0.47087620383327294 -0.5792687709067637
Ni 0.2587659206113584 6.229811623977214 8.884073005866698 -0.22997155093026844 0.5663505201831988 -0.5820154804139653
Ni 4.6696118066495185 3.5621231378819393 2.2391547392728994 1.2644978452964417 0.8760977457812137 -0.43685253858966056
Ni 5.315481911290486 2.0913365445072216 0.2679766648355193 0.0695902494943124 -0.008413420874675833 -0.7628887311556861
Ni 4.271206568220113 1.5041527457179371 6.391382245225031 -0.8330772763556298 -0.5456009463406732 0.3207800863734089
Ni 7.875410829848293 0.7823148493453518 8.223818158206463 0.5949789825531688 -0.5361652548490701 0.513307119303974
Ni 0.4994127650312822 6.929950982717755 1.5328553344996447 0.22753723045716295 -0.4275526013449733 0.08211897808894243
Ni 0.11264948209125496 0.696195169790109 6.2683361963023065 -0.45102651609719746 -0.21960794830775723 -1.3075707652265156
Ni 8.781511263544576 3.115139494187111 12.023592426363587 -0.1889403440205714 0.33601464393497615 -1.1199362845015615
Ni 3.942649397123863 1.5788394091612874 10.854857944370123 -0.08241414073185807 -0.2903191987803903 0.4830190098433939
Ni 1.5556453054588186 4.653373184855456 0.5556513644037357 -0.054214795479506625 -0.2280043999015686 0.42186789225537025
Ni 4.435966264176923 5.229211942007579 4.484774686037736 1.30125330764892 -0.05563404442453644 -1.5766786200366136
Ni 4.126378589194505 5.289208700972439 13.180764679735395 -0.4565649294169234 -1.1024838933530692 0.018935660562238357
Ni 6.967285150431645 2.6937600882420636 2.3183290173282995 0.2691078548100978 -0.6978015117380498 0.3566765431597019
Ni 6.78412412684364 6.499123484746929 5.186970448125109 -1.5442186997356953 -1.6381223291643916 -0.3625998506226723
Ni 0.30818558179139516 7.2250595254007255 11.199544685567803 0.5574239071175302 -0.3075887844941154 -0.20984135583929667
Ni 1.1846129582815959 8.752048978517536 4.294934933576416 -0.543972923818947 -0.9345461197260937 0.7431686270189395
Ni 6.44325969329286 6.588756644886734 9.6165264888568 -0.5894451972191334 1.1903958239747046 -0.1469349461230631
Ni 2.868682668831839 3.5129490721105263 7.1921726506646335 -0.3707664455938646 -0.23449180739812517 1.1885433441469981
Ni 2.7125921242391295 6.799785416147282 4.029744127107373 -1.725553463494867 0.8151070650304543 1.136274873760585
P 4.0476231062948544 7.334193694105861 0.5633912853784907 -1.8712434814672352 0.8892959896390426 1.116142107566452
P 6.627364609682665 5.44569329789988 2.9131308557888063 -1.146172078269639 0.5103650059565146 0.5929169578178175
P 1.8090209566913575 1.0869887833537417 3.1065253268697184 1.0196910291255534 2.153775837213355 -0.9008775238290551
P 0.7717789895955579 5.063939061614839 11.938932573248408 -0.17617224572162563 1.6000723163702057 -1.0000205472798198
P 5.553681965631959 0.6770671363416052 7.882860251776281 1.3233205718616048 -0.3488771017199411 0.7010794111583732
P 4.184029362166544 3.2669229551211245 5.201227811436172 -0.2412558655948361 -0.4872029660177544 -0.402946372760519
P 1.6341167041171512 1.1058849674052986 11.884732965607997 0.6386052038835517 -0.09770243434949624 -0.7980146283245417
P 5.748527099145151 0.8435707429797972 2.6052211106317236 0.25495367479690284 0.29256582872272197 0.5703650406592307
Ni 3.273887601037314 0.21002347960659326 12.869167337845845 1.2344869007566481 -0.49198238968426883 0.7678321912038906
Ni 1.0729861794590867 4.672709241280666 4.978594657118162 -0.06917604477502926 -0.09500714690552026 0.3829442186069792
Ni 4.950030444853999 7.459639796667337 12.015732456886854 0.6619852733703889 -0.08557299807581391 -0.8546364905836441
Ni 6.46736103376599 0.24842158862425978 9.906678219729157 -1.5588140810513669 -0.49521169525484393 1.2916947174262077
Ni 2.103295574665942 8.660564688805271 10.441164391753905 0.3637259938073155 -0.9133347757558011 0.9069854364990058
Ni 7.508758878392042 8.296432839489746 11.990302335284978 -0.7810322348339322 -0.7715734034138777 -0.4920970608852621
Ni 4.146576062351455 0.6538702834368012 4.097584360334952 -2.0927648447476215 -0.670137470163878 0.6801706860301641
Ni 1.5962052039128394 1.9688595804679119 0.47357392868221826 -0.7195224483549093 0.3979550901935146 0.5259806010065845
Ni 7.890650574793852 5.272832619061608 10.7048266417245 0.49937765370707543 -1.232118914745104 0.8691693940924966
Ni 9.002281375080006 0.7989713498943865 10.852511041976523 -1.9690616154589897 -0.46941350324481734 -0.1467562544533537
Ni 4.644969789717105 5.027970331060833 8.687741470290867 -0.8078632389838474 2.098589936069831 0.6846004396667436
Ni 7.992114468983393 0.9180961198861409 3.9041633136314653 0.7044493560718708 -0.4263518961686528 1.3527795005526702
Ni 5.536279514849269 3.7981513223784953 6.901149422651975 -1.5947190224780925 0.9470648210183948 -1.660469072290708
Ni 6.9575346461489795 2.2156188180800704 6.59295742605513 0.695162531453306 -1.373113584124332 -0.002252543479602572
Ni 1.011834755513384 8.596563258438602 8.162724467509802 -0.43680805850497034 0.0891638007508658 0.22118891964163198
Ni 8.40993823990807 4.818581917193702 2.067596265940799 1.5429097511162848 0.2750812987847134 -0.4834226730397158
Ni 3.5107772022656087 0.34444481139216865 8.786537721814353 1.1449487473854991 -0.12423776163586346 -1.1786440827554152
Ni 2.3657344295973126 7.0314973529773575 12.73796623839573 -1.0053409310514685 -0.4084225653837418 -0.09458677153865
Ni 7.672418893414717 1.27128614390702 12.95418825286773 0.30566997020484776 -0.2630968727293276 1.7447153811352984
Ni 9.02192900776989 0.37999291398886803 1.9250088868184914 0.19358195655764082 0.05323083429968252 -0.18263342796593707
Ni 9.083978504478468 6.6156530077341245 3.965994706954775 -0.4353417583720889 -0.7006947741254449 -1.5337949332992102
Ni 3.6380652703917606 5.826760233601088 2.218969179326069 -0.18167466359709356 -1.2058013598964976 -1.9057050055792149
Ni 1.9151310028276218 3.206678767946083 11.500627244925463 2.1766254881180194 0.28813530375519414 0.674783967796954
Ni 4.535963917120952 3.9845197486910613 11.060873086971794 0.20682596605174056 0.29292372628277297 1.250958673159426
P 6.283586021656426 5.655640716241862 7.483531281362202 1.205564304185027 2.092033880118868 -1.2436767947860323
P 8.529959249861145 3.0665977449528254 0.7066549682752917 0.9743542528619672 -0.9186615872853533 1.3052246335918425
P 6.0459724638131584 5.187882266899663 12.153746996124717 1.0587224319964024 1.288869846382903 -1.5298562603664363
P 8.128758989057479 2.618587732386137 9.702527036310846 0.6617672438223119 -1.2827002272370813 0.7687616449966954
P 8.396256376285871 2.8302763122071664 5.031721159447013 0.9845705312733366 0.020693009572977265 -0.11357076884032052
P 4.615140944378687 7.3473257172609925 4.9988480307225975 -0.7010362166252637 0.8701839513999402 0.31841749967850325
P 3.420044361191669 3.2362876770976743 0.3238881091300676 0.21733612155444504 0.19614020420312026 0.4650097177501669
P 2.107034489842002 1.1285658866718375 7.152927787327682 -0.45914734543211894 -0.07703693558034475 0.4881072229995788
