# total energy = -340855.394625452 ev
CRYSTAL
PRIMVEC
9.42094562399248 0.00000000000000 0.00000000000000

0.00000000000000 9.42094562399248 0.00000000000000

0.00000000000000 0.00000000000000 13.78850620449013

PRIMCOORD
 96 1
Ni 8.08693023450352 3.298103458130148 4.084224838150292 -1.9076824410205597 0.07105526407561312 0.3921045449500086
Ni 5.813656074601539 2.9052029241943336 8.983804250345493 -1.2878653163777884 0.2648128269791697 0.13825078808550384
Ni 4.054944539397804 8.452896285127439 0.7242040996176419 -0.4366064840171255 -1.0616123519496878 2.38703171532185
Ni 8.693997123503783 1.9721713193523431 6.164634342958623 -0.021738934338988367 -0.45660889528098136 0.3304464058185793
Ni 2.0855900827632836 0.5158372786304224 3.0675154528869784 1.806042362179554 0.2914692532244335 1.1217054605868422
Ni 8.438209031023472 7.51068867932505 11.333104498697503 1.042824272708907 -0.09344134508029714 -0.24445406081715967
Ni 8.912205064206848 8.423154360043268 0.36921627683679425 0.32858749823296957 -0.12216416693628639 0.27359674381938687
Ni 8.275933244018452 5.412361478185523 13.553136184854413 1.1642636456640272 -0.37321876378909913 -0.15741296283625147
Ni 3.223706251164769 2.550542008223882 3.7342857000867733 -0.39595348638245353 0.25083605308410345 0.4076365791473367
Ni 8.344282203944225 8.191653465176831 2.6987278290724612 -1.364529956220379 -2.175906607674124 0.2365944555634248
Ni 4.316941034991977 -0.015090470573273892 4.57018641426981 -0.04694345862907399 1.8302192165360738 -0.0773683507778345
Ni 5.239110289621091 3.835916976432362 11.298164095861846 3.001296542687825 2.7647558231804705 0.149891971868858
Ni 4.909848242838771 2.2457838408029573 1.8433163366666434 0.19081416400451656 -1.5925173868410831 -3.3186640038352584
Ni 9.402301493325874 4.604694395704974 6.119821731286821 0.8266310065096537 0.16061630026489757 0.5207422354257806
Ni 4.820434048675365 9.419871556766475 9.013491533945507 0.23267558012499281 1.4075393699023695 0.22849110973000003
Ni 4.219311776313717 8.394806734899692 12.303732270924165 -0.010314494552130623 0.1491293826712206 -1.4729461774429535
Ni 3.4832061961896343 7.302353889552682 5.463364593174655 -0.4792112060615295 -1.2798799841794668 0.6199824465760418
Ni 2.4561441338674057 3.9609517656997433 5.755019167437652 -0.83110215490713 0.328430403829815 0.7766284493392819
Ni 1.8203245190651485 5.763084438918349 4.215257001351339 2.0347556152226893 0.8475083641792952 0.5417594611073959
Ni 2.9801748088379303 6.037770948161043 8.05964340782826 -0.021649974169607875 -1.38749402121572 -0.3596734210044967
Ni 5.7606349930767635 8.530515455469057 6.327945491878991 0.9576356545557055 0.5558812452207588 0.4802576450481728
Ni 6.882010141245568 7.369760754923999 13.306873610414206 3.5228944412456813 3.0963047180346095 0.3584786293654471
Ni 5.5452062313093435 5.916909637769901 5.337089065379055 -0.5384825901283371 0.5563566421952806 1.3598042686099356
Ni 0.7909618618409382 2.8539435594863902 4.41109490685885 0.774569252817408 -0.32254592002458 -0.7892535943024601
P 8.185482745845146 6.109191136334341 1.7783447857185954 -0.8137261255225278 2.1886965603499404 -0.8632466008501585
P 5.788040523665885 0.6927777094701034 11.016919666425586 0.3272654369874363 0.1542520486097666 -0.8253547109003915
P 8.170022974206525 4.201176456140442 11.334800268895526 0.5344310457667828 -0.3818712972577746 0.05213631568392311
P 1.7266332156245137 1.4010170747679365 5.621284134959871 0.6396164187568856 -0.63007994002136 0.6141396146420198
P 7.752128671740996 9.210415674474305 12.60654124471192 -0.2178328586852055 1.810268741556076 -1.099946728753512
P 7.465797873805228 5.083429164497261 5.472189192866242 0.26569934334918116 -0.5507277260442772 -0.04014340498810506
P 8.941994094018742 1.6637484041145854 8.72280166450627 0.2895342409852497 0.08305665941186342 0.014970762377219378
P 6.303582926700763 3.5200986189421255 13.798709146080755 -0.4930907922570991 1.5688874061269689 0.6219549969213805
Ni 0.6537863000502845 8.102569004107487 4.339476878829116 -0.032165014768318796 -0.4123931199957156 2.1479654011791656
Ni 6.171821582314566 0.11864738818817043 0.6710784455973217 0.6517872497914646 -0.2640404675895195 -1.2098647313325939
Ni 8.713762267256266 9.209784471122818 7.46897179035919 0.8617952131156126 -0.6375826761563084 -0.8044755534585369
Ni 5.557632458482616 1.7261150636195628 12.926435103244733 -0.0991417378991841 0.31132845404220577 -0.7448208179103818
Ni 5.767248496849043 4.9016708621060925 7.523257162776045 -1.1527556450244276 0.12823916948577269 -0.4691512507223662
Ni 7.654800883320162 6.822724130933661 7.266432766285835 0.641250869036515 -1.099006733437746 -1.8729419522155808
Ni 6.263619275700745 7.7842635169934855 4.117703110237435 0.35255043680647025 0.6235369966965196 0.5520076211979655
Ni 3.7350563334323184 2.4386211751545264 11.143070837739996 -2.4858731483717964 -1.9793807379968102 -0.33399015730577963
Ni 0.10455742203172866 3.175282591065738 13.341427754482536 0.05233377640670986 2.3925243630053057 -1.5302234138978679
Ni 2.6822562478823553 4.923122355111053 10.466234310225841 0.3682141114856562 0.07732541335504102 0.10675631702164841
Ni 7.666219069320166 4.10358488124436 1.865791886452297 -0.08031560633161652 -2.3301486289815614 -2.0776002211920415
Ni 5.624163175918288 2.739130496134855 3.686688256912 1.6352668619934676 0.7558374807358597 4.013130023442172
Ni 1.3437942515302874 8.240124230003586 6.7737418087638375 -2.521145855531161 -0.9911929216858607 -0.46010148181527216
Ni 3.174717334333064 9.184545758008946 6.780787733936613 1.8084561138273694 2.1001467390339896 0.9534193024815129
Ni 1.462978633614498 7.595863447993405 2.3303123326069546 0.4879442150591532 -0.8791563301018794 -0.6603302542654692
Ni 9.506676149014039 0.5832083444086696 11.220906689829139 -2.172638992666445 1.433839441249479 0.27537748986889343
Ni 7.6288273364538135 3.6692416078580323 7.657171193219173 1.1406704317251193 -3.5579090096476533 -3.1080644296736986
Ni 5.251988722180503 5.982827993745177 9.547988879416037 0.5179947545876304 -1.0278751075982426 -2.7862960112450916
Ni 1.1442963086787157 2.565785098114978 9.947387039493933 -0.117652652219178 0.05420502528749374 1.3415448081791155
Ni 5.155942182353729 6.44863722525033 13.556942246854412 -2.745371505116588 -2.5083512748696544 0.48870937535995196
Ni 2.840933233689355 2.8461053327933175 1.1742954255762534 -2.5500260289006214 -0.11266728318944468 1.2990041066034275
Ni 6.960034412245602 0.9569608065251689 8.19483962896 -1.6045624909310752 1.0598426616437746 -0.32301977433720497
Ni 6.847717899463375 5.720275662363875 11.847125419026938 -1.9581064019990664 -0.3564626273766829 -2.211023505981915
Ni 7.799563132557848 2.060831837872184 0.432905637096228 -2.041743102284116 -1.3376588428611478 -2.7021018957946756
P 5.346198177626088 9.359097037058527 2.650785579290757 -0.7603477099013872 0.2362463281953867 0.13452937336985865
P 3.3747051663529533 4.9927054589031625 1.6284226846061542 0.5915085075060651 0.9326057081702712 -0.9349973483308993
P 8.504240438345285 7.861995738681639 9.091878511349005 1.5164081052813303 -0.6811150522213044 0.9329278673963802
P 4.497493456353442 3.8697758547195056 5.726228757853482 1.5611532707075049 -0.409212922495521 -0.3876315967803195
P 5.952652705165956 1.3107361536144317 5.686104008684652 1.0507062465601453 0.022019955914516918 -0.6157491252209847
P 0.4037148373264133 0.08437021991884858 2.067021399094959 -0.3732470459238733 0.8519049505850942 -1.6685230529434363
P 4.6190990214426035 6.446545775339439 11.291462977296002 -1.6079360353889984 0.08245887792686443 4.24977281574503
P 1.5827188514858372 4.086203236714649 2.8029687073338927 -0.5171478332063029 -0.6154742742930432 -0.061959729532248126
Ni 1.7497427950453157 7.844435096186582 0.04296422215595929 -0.530592645857299 1.9821248764008508 -0.8807396154285992
Ni 1.175065116827244 5.463931734096437 0.8590131198875025 -0.2855881118533082 -0.36034833558433427 0.8252629225175336
Ni 4.071327563699791 4.026361390615613 13.494480435799435 0.9874504239242929 -0.08861846977035706 -1.040514650739124
Ni 6.499802380502827 7.968546632790595 8.821045168834036 -1.1423902426297035 -0.10473594415750996 0.4336949667972853
Ni 3.3667915720955244 0.9678985243024013 13.593081936057894 0.26899678315353026 0.42402401936642453 -0.9913808693269508
Ni 9.175577017850527 5.617106887705414 3.5201231134005413 -1.034905532082463 -0.5377518826098997 0.5513910706598891
Ni 8.79573391443947 0.6579795629121674 3.9561979565779586 0.8274956685027942 1.367644847700277 2.0280139256234815
Ni 2.9865245261349624 6.164623979918523 13.194055903329009 -0.06910199700398421 -1.1135782034940176 -1.1460162694180651
Ni 1.0867625942380965 1.3219376578669118 0.2081812283599916 -0.03660839525165308 -2.4458079049197945 0.13980681971871406
Ni 1.4705436528867786 9.322637977801087 8.952035879874687 -1.0182679235257817 0.9739549605410194 0.1560219960259958
Ni 9.2495502822664 2.2966098420158505 1.956037008012732 2.6958700559523505 0.7785287516857882 2.6290056900296332
Ni 4.239887121383033 4.889150425477375 3.7336931226120207 -1.0751139859805485 0.09882137844528786 -0.8533923337638981
Ni 6.121136895284842 7.458374168716117 1.8672398857824957 0.21269013814200144 -1.3103128467480272 -0.9066355093587546
Ni 1.3244907341094871 2.8092129100408263 7.64732630512511 -0.04046710687611095 -0.9520121377213411 -1.7270547306307416
Ni 6.591779071854353 5.306912834705279 3.3594451187598775 -0.0012382432824752869 0.9403825239022127 0.5801254624801041
Ni 3.245939682649927 1.6657739074066653 8.771075531571142 -1.8322100217138575 1.0344887562600185 2.1180182199977717
Ni 3.821031882471959 7.610277494676578 3.1537208729979067 0.008356085274179158 -0.7651492450550887 -0.819087389834441
Ni 7.477310269260679 2.348971457352507 10.568986679091232 0.29499037900381453 -0.9184427864063279 -0.14699459571640489
Ni 1.5133806922778863 8.44702703605318 11.24244485553311 1.5513033744966185 -1.9214712672745358 0.9931073650997542
Ni 4.366203159244474 1.7301943330403569 6.976611508025808 1.3515057760465692 1.7040258738357361 -1.8050815409281817
Ni 3.1855796845459405 7.851302965488565 9.552897192044751 0.4090545425407859 -1.0672898619504394 0.8714923857987186
Ni 7.786741225671705 5.0343083544279335 9.133961875096547 0.8747481737318547 2.8695388185258324 3.7181622701461774
Ni 0.8234669502533286 6.639439635364274 9.408242341586272 0.4415455731899557 -0.22655738304239692 0.4613986033601409
Ni 7.248475501983352 1.1818387766737817 2.4241298767178865 -1.5151017277650811 0.12207726364943494 1.14339065886976
P 4.499754483284136 7.51827254048842 7.713621498922168 0.11984271789196134 -0.028658801387273225 0.42474572802379756
P 1.5536740763719632 6.2139143670076535 6.45187614632855 -0.10682470836573861 -1.265934063522336 -1.4993740326171792
P 2.167721886020745 2.827357651159646 12.637068876654508 0.30577692809635726 -0.013156334876299924 0.24840173261099796
P 8.003479498869819 8.443211553107634 5.444653653228607 0.4336240043500339 0.23205337315996163 -0.23064595128947374
P 0.6613353037151392 4.475382497160363 8.740313318084496 -0.611258950660115 1.178292098732635 0.8243967178624962
P 0.9444403698964505 6.331760974824537 12.224421098762745 0.11840675677638317 0.5345207772671117 0.3751882288106442
P 3.892772382793773 3.9997095356700574 8.800335104243432 0.23629260805228983 -0.6582065230542471 0.41634773376808937
P 3.3369271747192735 0.32954655933776716 10.784817715233405 -1.3289515448951372 -0.2768880129761489 -0.8014745618486843
