# total energy = -340871.6915197116 ev
CRYSTAL
PRIMVEC
9.20477568878747 0.00000000000000 0.00000000000000
0.00000000000000 9.20477568878747 0.00000000000000
0.00000000000000 0.00000000000000 13.47211965352891
PRIMCOORD
 96 1
Ni 0.6043597923005416 6.17754581748702 12.331327665816318 1.4643082992622976 -0.8509287027147537 0.6502278757241448
Ni 2.140727046172546 4.590752961941766 6.704292782912219 -0.4280349402980305 0.2852584964280313 -0.6610486204887325
Ni 7.721564080834909 6.711947474298344 8.692103653531264 -0.6812140396930139 -0.03466464126172094 -1.1530742047061109
Ni 2.3865589880307208 0.6639754419294275 1.4911349865903523 -1.2373207706610174 -1.5054217814731556 1.2869572027412224
Ni 5.168297401974317 5.909521161665461 7.800680968042735 1.7210879715243457 -0.3144909109305874 0.9651396762422346
Ni 0.5763929226054171 1.9065575549952525 2.228517593425039 -1.5067726390740952 1.2463029195549697 0.4560666496242662
Ni 3.6751815476755776 4.9832261838292435 0.3416435305655385 -0.6372684873499992 1.054305019654997 0.4613075863082314
Ni 4.32745035600126 2.115662442223026 3.492054378136505 -1.0629143585905632 -0.5110324643371844 -1.0691971062754813
Ni 5.544505785382617 8.327855035055617 7.432042592085073 0.7555407754310471 0.5529836119579896 -0.12098763012968197
Ni 4.393034382126976 2.1032912238212074 11.666235684607022 -1.0671049996331428 -0.8975276335202155 0.544110992058708
Ni 6.084927365434114 1.7760430418111786 7.0763921544942 0.7151515729807232 0.028970419090421074 -0.15861341090225586
Ni 6.846944713197959 6.665895981988596 6.08099140338901 1.7575876091122762 -0.8404126336747785 0.3629240667313104
Ni 6.669366182388511 3.774491871587206 2.0009470058729426 0.11402276877607459 1.0031434091795175 0.5328313053798307
Ni 8.38050635146812 4.0081182810043 0.09969232209888658 -1.0539419798886236 -1.430989887615826 -0.2345152044368929
Ni 4.565228119212417 3.351026170266004 9.59050539987713 3.6040677675919026 0.45449673403398494 0.40210947868152036
Ni 8.211138480490833 6.977726164874333 0.636905117377411 0.5050173684913561 -0.5990315553559877 -0.684361327072744
Ni 4.806034253594854 7.18814733501242 5.378070555910403 -2.5922571696556904 0.17728604761109468 0.2661266606945868
Ni 0.7567835123596232 2.021304287582365 12.82066182082917 2.1566937821910988 1.6148877841164835 0.5478732873146177
Ni 6.459672189522555 4.901543005185089 9.90819166099742 -0.20580061011101974 -0.4193875490356777 -1.2468006851269946
Ni 1.9112796048763039 6.349932854859989 2.1963726760866216 0.7577120720507531 1.0189646924824902 -0.7748011663225559
Ni 2.5692001454182933 3.8832923191389197 11.63213751388701 -0.9740611471015806 0.41284614837273415 0.48031189532487595
Ni 6.8597945799308 1.412491224848192 1.1869300398088314 1.0284615762293319 1.5405098834255404 0.5005292508130154
Ni 4.880841464868355 1.0574722348632462 9.378305867093783 -0.23865185231308575 1.3942326254911344 -0.928494257105059
Ni 2.0712678095206645 0.9536699804604813 8.46974665087708 1.603814299911141 0.9873144125670609 -1.9057764822470986
P 6.247695412308645 4.96643667314106 0.03604037837089521 -1.1240983862990512 -1.2654334697368337 0.3956097298897896
P 2.0768827226345854 1.192994145971866 3.5568283840097212 0.7481305990099051 -0.49116555020992836 1.6945498160245007
P 2.6369196794824186 2.94666037830773 9.668468928702703 -2.566004663717065 -0.5670208067773461 -0.27410453669374085
P 5.453479759507922 8.375250424602468 9.813145909619692 1.3839955211441584 -2.452895407894195 0.17532918099503997
P 6.594927162138874 2.7622334944544185 8.93528922240542 0.9758277520837001 0.8110043557159904 -1.766348128913726
P 4.107870434144565 0.7888768829546998 7.194435117222452 0.2689736432250788 -0.13037652754374968 0.32737290909957817
P 7.948885218968339 2.0149714019719096 12.445813903254045 -0.6248009510106078 -0.4093743877740498 3.238141937919791
P 3.3256762182729904 6.494889660955115 7.137097649553722 -1.9888845637221875 0.45187935101579596 -0.06392328101652216
Ni 0.9273811413566154 4.107060413892064 8.608617259347739 -0.669885502054072 0.7744998330320532 1.1538771602233806
Ni 5.219724483232475 2.8078155432087404 0.42178398881970464 0.5325130028084636 2.6342939350117662 -1.0518822691461174
Ni 1.898586219328604 7.008681825205672 9.789811803482332 -0.7238789255513921 -0.839786055834373 0.37973753874422345
Ni 8.794537157802816 3.2855249871206573 10.780349671639843 1.7635479404607695 1.0242254266607975 0.17547444832365264
Ni 7.426238060593861 -0.042032687284276414 8.776736042276568 0.2151116030993005 0.38048341577131245 0.37103306899169003
Ni 8.740164548353748 8.354493655632153 3.003757601333388 1.0523065011677295 0.3982242846945013 -3.6822341887910004
Ni 1.0564965286500074 6.602788040498363 7.41921757824634 -0.5916015814405037 -0.2568951147939898 -0.2503575707857882
Ni 0.2867757041893746 1.0578036067847234 5.389925386401253 1.391184839803746 -0.5115978499223512 -0.5188172504889259
Ni 6.2862450125071705 8.402036321588549 1.021628838690118 0.5360665244876768 -2.285220401010303 -0.5981823199818149
Ni 6.714147415665929 2.4592122818146187 10.955513789810304 -3.472194858008285 0.15610427132715696 -0.3155180666435211
Ni 3.2713128135995198 4.946517538750037 8.901702837208576 -2.1596472083924674 1.4627761788884874 -0.9213365630143551
Ni 1.1866888746882007 5.502154612862698 4.4414883208674345 -0.15039282276467647 0.5584559479264705 0.0032372759903750697
Ni 3.447363351659933 8.295776392101494 8.7274950952226 1.1417230413593498 -0.7687670443133341 0.20001614221875874
Ni 2.4917235492217813 8.468209453352447 6.552987443088123 0.22050063532535571 -0.2775526431433414 -0.9184556419221345
Ni 2.0597526352493283 4.012545778066261 2.4712585716378785 2.5278127260283756 -0.9351971230465312 -0.5817398581550756
Ni 8.884072010030865 7.3525906510455314 4.824945465058051 -1.3776916904133176 -1.249978568634344 3.4533561280352267
Ni 7.5709555425234765 5.276232600619951 11.842720688075595 -0.4050176534672509 1.5417152165875514 -0.4134950948106427
Ni 7.42432346726977 4.634365188718418 7.593883718057026 -0.1539031499107801 -1.065381846294449 -0.005902738637680157
Ni 5.397919734006893 5.385299986663966 3.8842008304903035 -0.21494011051844275 -0.685876992386322 0.2981322670669059
Ni 6.188619162529719 0.16639472845958844 11.936755755092816 0.2177881214901991 0.5825862653157708 0.09817011801453415
Ni 9.36926493650281 4.900889466117731 2.0377789949451444 -2.468075715179059 0.6956248158017052 -0.1321115079569854
Ni 8.59532740434138 0.6563060229023474 10.944952230290774 -0.5646924157544855 -0.6690249538259897 0.6399113242894849
Ni 5.131174541993262 6.651159136258452 12.673155291893787 0.2041265648427065 0.8049355238140912 0.2486462445216363
Ni 4.735047024193937 6.527152399421169 1.9198041475563077 0.17454448031021552 0.23003222896487477 0.17407602531422925
P 7.138616437527159 6.335361695090584 2.3688701707667503 -0.6992310450957248 0.16881580535655444 -0.5502425588777426
P 2.7363312559256094 6.739368500800591 11.799838400003752 0.8263975503426089 0.20512595264149835 0.9491479287996686
P 1.2243364068782607 4.147800750682579 0.1502587568387632 1.9589625793517746 0.4646309942545095 0.15301406243760746
P 5.3341766630004965 4.756733475499508 5.980920765013104 0.41744765170048753 -1.0743030600434789 -0.15666888558137534
P 4.360007647286404 4.102632916830104 2.4001931016443923 -0.3255096306385942 -0.5334288297545136 -0.5866748335628478
P 5.862788515961565 0.29967067432263994 2.8718789404058995 -1.2520791599171144 0.9871830291955191 0.07010961233289215
P 7.6337505216434245 0.17458974017323406 6.398744859371155 -1.8166718168689422 -0.14309783176516003 -0.6014345083705255
P 0.6486246376669915 8.907544187802173 9.52152849346651 0.3484248446738709 -0.2712146167404555 -0.8169047803608255
Ni 2.948823500572929 1.5267777186554747 5.6418269572878215 -1.4287162610903008 0.654951249341743 -1.3572372792137077
Ni 3.9336976703058566 3.203832603700906 7.083330714338911 0.9887503736826392 -0.09999148749398908 0.2869829353183057
Ni 6.5698993772917404 7.746996875808294 3.8474894239784168 -0.24866758467787498 -0.5491380129596543 0.0753268948677735
Ni 1.3024113134885518 8.789373278693128 12.733038800492533 0.6248076358788273 -1.0777457671764406 -1.3143114263844589
Ni 4.672914788916943 0.7554534222859157 1.0480382603542993 -0.8459330492723754 -0.17827232278376395 0.3033742321921356
Ni 3.927116255754293 8.80128425831512 11.313737882657984 -1.4757155126579746 -0.6768709322329697 0.5484109049856426
Ni 8.167977287718415 3.053150427184699 5.821639487134561 0.740112356691119 -0.017430022550989337 -0.01096935452731014
Ni 5.439055876148061 0.43070341637280196 5.0954922293930744 -0.16438733727155558 0.26420604663310626 0.7425939854623921
Ni 7.618470594153083 0.823834779715436 3.9859826366496165 -0.38026127245817737 1.2521570643429014 0.6767876284905441
Ni 1.7735761619512918 1.309885591272984 10.772657240673771 0.6291129481224004 -0.0018979883536612472 0.8436573658643214
Ni 0.01282317288361192 1.8990004342304505 8.877210770301165 -1.7427615998430375 -0.36169662208211256 -0.3196030353461722
Ni 3.0972413022923737 4.194192819689402 4.613580805421313 3.2981797678389784 0.12570894686475123 -0.3237959903815972
Ni 1.7157793759802926 7.999815242344281 4.222619928164356 -0.7365493219302088 1.6158352356314174 0.38561328079871005
Ni 7.824132895307732 5.056717112192432 3.8685057676205554 0.4703103040274738 -0.3838325347492034 1.400032262892047
Ni 3.7547936518104996 8.634769867772775 3.2988507407518433 1.2831008051096096 0.8416056255416151 -0.7285930431976098
Ni 2.9739709475028175 2.831600683350333 0.5834023592222216 -1.4087359613136317 -0.5684431410461694 -0.26127627458082103
Ni 8.794638410334379 7.391913452394171 10.598489079222862 -0.8623567420460374 0.7651649287843725 1.521034034089116
Ni 4.825474739654855 4.428804140095331 11.794854014018199 1.5638817253822614 -0.33869656164251344 -0.08089924674922841
Ni 1.153855440135158 3.078638450811662 4.399536635608409 -1.5065468962165343 -0.796707479477344 0.7495171949447865
Ni 6.188536319549349 2.8979026819725835 4.576168915486527 -0.3205697701348157 0.8589119780305466 0.41910807012204593
Ni 8.832212304319667 0.5406121189063456 0.6279635983628818 -0.6485664288613218 -2.003607728864975 0.3156648766340306
Ni 3.4622750881264115 7.974087894551808 0.46954664891285935 -0.8639657384043702 -0.9267312516673653 -0.9273886827457061
Ni 0.2870628931879882 8.931743542845613 7.248364056487763 -0.03516832037101685 -1.0905555173465993 1.6373116603376383
Ni 4.499349540267611 6.3250431416468045 10.30773415054308 -0.054468306251209415 1.5518749307293727 0.13547733910542475
P 7.1284635700441195 7.507240085843868 12.20865009857518 0.8132941801914315 -0.13660991004797118 0.23663893564811503
P 2.9783616254623917 0.9502550087141458 13.026394078278352 1.051461379558615 -0.17135939771401457 -3.098455188718709
P 8.899351937521207 5.3281843540871145 10.004207595723027 0.025462920157794857 -0.03558046820777098 -0.7747610571132398
P 8.72946859911051 5.243132227574607 5.896355571129656 0.3739114189807496 0.8155798909018147 1.01669672238392
P 0.9811830547186939 2.566024497837469 7.04131091374047 0.2478288908266635 -0.3592404472321361 -1.5760201605170083
P 3.204421709339088 6.585851253400634 3.877020185047402 1.5294849930699466 -1.3044083083381341 0.4077785040418396
P 8.14305996017844 2.881407724103491 3.3963081433358773 0.5435078112570704 0.08586481828461986 0.3351224711380099
P 0.8673724478097551 7.949667624894049 1.192745617030758 0.4858557079612406 0.43033324941390405 0.22472752892250974
