# total energy = -340893.0348210285 ev
CRYSTAL
PRIMVEC
9.02642175768605 0.00000000000000 0.00000000000000

0.00000000000000 9.02642175768605 0.00000000000000

0.00000000000000 0.00000000000000 13.21108064707067

PRIMCOORD
 96 1
Ni 6.211875103959843 2.2213572507933845 11.21701330532428 1.0264082932447292 -0.5394392976146515 0.5645029254514987
Ni 4.545074123781438 0.49001555010207565 5.946597596316182 -0.5718719642220603 -1.5236542453207824 0.5959138356626125
Ni 2.614638444710643 1.6384219103212596 4.846022244739816 0.6409569919451801 0.10403814675953696 0.20562346110320714
Ni 2.898645777403152 4.366684951521011 4.805530619589634 0.03235630484351847 -0.13893393019545752 -0.3261200105290835
Ni 5.2186076589597254 4.669539452744601 2.8108557024910596 -0.5050029703136528 -0.5261772903984229 -1.0906730167610699
Ni 7.207570656400029 6.122098313629317 2.71167969923361 0.7287817621696481 -0.12827645048161135 -1.3832581287575016
Ni 5.179893336244299 4.681174510329163 11.573289780798039 0.10828303807881995 0.15613846699920206 -0.1700000554726427
Ni 5.66123630036713 8.003574681343506 12.285380578953994 -0.29448387168104123 -0.06872610172180421 0.5264323438320224
Ni 1.6236276051380971 6.694472740700404 0.3984677758319902 1.7092012473890887 -0.4409506199184341 -0.21328560563415527
Ni 2.7916556008711058 1.642348403765235 0.39881619571000737 0.9388825423179186 -0.9363811160523035 0.2674338095417846
Ni 0.6384108256613853 0.09490199257762849 4.73173330361283 -0.5321003407510771 -0.4307906486662968 0.610934734551477
Ni 8.67477939972054 2.259674410953558 1.2788507909232434 0.08980117722454856 -0.22495455733165126 0.3203000614131968
Ni 6.788726636199233 0.5345094906385994 4.899871168736882 0.4455744918436907 0.904988460673635 -1.0249059976675898
Ni 0.8780217031718417 7.624428863824559 2.5811675703667234 0.5103027852600115 -0.11730246796861087 -0.03507498932626218
Ni 7.507229804338177 3.9753173590063335 3.775317127887135 -0.1314805592412058 -0.8930629128806427 -0.547558070067044
Ni 7.6082083840111725 3.8698345948999053 12.621747476061373 0.8288246717268629 -0.11525072764590474 -0.38628716693728316
Ni 7.8172873900865785 8.604969054213171 6.994355743896968 0.2580299997293814 0.6086497951720421 -0.2519884215209918
Ni 6.918779320201067 0.6462466623480866 0.35552999039832006 0.09171407797654528 0.6675753658636567 -0.2655265652167427
Ni 1.9012803369465634 6.293022635135334 9.153297093848051 0.6260494787057284 1.2713462356768426 -0.43456117145232254
Ni 0.1646699139029594 4.645321563295899 1.4059364901089046 -0.9509849820084075 1.0015444401235138 0.03086429367902426
Ni 6.252575239451533 1.9225736657611332 6.928776082245211 1.0400611081414735 0.1785947391201892 0.4060342676572233
Ni 3.3984387475018116 4.2182996050255825 0.42814845569976 0.5033852322045718 0.6188871566293341 0.1035997736705377
Ni 5.778615888287718 5.620996512382665 4.97028628449884 2.1662071209981724 1.1178999707978232 0.08761213999302976
Ni 5.3803069774778285 3.042283226078969 9.005558039147079 0.050124427460216905 -0.9559292133875602 0.9036915962390824
P 0.20016270670998376 5.579628421684414 12.509043574586713 -0.38315530617652077 -0.6513385922898202 -0.371528777681186
P 3.8544625987272845 6.220739050079346 12.756711436115772 0.1201975301282188 -0.5718431678666538 -1.355112519561221
P 2.6403547201632542 8.460040827232783 1.4808034370583774 -0.6418828461935591 1.4811310272465912 -0.2891935698163794
P 6.2031826598528355 7.700593810215972 5.807564525354784 0.13096248195420673 -0.8000002912960028 0.21717671315844533
P 4.766158270731528 1.2796126209155918 12.459370273272825 -0.75594238174484 -2.4128473908333734 0.3511371013987114
P 3.9136307930382235 6.0679849154761385 8.205005600303787 0.24102138098652684 0.9925291239987808 -1.1998855086326947
P 4.80007053709708 1.1708893714151698 3.891482662087689 -0.083421756060766 -0.05672702037839907 0.1609801113622195
P 0.3135119973369283 5.732824850951426 3.3105511872352484 -0.5164533782424396 -0.7616790271183012 1.2750848767836684
Ni 1.541261507031717 0.9524770452913254 2.7040045328533515 0.32278194729478604 1.5153063875767194 -1.0547079115203706
Ni 1.7384166100278329 6.654973119296182 4.851531972551776 -0.07213487029303706 -0.7031481207619438 -1.4687416524433028
Ni 6.05615127661395 5.604505239917968 9.024594762534077 0.013532744379112178 0.7373502205649495 2.177143051184386
Ni 8.543490095944398 2.329376439400404 10.119753358442098 0.07435450365217518 -0.03734450208672924 0.6478568043888069
Ni 2.130840293882614 5.214265950117077 6.8710963448742985 -0.07391124546716948 -1.0299931823825101 0.8890003127754947
Ni 0.6240777706276187 0.02823554975195264 9.0343180240004 -0.8296967899191711 -0.8381636897396015 0.626684798296882
Ni 1.6044374325820243 0.9426924041573729 11.316572028862243 -1.0197442509609922 1.09611552793288 0.7953805331358043
Ni 4.0884093966145345 6.875299046822608 1.5991614890923609 0.8746759257330226 0.38932183999854886 0.22907912102298608
Ni 5.708462538755358 7.85837566171181 8.028334156094829 -1.0937303155301552 0.024439363989286943 -0.36537689914717725
Ni 5.038711074273681 3.519455983371646 5.081100053267365 0.37989540447832637 -2.764314107657362 -0.6762880631463063
Ni 0.5906619574561315 7.121693280248346 6.805754078113521 -0.09645390665437582 0.42267136199327204 0.8070667112244809
Ni 5.1194343636287885 4.523780794966868 7.277826004497714 -0.26018484128885516 0.2891516608348504 -1.9213064595618976
Ni 8.129773083275047 7.078718486485664 8.940664385545304 -0.2217432494832052 0.9390159825719891 1.205602099401498
Ni 4.529142489462779 0.004209020443507406 10.307456895265373 -0.6973734230616958 0.4055681266540822 0.5805779766364904
Ni 8.178813632427044 7.270845872589149 4.632200756697824 -0.4531309640347099 -0.5012884975765431 0.8355118539390515
Ni 7.291778144535308 6.004790937082411 7.021279754574415 -0.025281914495240334 -0.4740659144151642 -1.4634359239596733
Ni 2.452587095745838 5.371072948068203 2.4672225359068998 -1.1068853648548742 -0.678650906951528 0.6184724376894187
Ni 2.359723269190393 5.058587254879735 11.360684151760424 0.403410199770815 0.4706820855445958 1.272654412965305
Ni 0.9674789581738245 3.296422129332134 3.7749867608525385 0.026622487683534795 -0.09470941315944334 -0.8670099245473326
Ni 3.81111772167448 2.679448152590513 2.6918901722759743 -0.6550276111056331 0.2309560263307248 -0.31764848272296264
Ni 1.2389215118456123 3.2807251819779433 8.448790295213081 -0.5528799965005897 0.31777112434375593 -0.932479467005052
Ni 3.8004845968997607 2.607552703668067 6.955461795389508 -1.471559324397756 -0.09995780604257624 0.3909478056377461
Ni 3.923388354907045 6.720802812829314 5.897519136193003 0.12904958120221002 1.3623620020347829 1.8175246517875407
Ni 0.5948041823789828 7.116737774729398 10.967125846696659 0.767091456383124 1.2171368395139748 1.0821816914606073
P 0.23860262620541728 5.406519706124506 8.16003506470096 -0.31574406661139814 -0.3715030666495731 -1.230433813733197
P 8.188625352826126 1.3644700114140114 8.088140518420685 0.46794257512624565 1.7826784906426334 -0.7382367369349608
P 1.7291013428228152 2.958301398486447 10.559524234736028 0.6345603443902168 1.0481508271281432 -0.9727722530868279
P 3.9915288123980113 6.195329672964886 3.8172629095748443 -0.9370493457639216 -0.4938865486855172 -0.4640085301791622
P 6.962142250097291 4.063153468669148 10.35104006985133 0.15203652901568654 0.36674241203613617 -0.05960665591903928
P 6.270853743414866 7.647527476981188 10.225733478384765 0.7241519767071206 -0.7148247857689237 -0.041854731252256944
P 2.298722711272265 8.428764276006634 6.030105536768914 0.595443066673781 0.3228930189513536 -0.839028094622426
P 6.907261606098738 3.8945850432295153 1.5048209399451122 1.0147689092335879 1.5099844611431736 1.1169787445351345
Ni 5.434790458921129 2.878002350951723 0.4521794982190604 -1.177135873641005 0.003236504659426684 -0.21516971003074556
Ni 1.2049821662149287 1.0018244927814712 7.0178452011136505 0.19614817462292025 0.5228970769852543 -0.15230263819287965
Ni 6.727455285629798 0.6304377873646878 9.475436545055674 -0.16400527134178852 0.23002451565539092 -0.8629900047546621
Ni 2.786979914425176 1.4543009602748 9.070226032206097 -0.5633014489442298 1.278856942231591 1.0614812256884623
Ni 6.4258915627107775 2.029392340280684 2.592648276140039 0.431565064938476 -0.34090513925805804 0.6218853200257096
Ni 4.0472308607722 6.52335886433847 10.365875896574359 0.4056694281186368 1.1512944870978687 0.7312963010613858
Ni 8.288538814737308 7.376906327685036 0.2922304028705818 -1.343363606555409 -0.8332240863461392 -0.11136887609299528
Ni 7.714566711023498 3.8145116562375487 8.201636939721507 0.12788101481540556 -0.7646373384156767 -0.2699473199922577
Ni 3.128882715967474 8.400051228546207 12.281099347136804 0.40750468155516273 -0.4992868937654821 0.7089577854651854
Ni 0.27647839434395777 4.909741560877083 10.301498554294412 -1.504950241153376 -2.2012517713071316 -0.20328170034390794
Ni 8.5338408511361 2.3240418241696235 5.713118367073524 -0.269724148237858 -0.1909748579520969 0.1318525978686439
Ni 3.8163620726881575 2.8618179768251766 11.257373144717489 -1.035431836899578 -0.9175357012110263 0.10775287660696281
Ni 1.3273443389195958 3.3240790854524573 12.7022956528353 -1.7089310244468374 -9.51308169675781e-06 -0.44420923606504786
Ni 3.173671820493925 8.41486358657279 8.050066169004518 0.29080179484376373 -1.4911950963508127 -0.6277847162292801
Ni 5.614019088400612 7.6868104642643615 3.610099310186361 -0.18387604212378655 0.8965339021483785 -0.09864474365810753
Ni 3.1782121106141994 8.385807535087373 3.806944806917814 0.48452259097211386 0.21883533180779083 -0.21562299551808026
Ni 3.375448451405708 4.3192691582768665 9.26874863809132 0.153143131816304 -0.954707425165317 -0.043625449999434546
Ni 7.303331964324476 6.084927509026349 11.369653707013937 -0.0846438013933252 -0.0426178346705266 0.0173181795634734
Ni 0.7568501154907614 0.03272438926847898 0.3590683477087531 0.42979486041193077 1.081497263799073 -0.10304004451232576
Ni 4.8154786389565425 0.3032245845137128 1.778700627478678 -0.842115475298498 0.29282936679675375 -0.47195606716101307
Ni 6.0016226630621 5.815245107588067 0.3708189434912063 0.15403350484105732 -0.4184714649793116 0.43705616996003444
Ni 8.099615808340975 8.88643093598338 11.32460464154223 -0.44246551390106376 -0.46111423935050266 -0.03519274585104907
Ni -0.06552460047932439 4.878465009650934 5.358229252616635 0.96501446351828 0.6510249177041434 1.1529669897042851
Ni 7.878739269090221 8.751603274896805 2.6833818671718563 -0.4465168011523019 0.25224090385143016 -0.5843883515215161
P 8.565875621785914 1.586790778138411 3.5086910728399565 -1.1915093687538578 0.5087485533990141 0.5422004052995565
P 1.7920155021435245 3.2633763994507694 1.6750330767781887 1.5296240897509723 -1.1855312967935516 0.3983952630547268
P 4.743095763261741 0.9902435937271713 8.379339201289781 0.9129529669363503 0.7546002658946488 -1.6072058420911932
P 8.640776869137886 1.632645000426675 12.312872351557019 -0.2911830894425824 0.28380016671495 0.8941296635822601
P 6.36084716786644 7.775946378653459 1.3700681981587324 -0.02427969848297109 -0.48973524552130493 0.12543538148839042
P 1.5391673771949301 3.0031807672300004 6.180446908848962 1.1341274884002788 1.3068220599859492 -0.3519112605605746
P 7.033315585282914 3.9351136767087094 6.017528120757798 -1.0140865384545825 0.34267920043934536 -0.25158244433182475
P 2.3058806636885234 8.39319114804639 10.101324113236204 1.04660430857663 -1.440229403936223 0.7574068821055084
