# total energy = -340889.72534939303 ev
CRYSTAL
PRIMVEC
9.11322160224858 0.00000000000000 0.00000000000000
0.00000000000000 9.11322160224858 0.00000000000000
0.00000000000000 0.00000000000000 13.33812099344658
PRIMCOORD
 96 1
Ni 6.5269895477801265 1.8947754667642702 11.267431337069775 0.5537120054835819 0.5378927790631381 0.6347477778106745
Ni 4.762979697602444 0.3798746174112266 6.0787420740721165 0.07918457805096685 -0.6145759308484899 0.2840865876071172
Ni 3.011063092473922 1.6111082183503924 5.017360697116562 -2.083509901808257 -0.3263748068523669 0.07572901540219862
Ni 3.345937532998751 4.3425321063529605 4.9150574941980505 -0.17871378119655673 0.3504336475737836 -0.5965059607206565
Ni 4.907579184561771 4.567428188736669 2.761684340290237 1.5449270386566296 0.2001400693911327 -0.8119456365833372
Ni 7.510880290238683 6.464008073375644 2.741557790410003 -0.9703181351193805 -0.685424992450568 -0.6639807065338629
Ni 5.017566655924482 4.576103975689796 11.418671628601313 0.6907962840648103 0.2464592641726465 0.9614748257961375
Ni 5.880242438022163 7.902156459180433 12.506369255540635 -0.20546868069289778 0.4817457995579252 -1.1994908442974377
Ni 1.5579143439329475 6.708843884597003 0.3791811012482717 1.5832048511909056 0.022160081036807 0.32206692350563243
Ni 2.467605236210447 1.5319690020678687 0.31307470316077757 0.3785419757742255 -0.0434218186290607 0.5642337309505122
Ni 0.5641831448021345 0.14606307034658883 4.529172707148601 0.10763640563375655 -0.5999252708148507 0.3226657334318959
Ni 8.50562487961024 2.201344241032361 1.2168930354460543 -0.09900366965942303 0.7850123025276029 0.6641755961534884
Ni 7.0913257947049635 0.3928071901687726 4.6801195529449595 -0.9445914197772378 0.390243837592186 0.5410079276533521
Ni 0.5951872359715006 7.318554861815562 2.499496955162622 1.0951369660696946 0.25992464564893303 0.7968357775250922
Ni 7.683967707886538 3.929557356806801 3.586674217149189 -0.7389520178344307 -0.2290456966818894 -0.35534265483962674
Ni 7.501511898444759 3.994197437540558 12.676896769244024 0.8479961024489912 -0.6152284768308244 -0.7676704688150456
Ni 8.134279326284553 8.870572951380154 7.1153272864050185 -0.44759743581099043 -0.38324966566254 -1.3819224406652135
Ni 6.695174052212874 0.7236900396374358 0.21608177446242102 1.2948869991112604 1.3681978919902695 0.40015749716147214
Ni 1.946857528147806 6.562193922780056 9.284185626437575 0.8454707649239762 -0.1946145115872132 -0.410890310197944
Ni 0.029938755565562757 4.616830962972914 1.390739584452308 -0.3775549292706078 0.9382312818871648 0.42921687642127376
Ni 6.669192257461436 1.7254700360760247 6.954562766990377 -1.6453872382569212 0.303099124153878 0.9315983499516794
Ni 3.399988050245602 4.504957054741194 0.7882016239467814 0.6801262059454738 0.3874199949901457 -2.1309089599175106
Ni 6.0418563096889395 5.5994549676305425 4.816235541926696 -0.03480193817053361 0.8547272505252376 0.24225499628331182
Ni 5.487180077648887 3.0854998864163052 9.100400197965898 0.08241439784217419 -1.6490425756213214 -0.6206761302089568
P 0.2558400262905839 5.604941127027373 12.551852433171273 -1.5905103837133834 -2.0853721518279764 0.3635796980374384
P 4.355153918254307 6.396479101398041 12.812025796327626 -1.5295893798582947 -1.7262101232422595 -0.7856946733066082
P 2.3908810236491194 8.419596067806115 1.4215368054915942 0.06143753848019096 1.0684255182167792 0.09737847535117423
P 6.26466546432867 7.791585741635999 5.824917892397112 0.6781405429740128 -0.48049701475248857 0.31270219446128084
P 4.828430855057659 0.9893586754122093 12.511890956501666 -0.9902909786968815 0.36051031508349524 -0.33925063437377057
P 3.9740845574927075 6.060173885083673 8.357412911612865 -0.6074830285574505 0.912818241130699 0.37446960547706476
P 4.761940790341249 1.0222391789068368 3.902560349170303 1.5402124067897798 0.13327493213746724 -0.5911966326926011
P 0.21049810359458335 5.374349281150278 3.681561080338231 0.46684188586289926 1.5897503656189074 -0.7623500850433967
Ni 1.664338545654195 1.1871064706810348 2.5927707781303364 -0.5318861678577421 0.04618678296870755 0.2787335508253199
Ni 1.909520659295952 6.604123855312976 4.6720370367173025 -0.022902615629786367 0.10161693891255404 0.4607511995841291
Ni 6.051370513028293 5.533265639226584 9.034136141144907 -0.21730912497125154 0.7387666412965019 0.7154557344847033
Ni 8.861095200927158 2.301471206635319 10.256521715242904 -0.30816985380856604 -0.05163983566347881 -0.24603066127566015
Ni 2.146345948740211 5.209700706694225 7.2035988620423 1.2163179431571054 0.3481782758807036 -1.435136819904664
Ni 0.677850535042653 -0.002905295042707113 8.969486035867403 -0.3782833227962001 0.415415194651491 0.5825973210593645
Ni 1.4193022435578684 0.9592577045023549 11.590426693252795 -0.08387169911399105 0.2232655996650026 -0.6925042678948525
Ni 4.215575816390749 6.985530405273385 1.6049896013752558 0.051170095115911876 -0.024224419765003443 -0.09006960039458681
Ni 5.565945651846246 7.945362242735873 8.029455406274407 -0.26948837807796816 0.2614778490686658 0.2847144509991032
Ni 5.111359932522793 2.8910966434707968 5.360270265116783 -0.6909310098704617 -1.4339885652328335 -1.2517325752109734
Ni 0.8821188403587088 7.408547925011086 7.078340365262198 0.2366762166439537 -0.11051886938787418 -0.3718725341738499
Ni 4.80311432548225 4.7054843825947925 6.942999000115562 0.679846469921526 -0.43544203139537907 0.04472562504214878
Ni 8.322412672776538 7.262134906955462 9.25289446878814 0.8945104439604465 -0.07680553629582902 0.23065160771642856
Ni 4.925787401297433 0.2931614026657358 10.502263380690254 -0.6010447291312745 -0.954885088393762 -0.8401012730819467
Ni 8.303530077643261 7.0125146543996575 4.903333334623261 -0.40204108733743016 1.9554954467387808 -0.1170625840436629
Ni 7.479066033670018 6.540750512380151 7.232662748335279 -0.9029408341159869 -1.1783885151011835 -1.0599521906384455
Ni 2.3004687522604828 5.3298038540211925 2.517009833091011 -0.9984370048427837 0.0265263284253027 1.8319395416612902
Ni 2.593850694888683 5.162594464298513 11.484575713169523 -0.44348521341482977 0.8113756230124801 1.2746711862850175
Ni 0.9758346545735098 3.3299347158877297 4.042690712262179 0.49732514205342093 -0.26927857606000716 -0.8884477827061344
Ni 3.7149592148191375 2.6346597011661057 2.8801671568186054 -0.7407402200831049 -0.006649129885401451 -0.7786308244812913
Ni 1.3601027561129957 3.545626444466124 8.536343726943857 -0.7253907342102281 -2.1553899757780104 -0.4333887484107762
Ni 3.495339687735704 2.665116087717948 7.521286677971641 -0.02112752600723458 -0.1670268317769317 -1.0929492143897563
Ni 3.982815023775372 7.009762461479654 6.184326948084978 0.2342796913873191 -0.1999024994590299 -0.4634737407216147
Ni 0.8106957887959471 7.095399404755434 11.279635763422327 0.1665612049944228 1.7216258463056866 -0.37552967131046294
P 0.15414376392992762 5.495044787880557 8.150298547194433 0.31612767520306195 0.28051995330178137 0.5795356514149052
P 8.679231750888691 1.719701366809922 7.943344575475976 -0.506838737970811 1.1231349939445172 0.8802673037778711
P 1.8379545301542364 3.091268555682408 10.773813689678837 0.2679444306296159 -0.03330761301319425 -1.409547915691966
P 4.035252500800895 6.141955935627129 3.887048734702951 -0.8059783632563087 1.2290217638770187 -0.1612585618345868
P 6.850262857221623 3.9189860197630737 10.509905728315141 1.601114641591791 0.9267281663435717 -0.38493270979191774
P 6.459114273382125 7.900361154527317 10.078337272760088 0.23810960665637057 -1.3404659732926398 1.3002603476080317
P 2.3273163030629145 8.54491197788223 5.759574270956652 0.2880813105888071 0.07398117947315645 -0.00010053013360627848
P 6.626323663104804 3.777084046394214 1.3237428246155278 0.7796988607344894 1.0229542732578574 1.2262177187693204
Ni 4.963771308882136 2.7564305680439363 0.4462197819043635 0.8542868205537094 0.15470764808994647 0.8065054394043722
Ni 1.2282708926004455 1.027925829178635 6.881896672002819 1.2421043080925898 1.1399448664130045 -0.9687063105475703
Ni 7.172889127930271 0.6656333501798766 9.151644754285366 -0.9096503849256785 0.09812743770205681 0.6101078677748073
Ni 3.0077549930369623 1.4966279287440978 9.610930161982482 -0.8432724717210768 0.16617091153453964 0.24815053583214036
Ni 6.307461152912587 1.9396307434273958 2.518797847166855 0.13274991287193266 -0.18258997632251134 0.5434916133071543
Ni 4.467510827230267 6.8211096613570685 10.618865228282566 -0.3787471498064961 0.37946988690513356 -0.8727684242976648
Ni 8.206337569392096 7.415938747720105 13.858441440789035 0.4060710344324297 -0.6552124734229295 -1.4007652844033294
Ni 7.6950493853392725 3.8367756478049153 8.365295848287714 0.7982617113383413 -0.32172522389549757 -0.7947855798642829
Ni 3.187905157416618 8.381229404914656 12.371360522982016 0.17668955167767636 -0.153081168230117 0.08262111453634158
Ni 9.463807223965043 4.665386207601344 10.284104703027603 -1.0469652914604743 1.3512784905271116 1.1040934039320338
Ni 8.364133001212904 2.596639340695045 5.7642821612297475 2.1097243554200955 -0.1358498919534951 -0.5355924130647356
Ni 3.488750828526553 2.8795866446033593 12.099249750865681 -0.056901855393366514 -0.22858366944380631 -1.6869624905955465
Ni 0.9532703179181059 3.393198700161484 12.807330664564757 -0.03137928564222983 0.14520536502646605 -0.5927858315565919
Ni 3.08039648232623 8.679350222769354 7.97679647796426 -0.07144967130055437 -0.34863644646404474 0.26499691796551783
Ni 5.539489969572158 7.806321820946092 3.6256077224235095 1.0270567254620053 0.0735695458570346 -0.03816159867138589
Ni 3.3339627598302535 8.547144717171637 3.470592734509634 -1.7569620597131355 -0.27575312804075736 0.6094023570673505
Ni 3.5462370303126147 4.131232950580666 9.530047586409902 -0.9825930958319917 0.789213485093144 -0.2583660429125615
Ni 7.600390352689966 6.151196742318801 11.221614615528965 -1.0066457659058212 -0.5093643326061421 0.8785474928732869
Ni 0.5448704056098356 0.20242561191067507 0.5100834161587013 -0.25778343093621414 -1.189884431555925 -0.39883672146751953
Ni 4.367429427735256 0.5522885679836235 1.2489132508226408 0.3938654935051733 -1.5888574214909927 1.4636745223330405
Ni 6.310924177116566 5.832744327098107 0.24764632875953632 -0.2792025200419386 -0.606824054817213 1.1696470214631276
Ni 8.11937009576426 8.872158651936713 11.417044918547601 -0.058927627574143666 -0.5760672332503305 -0.23688858976507585
Ni 9.017377837964123 5.167251320530707 5.946547504340307 0.4594782464089764 -2.1089519960304455 0.18764707913044457
Ni 8.123142969502279 9.097528621843072 2.457135055926362 -0.23155277937445928 -0.38850602896547287 -0.2886801205150706
P 8.443007934069334 1.7725489388069688 3.595556874232397 0.2995492020190906 0.44854334466402745 0.12919459142050654
P 1.803998666512057 3.189955632274238 1.577833112360943 0.04613124714042378 0.10799533163507208 0.4038246616004142
P 4.8153351556336625 1.0312612682803626 8.337739288845626 0.6437636081560396 0.40962275633943007 -0.5519490000458881
P 8.57367330521844 1.5996984649204384 12.41979091647467 -0.7248232917425323 0.4243500352472756 0.3945964581339269
P 6.418870286843246 8.113009067094845 1.402276922984514 -1.1213244230983397 -1.2851875124353092 1.3767853765489644
P 1.8578578061055298 3.2589244932629686 6.019414090202832 -0.5848676051507798 -0.291198258951234 1.7368334072840605
P 6.746217206335214 3.941459224202584 5.941212624421861 1.3103796954302207 0.7812656910009771 1.3689792502409843
P 2.2333954413623514 8.529884275481276 10.244984376710699 1.5391459131984782 -0.04903299416825104 0.7477950700473573
