# total energy = -340885.7367648832 ev
CRYSTAL
PRIMVEC
9.15213699885447 0.00000000000000 0.00000000000000

0.00000000000000 9.15213699885447 0.00000000000000

0.00000000000000 0.00000000000000 13.39507761001250

PRIMCOORD
 96 1
Ni 6.656605319664238 2.676597305985366 11.5604611343696 -1.6388180696798356 -1.9015009948001962 -0.22943958968619838
Ni 4.7821012786368735 0.3390537189746706 5.700342480689001 -0.218055773329289 0.9580179775957888 -0.02707911560497917
Ni 2.8069511897461696 1.7437657675229703 4.4756163535083875 0.9101640913373035 0.24305409514583948 1.2451538935521909
Ni 3.612119572652893 4.324549353850129 4.920815639320763 -0.8488201410121833 0.7487183531925751 -0.2642669817780287
Ni 3.8653683487215016 2.934037760686458 2.5221723873527457 -1.6191447596206245 0.4475359864454357 0.4317000478544436
Ni 5.39000450598786 4.831211644448885 2.582611268036562 0.20961175632699383 0.2326275004958768 0.26257930966296067
Ni 5.490192947013593 3.009643562395929 0.995671939829975 -0.29895142053409157 -0.10127215397862557 -2.373974882137892
Ni 5.802061158979692 8.27131680684521 12.57978585642182 -0.5398455319141348 0.11531012012893044 -0.27096393418223014
Ni 1.8167174495743195 7.023047723083379 0.17545103760699887 0.6269725047406299 -0.3606560966327401 -0.7434470774913067
Ni 0.8936658844452658 0.28710436034214426 0.08813690735050836 0.051937569409555705 0.1015590890914251 0.37587085669996556
Ni 8.100080328212574 8.868072731632083 7.162561980519404 -0.7532481227421285 0.4797472810706576 -0.2622070139252065
Ni 9.088245685478439 2.2043928102584363 1.2302457808558318 -0.05801822838599686 2.015161752251162 0.01258812107765574
Ni 7.104474283767214 0.7902989063255128 4.575142179833265 0.31673702665228676 0.35970838800749017 0.6673424239172442
Ni 1.217188427351546 7.791854666673828 2.488537369574937 -1.7840627725846696 -1.2147495702287208 -0.988566282696291
Ni 7.8107629812037604 3.911742225644621 3.8976598328240954 0.7274669000129665 0.5375104560230549 -1.133847495266015
Ni 7.84984260513542 4.074741781200326 12.782627408900638 1.2155846645355066 1.085596373569111 1.4532427854767553
Ni 8.927936858127865 7.601947829066817 9.16634544445287 -0.450879706106688 0.7126007815344114 -0.1828270320339819
Ni 7.157218047869827 1.295219545300336 0.3320450126498779 -0.7676067054566458 -1.308830862885862 -0.27598632709748594
Ni 2.1206599111130604 6.830495917954996 9.338123729581232 0.4658851783765847 0.27631799940529184 -0.823636442657704
Ni 0.575371042051811 5.115174991457693 1.1652454752147463 -2.208884091041409 -0.272005488072867 -0.6521171223270577
Ni 6.7850738632541 1.9668582529932608 6.8695984222285364 -0.5709286264721846 -0.18513768244502954 0.0017784320566614532
Ni 3.386235685473198 4.513650803422952 0.07470340102570969 0.734230186878729 0.06702197454650392 0.31351646283246004
Ni 6.0959454222278255 5.407402717953688 4.9340770854746205 -0.38209858277723224 1.7503934053566823 -0.18609181882818274
Ni 5.4815075692358075 3.9628660615421043 9.709529336761062 0.5827752413981253 -1.4739476221242744 0.3060738905114858
P 0.44876129743630994 5.553544037611942 12.335767925481425 0.4482988327533893 1.3875881235914231 0.33013144568132174
P 3.8252728376103535 6.659177070091591 12.638429087874865 0.6369237024160708 -0.4272199005959029 -0.6483532844092511
P 2.8505702735068934 8.85692542906797 1.1547507200010614 -1.374581684029426 -0.1248288582526431 1.016811136474597
P 6.549488711117132 8.137164786332265 5.580268276928206 -0.04309914518231932 -1.4039405968075176 1.034817600354347
P 5.146640037611569 1.240187747009687 12.823121037960505 -0.6105752943295292 1.1424478353405163 -0.5467792829194905
P 4.113070929918311 6.354923435903277 8.139290827699789 0.40100596120469645 2.0102221488576992 -0.9172143133158654
P 4.970369883765252 1.4356865401722598 3.589371936755436 0.12767224123870918 -1.1304454115630014 0.5316475694843746
P 0.3181886776071301 5.869896796586592 3.614701390430673 0.21885435797118438 -0.03139085560645562 -0.19567457742061137
Ni 1.1474766017104563 -0.039990261538498294 4.387865666328819 -0.6547730718926659 0.8104155730920558 0.727731723638579
Ni 2.2279870188054667 6.311267743595544 4.536631818807589 -1.4766135989922118 0.47816862372962815 0.6584201817269499
Ni 6.961252495732895 6.338742458125485 9.200275161034098 -0.7670143232882854 -0.5186799535801131 0.36615260097093716
Ni 8.912186030777423 3.1799831316268543 10.654042662573895 0.20941815225894903 -1.6171796654744535 -0.6644555892877524
Ni 2.329575736754278 5.550825852996555 6.988332753168817 -0.5705241919449142 -0.047717360680621046 -0.3603480784740181
Ni 1.1615342837617515 0.3751973374362423 9.030157073512573 0.02795817577582282 -0.37576107059497865 -0.9845162809966336
Ni 1.525990673505676 1.243217104274647 11.257316739155646 0.2989725035800141 1.4636742652227244 0.019681280479011267
Ni 4.379709282055308 7.0463948239381 1.3242290731636104 0.14859587876525376 0.2617280174062589 0.03902086134788764
Ni 5.662179900859906 8.10791455727241 7.873680260520058 1.734786809167677 -1.2692261040100463 -0.26842805513425383
Ni 5.522911835902512 3.1599765606866654 4.882411443081411 1.0283474192489708 -1.8536933883986142 -0.5467718267203229
Ni 0.6988516711117534 7.608418389750583 6.3483018649631004 1.162903789202023 -0.7169408036706619 0.4326426142733711
Ni 5.5542304478683535 4.773644704277893 7.593012597955697 0.6228384279675983 0.5342150731012347 -1.955723246478871
Ni 0.9707671453000376 7.89822080000726 11.303395917275347 0.2418896425240931 -0.16590094570260458 0.28128022850657364
Ni 4.937303213679752 0.6520979805134199 10.53980935248832 -0.623089881856772 -0.5569012018448408 0.46247512425377124
Ni 8.373436348725646 7.753919059836187 4.428908423593814 -0.5585127693063349 -0.9568841211016618 -0.6408163526022577
Ni 7.676638417101073 6.335392776074199 6.60323737983513 -0.9798294170439255 0.2184244695226174 0.4763310563002571
Ni 2.5207730256433427 5.682854577783002 2.1263479641045184 1.3076178164143675 -0.6343777960657655 1.5948738028884015
Ni 2.7080715042759937 5.246233589748412 11.182303995907715 -0.9096298161003884 0.005848745471293153 0.21605391240791177
Ni 1.1406491076933563 3.7517079623966105 3.5089740762425414 0.738416971266567 -0.3947293841673653 -0.047483390292944024
Ni 1.7089784957280667 1.1963490119669116 2.424656370258639 0.4953348510962695 0.4134192472673847 -0.35488088471185975
Ni 1.2573480034199591 3.189016290601222 8.277286745648635 -0.8357067435586769 0.45614352560878857 -0.09267875588265974
Ni 4.13764441709782 2.876699623934268 6.878439386331109 -0.11268219558778014 -0.7128738326901399 0.2599303020758878
Ni 4.248156468379973 7.058814273510762 5.639756250603474 1.0978901033347994 -0.038597914877856104 1.5096939264859484
Ni 8.61114479658911 7.668914013682263 0.282841295042995 -0.169000924784167 -0.9084949311649966 0.2736494514341932
P 0.16956621367536953 5.910596348723381 7.942008283084223 1.1842475449851217 -0.41451453721409254 -0.4813495925607709
P 8.689944694025082 1.5842806324800887 8.113170629409167 -0.2423886936476987 0.8311497203156137 0.5236851201041883
P 2.1482536034207778 3.2356738837636576 10.308101045479559 -0.11751921196510728 0.4813778746955451 0.7009932792024702
P 4.185281288892736 6.289622940176722 3.6360798666700087 0.8130962052480125 -1.2164904641792276 -0.8072834552209774
P 7.144231165818532 4.735480294021447 10.796780302574026 0.6503682579567509 0.5079607673903962 -0.7134513024601649
P 6.585008153852206 8.36057759658888 10.399643462915542 0.48444597209790763 -1.050253989514075 -0.6445678492248899
P 2.6501293264981625 8.53719553163178 5.762642905988203 -0.15606544766942154 0.5739658706366114 0.1555453134998934
P 7.193506270092082 4.223427394875677 1.4372112861551671 0.42147579902327414 0.39498340915970037 0.5473891485893476
Ni 2.960423370942892 1.8071443145315755 0.2648518550429785 0.6307008614348106 0.4701740355599257 0.7126887132625275
Ni 1.794441148719598 1.2416154803430217 6.804940406501982 0.8412397575617642 -1.1766301376491801 -0.10380186237901479
Ni 6.644515347014654 1.8422976717965651 9.3182590167607 1.0361823419123575 -0.031626368656029406 -0.20861622518294395
Ni 3.211374960686712 1.786231682052924 8.967669029409953 0.2365445761620959 0.16124107833309004 1.0405480750802207
Ni 6.917047675220034 2.0794569914549026 2.657717363079366 -0.2686414566966406 0.5900434929247644 -0.7992312743404622
Ni 4.53168966496143 7.0631889948782876 10.237991101889753 0.05057462762375806 0.8905388609072082 0.1308786639911488
Ni 7.873720529921767 6.951267514536304 11.576347413343974 -0.6445719629899479 -1.0384659957402114 -0.6259381499388446
Ni 7.764114540178076 3.870621675217233 8.335836625306808 0.7308101054535865 0.4652927962082245 -0.25650045045873243
Ni 3.045922632481432 8.951457849580876 12.37681068274642 1.67049457484751 -1.1333173337941578 -0.45970193238400825
Ni 0.2586979582908361 5.34452753846645 10.090043150436625 0.0021833808045639814 0.3921811638242149 0.06440176331483748
Ni -0.07802562666673839 2.3936406940192945 5.972462962740533 -0.1580670514804826 0.04790633676297556 -0.7270308409168124
Ni 4.030180027354132 2.76787156581451 11.660816144284222 -0.2989930724053045 0.5924410466226636 -0.7728610118770496
Ni 1.1554298085480705 3.4260017196612687 12.738637663601452 0.440594522130596 -0.13250951472635245 -1.0056147535381457
Ni 3.445678813678381 8.722050389751606 7.933421748383361 -1.4967401945387577 -0.7198096405780248 -0.190435183398543
Ni 5.787921107697628 7.985568793169733 3.2592095186354744 0.9511081378498328 -0.2091571852880785 1.1142358916826747
Ni 3.297661305985937 8.2008819624007 3.2375235306012664 0.8458615726044917 1.7206202878593078 0.9323064317622975
Ni 3.5010217846186027 4.577898803423011 8.886267179495347 -1.6902324195960698 -1.8837480416921493 0.8038626024648865
Ni 5.148031162397894 5.183614670090234 11.65395844821584 -0.3819155202321487 -0.6889589737457553 -0.21521804677017775
Ni 8.442406851289812 0.07151754222228796 2.296103627010657 -0.38625477103745093 -0.4963404095426484 0.032358361726047495
Ni 4.891451008551505 0.335219888889197 1.529650612992859 0.71664075593174 1.2241878328234852 -0.285149995874625
Ni 6.1323892307748675 6.04651473162949 0.074205524786393 1.5900802381545003 -0.2854299890088891 1.6183122364170002
Ni 8.37477256069146 0.4675991405132503 10.44029725436857 -0.21984346135733107 0.2733409190548389 0.22829236345563264
Ni 0.24715253777800494 4.855419046158309 5.655107129577847 0.7997971741462612 0.3878216013039385 0.34118718927485114
Ni 7.830915986331984 6.200078434193733 2.31793787966025 -1.1920773254421857 0.5407916978774879 -0.056010968147980955
P 8.992743138469804 1.8571424376085446 3.5571161459861753 -0.41266539982049577 -0.435409892605863 0.6950584017752739
P 1.9370222871812677 3.4842733743621768 1.3921910102576898 0.9397037526676332 -0.9267255952404105 0.7660385896385775
P 5.075775042739708 1.023565822223163 8.130651210605764 -0.1046194731843037 1.6206907639515054 -1.0795730501931664
P 8.741352246161881 1.619854988035677 12.31145527419935 -0.09881700756991368 0.741148254154801 -0.1323843020023978
P 6.777697241031871 8.098185835904879 1.2228691586336027 -0.7710890075782915 -0.28888683720923797 0.676411476098048
P 2.0489254632497462 3.326893230772289 6.162123607868912 0.24634716407481447 0.5694810953923805 -0.7534679520624185
P 7.382607719664906 3.9224685299181354 5.978879525817462 -1.245183461238546 0.519297532559454 1.3469574945542544
P 2.8583495897462172 8.805078574367068 10.223980095735893 -0.3609070363012817 -0.477652603325158 -0.7755776394772643
