# total energy = -340865.02492508985 ev
CRYSTAL
PRIMVEC
9.31758699953676 0.00000000000000 0.00000000000000

0.00000000000000 9.31758699953676 0.00000000000000

0.00000000000000 0.00000000000000 13.63723040995020

PRIMCOORD
 96 1
Ni 3.8816415966610323 7.2207294093363155 0.2623273495051398 -0.8618196385956448 -0.01554283283060549 -2.2813184948527354
Ni 6.339537236829759 0.6359076217149157 2.604833990019407 1.4901995652067626 0.912392723557506 0.1767926529144439
Ni 4.176338244034357 0.19369772936181887 4.02580610080781 -0.32098911706042144 1.5686256678251502 -3.51413932076087
Ni 1.0162040107650445 1.9701106336352476 8.497740139378495 -1.6354247277275704 1.8542340913934325 -0.7934439782347239
Ni 2.910264497825704 4.894966472987025 0.7478919750132914 0.5529219054821186 2.318374004944136 2.1158888323595946
Ni 9.22003204361089 7.952560659325028 10.284626943402536 -0.05742198956289466 -0.47771019603597087 0.5002806251373191
Ni 7.290387691104463 7.644111253271958 9.049475473772796 -0.8321532218794637 0.684579356620821 -0.9412186466502629
Ni 2.7957793041278403 7.069178853830842 2.298623600166027 -0.8735443832317408 -0.3257541425492325 -0.7192092879898646
Ni 5.311881911418775 4.309896538692546 10.334702452191534 -0.0030876377863882304 -0.3410686614191158 0.2824976458534425
Ni 3.485411201771991 5.6081625486129365 9.039615603017438 -0.45678707273005853 -0.49343609141165995 0.245116634101823
Ni 3.855077155606861 8.024436526842349 8.328297952967297 1.1548397812469657 -0.10737466733193765 -1.5813302598760122
Ni 2.801956864429109 5.521602163697729 12.008672212440342 0.6103495514719681 -0.2328542717947022 -0.21729729789670965
Ni 8.295056528938934 2.681508414935149 12.398138039035688 1.6221904884254836 0.3932985652581098 2.7219204731824993
Ni 0.7458309247287658 0.8129399146440821 13.39024676934963 -1.4511262533543847 2.0474874609670612 1.191482115060348
Ni 6.968101668087013 0.476902996464322 13.369490912144345 0.5441762980790048 1.0564009829520773 0.7013473201077792
Ni 1.0855268593946616 5.043926739256069 2.6512961384994593 0.33151341363051295 -2.795416742599437 -1.3395180075570736
Ni 0.07373565791872823 6.225331570747338 0.9486598895283567 -0.8275843715618586 -0.47516634656819456 -0.9822017739308438
Ni 2.582313381801963 3.078912825809047 13.3346067974959 -0.03875115262626875 -1.0123528435929274 -0.24990711351193087
Ni 2.4269798859008413 2.6483191693950014 2.4085124281073065 0.07388064933955019 0.4362187616604035 0.5037397873305131
Ni 4.59926352619811 4.072968931843903 6.729632000559849 0.35074835060072496 -0.49217625086262984 1.5906291686794347
Ni 5.675118730098477 0.5376396885062789 7.352989764100137 -0.2789919466930292 0.6845407900734017 0.7620793478805133
Ni 8.760432738301146 8.01100056612677 12.75941536913114 -1.510687143637153 -0.4419615776814518 0.48520213353764186
Ni 6.474101830903541 4.614330064670433 12.545925221078592 0.926524792083514 -1.197734266617647 -0.46350922194524047
Ni 2.869090080071097 1.131220306932248 9.451678442045115 2.4144700140384607 -0.4217259673608672 1.130496576515911
P 4.331625151999571 1.4993954468180934 5.792264094936631 0.15213885892150572 -0.03150604102808122 0.7061851078160548
P 3.839386338793383 8.9162507487357 12.280980561334198 0.4344135901308648 -1.0406666029359561 0.09726046171607121
P 2.9779847214601203 3.171427148933169 8.478252405788597 0.2506630178413489 0.26537949811591716 0.24588025174072495
P 8.58717220466301 8.644559224113255 7.148922491964138 -0.3405577832209683 -1.0329828611384533 -0.10142770571988338
P 0.5647911375528789 2.152390591664979 3.787399792873479 1.7613594174498826 0.10471743221474869 0.19822279776376184
P 7.3240148632421365 8.994155095159387 11.267665934354106 0.019286359033437752 0.4232645154925807 -0.5140275424097664
P 2.2347207919998304 6.501607348263033 7.383128431597093 0.5882969425473029 0.5161173350592596 2.680255746453861
P 7.32230974478794 6.218622907976729 13.558461829529037 0.5522505904467069 1.5524701411112103 -0.6171218371987953
Ni 7.744275315472009 5.601304804447425 3.278540267653109 -0.7333914930275176 0.8327435471652949 0.6206846148493891
Ni 3.7868165119159234 6.176199933539816 5.8503443428731705 1.0124569732709596 1.0666632841100339 1.4254774424380288
Ni 8.379390010517787 3.0806552146119683 10.047979795928054 0.6267758153487915 0.44734469637023605 -0.5883612201263351
Ni 1.6354322196665358 8.32857189003043 12.621857034295976 3.2971808942608183 -2.104960872593181 -0.7247276467049325
Ni 0.09089213119584032 6.597243063092924 8.288204375325734 0.5335594417951068 0.020803824119228688 -0.490707122516271
Ni 1.2606322752947146 2.56272781354666 6.059007980765755 -0.9783425480857536 -0.5173555783417348 -0.960545629113649
Ni 1.4724303495151214 0.20544907031500073 3.2532299738335535 0.6602477218539919 -0.8625876271099209 -0.8660341908976246
Ni 8.039736004994207 7.184707617293022 5.1999711670591315 0.57073965038983 0.07360194175686678 0.8865508227937376
Ni 2.110852788010297 4.455847224301999 6.909385028945984 0.05184500969574942 -0.11398805888339723 1.1505843484047218
Ni 8.289056002794112 3.1838009047100684 2.6030198557951887 0.9324894943073812 0.38224744965027074 0.7583833870861648
Ni 6.522637142531454 2.8740936243875086 7.386605755133192 0.14475207953913136 0.9071363602545732 0.6586528665630463
Ni 5.853653018081286 2.3293688425884933 4.628681012447226 0.139980626292417 0.7751292390859361 -0.688470464145111
Ni 2.952463850170265 0.4415623200439894 1.342420192055609 -1.432763691686797 -0.2995216912152648 -0.21646811712719494
Ni 0.939678667244205 0.5551781828578284 10.325524628817856 -0.7252315829245446 -0.2036635091633589 0.9628745343571419
Ni 4.950452704652263 8.68766238241441 1.5526119142459425 -0.2685771791176084 -1.059525387513672 -0.3782298438504454
Ni 8.103924863086872 1.4101422792074614 6.657491513566576 0.2893162114371727 -0.7221444593587886 0.2551189967301736
Ni 1.3713065758353855 7.788729523914469 6.053198465158152 0.31140944379178626 -1.370356333094169 -1.598819417799711
Ni 6.5314049920691515 1.9420926489807775 11.536619951862658 -2.4529236900289693 -0.6475120194548784 -0.6504839575990088
Ni 0.526320683598314 0.360398681624249 5.358790372324815 -0.1356496030172309 0.7398357059909646 0.7047828281518894
Ni 7.7932206009359035 5.302303431796295 6.99637681814769 0.19107718785791608 -1.0154569364395478 -0.4601549607610268
Ni 7.0211839622594505 4.78307156852559 1.3851608962154096 0.2140800765109926 -1.044939262169381 -0.8515915331097335
Ni 7.373044006990664 6.588885187391209 11.256292887440488 -0.9173384975985557 -0.07440412594318799 0.1604286097341237
Ni 2.226651761500738 5.334654094490117 4.695653033830975 -3.404687202074614 0.6942050526360432 -0.4154756155757812
Ni 1.222504708548425 4.853130506542538 9.972907064248794 -1.3383998347922306 0.8352920246187614 -0.776654674591527
P 7.674598398529498 2.385022790822996 0.839738227136507 -1.0601344818525806 -0.5191522652308415 -1.635611904037712
P 3.37819372607562 4.902504401016777 3.0102142555205837 0.18521610109144876 -0.6015810612507188 -1.9969619414136832
P 2.8915081948295454 7.7204129747004435 4.22771914678747 -0.47263380995432797 0.8009261455443819 2.0752111521345746
P 0.8448787399844855 2.2696710615172626 11.549084088235215 -0.5577532654324912 1.073247622195771 -0.6750973852723148
P 7.748235290024104 8.371470061413596 3.427267594242618 -0.08958186212489087 -0.792670590403809 -0.05943516333818151
P 5.278441091024729 7.027566509478709 9.991562737303394 -1.1447502582214477 0.25320738152975747 0.11848748941564756
P 4.469441583999661 4.182674203317709 12.524173313803615 -1.8840424330041168 -0.3849576494925822 -0.5597713243037843
P 4.599449877941737 1.7542966793396573 2.2935641503265267 -1.5294304856829273 0.6285573327292464 -0.9216245265684192
Ni 2.6340166730715526 1.3329087990608357 12.024096546260433 1.4136100015764814 -2.5425528604520276 -0.995142393251912
Ni 6.222331307674927 7.545037348772129 6.749419760456988 0.6766364476246605 0.7519679704781244 0.350456530391919
Ni 8.241927646830591 3.2688238877403446 4.940836954681058 -0.49409660781379416 0.39913754053739003 2.1110890969781058
Ni 7.287471286316685 8.003173792894394 1.2083894957273222 -0.08030660747055202 -1.3510200946594022 1.1725623953377098
Ni 8.704713566956373 0.6311491299413745 1.8737556010749523 0.5361655119593862 -0.09049280397493448 -0.31501130221043167
Ni 9.02318869681663 4.916070807952895 12.124098482443527 -0.032095852093280204 0.6704395747853292 0.019767926655546598
Ni 6.3771243835195275 0.09825861562145527 5.083154713048481 -0.6960976416730658 -1.9079986867093979 0.7265094211957036
Ni 5.844624276102509 7.814939896655747 12.562862731056942 -0.5597098749382295 0.26998460098809635 0.04090779395795536
Ni 2.6870430617209005 7.912290047527017 10.153191195104268 -0.9757218226334549 -0.003010504691549654 2.3999607646786925
Ni 7.357250696718191 0.8865684203102242 9.294400365699236 2.7192668376097364 -2.9954475401062153 -0.5042771478912218
Ni 5.307083354020353 4.671428238918054 3.96432959234365 1.5552579882689923 0.1283039612854371 0.20125824215597599
Ni 8.041580887256124 1.1303444537371965 4.116071158386342 0.4600480028695173 0.4455976317721423 -0.37187099151195313
Ni 5.152485947506562 3.528532995247511 0.8214860056068622 -0.313404362734628 -0.5341158285192091 0.8036674557349448
Ni 5.806263769676685 5.853774146714644 8.295377053937974 0.12954169034728014 -1.3372515801204001 0.016130844123591573
Ni 1.2845877919380944 8.925176997255482 8.08465516103702 -0.7214001249935963 -0.9423180503620286 0.8515660791884366
Ni 2.6440703496402835 3.275243705308329 10.701694258505343 1.3342595873716119 0.2775073917277027 0.014742962637129448
Ni 5.057856532092262 0.2486910606651607 10.050025006314371 0.19223418428049474 -0.7828731446974131 0.688236236647118
Ni 5.396541508548975 7.067352606743287 4.142186491738371 0.6694949514838728 0.9325941382060455 -0.15179870197326759
Ni 4.2244076763031995 8.48155735396184 5.913320982873536 -1.2743153456074958 0.017296839407234726 1.9579405658451636
Ni 4.524331490085289 1.3547958113499445 13.549270961533304 1.0562927395089874 -0.0032578448156653575 -0.5099837113576959
Ni 2.8106594908565365 1.0769174088390479 7.2198498291063915 1.0970997462230203 0.1971110527568218 -1.7767808942112755
Ni 5.123331217215961 6.026289273378268 1.9043843736576511 -0.5554014773708629 0.02413725936783585 -0.17114985280636977
Ni 0.42145123987165534 7.061147093680475 3.365532056854815 -0.0003398998379219953 2.2274561976166414 0.5235205695018661
Ni 3.5329402139843133 3.4797461087657 4.884760919747237 -1.0554656156220015 -2.0947353382104312 -0.8824887369092221
P 8.12866305705349 5.27991326979939 9.795595243704186 0.8081596871783437 -0.0272601212675337 -1.3111327715461611
P 5.8650484272041385 5.645535390797532 5.9161442117895 1.1661554633701012 -0.6085749760700487 -0.5606102752653119
P 8.847207427721527 3.368969314766033 7.613829094932407 -0.3538007642738035 -0.13781215788618847 -0.478540148136434
P 1.043225013591105 6.491721388263568 11.42536702915802 -0.07002116638414392 1.3885324897825635 -0.31261451984348093
P 9.28837654558646 5.021191826533452 4.588450466274095 0.8818631875100812 1.6677458084577794 0.5186197897661391
P 0.7166873755427824 4.007699233638196 0.2990628687265281 -0.019910879991314096 0.6135868274623433 0.804963034617917
P 6.179041797630142 2.4041890676551363 9.53640605756174 -2.7503918411493147 2.693585373683232 -0.9559906627531147
P 0.7360959096416387 8.22422423118593 1.2101663596028152 0.8796021593900463 1.574901730641849 -0.1861260145002278
