# total energy = -381162.19953186385 ev
CRYSTAL
PRIMVEC
9.35355738232800 0.00000000000000 0.00000000000000
0.00000000000000 9.35355738232800 0.00000000000000
0.00000000000000 0.00000000000000 13.68987670111416
PRIMCOORD
 96 1
Ni 5.269971997858086 4.873951728010399 10.070355190276405 0.5632849938839976 0.01071070154928478 -1.0110986594708522
Ni 1.355788802148191 0.7175272947985248 13.543094434982676 -0.8528542018722408 0.7004970562923419 0.37710190089358925
Ni 9.196006150886221 4.868199290164529 11.751362508980709 -0.11472545127005404 -2.0631598773969952 -0.6511704421430721
Ni 4.383787902197363 7.927439272173389 1.266860789829764 -0.30656497121529136 -0.4812650032667647 0.9602604937730623
Ni 4.54078736438101 3.787302188589182 4.782065185463275 -0.9207732343117174 1.5017859844927814 0.23647129972199918
Ni 0.47890494868283345 2.9112292885567297 7.919661789134623 0.38569684165145185 -0.8198636058788331 -1.6086752275478684
Ni 3.693663724727372 6.511320024324602 10.649054178994007 -0.9944196561532744 0.6552430695505489 0.3312550177628037
Ni 2.7870701666606483 3.5787365640571025 6.225758720742351 0.5604678361501767 0.40993308849099724 0.471340287953885
Ni 8.262287276147912 8.539358355611958 10.362675374488619 1.580272250925143 -1.1047120113526392 0.0844208867492417
Ni 6.424958628176754 0.3726223458290748 9.325872813552305 -0.23107609684835687 0.9504771891340534 -0.9110284962201277
Ni 3.796019704153981 0.7763892319758671 0.44445392579842435 0.08195905547231046 0.6797395120300165 -1.3048783059960172
Ni 5.073668887173058 8.109758814436342 12.778555224969303 -0.2671623010479528 0.7865148552150583 -0.6309865109960294
Ni 9.027277327631483 2.930301192244097 13.221436817756524 1.143832374392869 1.3269687101371535 0.34417352559668474
Ni 8.564276232719925 1.3780689760487836 6.5204612560429265 0.7631368426107502 0.52896282356336 -1.3380385947980697
Ni 8.968396683339193 6.189987910898507 4.075695749374245 0.7094406386388749 -0.2710958317744041 -0.7820917864466983
Ni 4.548167321227176 7.674780977713774 8.361941012820584 0.04823389530572338 -0.3756764813009723 -0.6526745374924243
Ni 3.1716790963913226 3.3233283237004354 8.968799821666279 -0.5997432367110317 1.603425806223471 0.52705146547326
Ni 7.726515504096719 3.960371062511375 8.709897092237714 -0.3294035663763617 0.8273779119780074 0.10267931873879736
Ni 9.068292677150415 6.789335813093414 13.06586470844325 -4.040445166317357 -1.2569388020022612 0.7211085618951065
Ni 7.869007598639803 1.0996790449810523 13.303576018061074 1.7889093020436933 -2.689254607518362 1.5432283107979679
Ni 4.277101225660773 3.813015118082351 12.166987835291721 0.008189477789327831 -0.9971457968351859 0.011120792503509879
Ni 3.2174086388766274 5.880160673164155 12.91972566184146 -1.0068198295898403 0.663641063806257 0.15265513643629192
Ni 1.136906203723436 1.3936052350113717 3.6351684470029695 -2.142593595344291 -1.1106849411066224 -0.07083440631405866
Ni 6.000597079185997 2.4483965576796853 3.375349068942054 2.5676398853276425 0.22557342186257281 0.5324608094142894
P 0.018861448644225398 7.231338171478177 7.573705500305212 1.3565430813601607 0.8557279238756101 -1.6435244740165695
Ni 1.558480392587251 7.66933720726451 13.471619225553045 2.599307391634252 0.17146532716425955 3.6030454969749757
P 8.74888739656375 4.7477722377001585 5.698684821785265 -0.2574270760380599 -0.7136726744423515 -0.7489060437233489
Ni 2.233825949249965 9.09067574018321 7.712794770639634 0.7017155020804754 1.3777685663978403 -2.601429323073262
P 7.6804305264274415 6.1663982389517 11.191693332941847 -1.9434601128408011 0.7748633870190591 0.05334987637605006
P 2.2031930485260185 1.5514278102526387 5.616244436930082 0.0457628080574115 -0.5101469764084376 0.05869519984836344
P 8.224106054543286 1.9620676904305625 9.364861247166846 0.1787896287398147 -0.7015990311072692 0.22555105326506963
Ni 7.088939612509821 6.797127326468392 2.5862913787248094 1.37211419632554 0.44691892168672703 -1.7381415845725225
Ni 2.7896798091956048 7.976479974004123 3.9998804892771616 -0.6223787147223605 -0.47402966186059003 -1.2364465955861803
Ni 6.610318076618419 2.1097135951412485 7.497712522616142 -0.015412477900328294 2.0654075357805914 1.3267085144972313
Ni 2.6556152699356574 8.734380028923189 11.833379177682364 0.8366997035995654 0.8167350875521805 -1.2553557737858572
Ni 3.8004065226088 0.15937339507028403 9.591606446003372 0.7213970396698027 0.8865220264383312 0.9302904297735333
Ni 3.794410892268632 9.342118072171342 5.568125060510436 -0.6608534737587909 -0.14010661034732 0.40327881639927315
Ni 7.135529682282639 7.647767903731863 8.668388810239955 -1.7095090084374946 0.48658667258999433 -2.5950537585642213
Ni 4.574881081369952 0.8600072297168945 3.267856115751295 -1.855796807894862 -1.7509397647784555 -0.4297485805550276
Ni 1.1572782518995446 6.647311396423978 11.171596279355445 1.5909826953641115 -0.5254805214417144 -0.7286462650330483
Ni 5.990570065574984 0.06538978493772148 7.056255476632055 -1.2104170042916378 -2.2252355358162386 0.062032234641396386
Ni 6.095666637341171 2.247323132683447 12.88595277187384 -2.640169677066253 -0.08662792170288951 -0.7031121253176859
Ni 1.879906041588075 8.083886874466131 9.47899429080766 -0.6874934449438225 -1.0317921832644616 1.7588165964233706
Ni 4.647230848423304 6.689982325615626 3.4128315798034503 0.011803677503147413 -0.5669737555894945 -0.4473081867053458
Ni 7.267181003714563 3.184699248393684 11.17630579554308 0.8427577368681872 -0.008068378830431265 -1.218199219340218
Ni 6.603433858318319 6.596325154638869 4.663141249684809 -0.3527520112943151 -0.22436988847277486 2.959000353022775
Ni 0.7461416978198065 3.4128231616017244 10.010873112238608 -0.5584744598692317 2.62347910378445 1.7909587283735542
Ni 5.752026289342065 7.4718181341079974 10.539726993182798 1.2152110832461716 0.5628394217061468 0.05027072323009407
Ni 6.4227324814981905 8.786554172507364 3.333444196107443 -0.9578251448586923 1.1494486921383817 0.3267357897362115
Ni 0.9790368606948041 4.816006439465408 0.08336171026626829 1.2665691260031735 0.5971826750727071 -0.425776483281157
Ni 7.987077554620988 8.346749900128748 6.057564920975065 0.22107527688190315 -1.0465927386124039 0.9187577465435854
Ni 2.759561354132671 6.1714772206595185 1.8959932250858202 -0.9209899783082139 0.6575362364600998 -0.986224779047308
Ni 6.651108940758 3.9039504038344757 5.447064772205146 1.0863692471793935 0.4838787867405279 1.3871605491357015
Ni 7.105009024248368 4.562983356264346 13.14985217170446 0.9392772066531759 -0.3205358315730867 0.9171253531464851
Ni 7.5476100103113986 5.999521420076607 6.929172432669926 -0.21649177127627875 -0.6056979116325697 0.0738978757307308
Ni 2.4683102815396185 5.349299518786266 3.994227199140504 0.12719067361660033 -0.4128209515617535 1.5637912225509845
P 4.385985988203509 4.152203172724327 2.7563063161320804 -1.1070956810934676 1.5048977906488856 -1.2791217658572036
Ni 8.377990782088437 4.915107380891427 1.4511679630557195 -0.04923045489103779 0.9407141962100187 0.2983310133412733
P 5.598496996980887 4.028867163885867 8.029126472240684 -0.20009327531359733 -0.0731846517137901 -0.1856986971548221
Ni 8.64103152534304 8.579700248992836 1.490197552323143 0.20326421684241122 0.6978650179861337 -1.1683707258538651
P 1.6153593755803255 2.243132738935561 1.4917857863820516 -0.9918842913259305 -1.946932387660118 -0.1407172473481254
P 5.111373077346563 7.6988196204192825 6.023915497966089 -0.07741180242126022 -1.3859852978806777 0.11579991528115541
P 0.3040448685045683 8.477381683796118 11.910904268085504 0.883210445566595 2.3777762581618536 0.43231377017904254
Ni 6.385093766226996 4.7544319706209075 2.917531715582011 0.21587290674535725 -0.6435237242310917 0.3618395754178801
Ni 8.67350707688916 8.587622712172434 3.863612251876585 0.7466429587207851 0.5027681674458631 -0.6859746943064509
Ni 2.7588598373221993 5.920633516349657 8.647347982704531 -0.3380185617388824 -0.45857578919936504 -0.7658105327881715
Ni 5.09964371627547 2.7444460052563664 1.2755240547612203 -1.0174379714253188 -0.45660092486118137 -0.36947086671089274
Ni 3.052140631886884 3.530893117582908 0.774013428377735 -0.39282111140105896 0.9090808855754537 -1.0908172556484181
Ni 1.7719753419075808 1.5365837145430499 9.81939269578664 0.9606407599306165 -2.900863853891359 -1.4780927546408995
Ni 1.1491593640130147 4.1688057372388325 2.277406979583731 -0.7314467105963209 0.11191832083856208 1.3420721414374952
Ni 8.676649872200075 6.200922219584398 9.20501830351142 1.528182215098123 -2.371069021345007 1.9656572177631308
Ni 2.046810921135587 2.498999303608403 11.891301082333674 1.083802772003798 0.22546852085359234 1.3039092572145285
Ni 7.273971686439932 2.793860849386018 1.1404764566108652 1.7068880258748798 -0.04092399190787145 1.5754280354589643
Ni 5.315617358326135 2.5442892288924788 9.662506411648414 -0.09976291642295078 -1.0095593400081904 0.34793144997722014
Ni 6.843605153551533 0.36118855717412757 11.484397013010451 -2.1687720535118715 0.7285339078249001 1.627129577598314
Ni 4.715343453941403 5.267006920139157 0.8264606958401207 1.7584106192342037 0.3295588610073034 0.7414819833451358
Ni 6.030799716266188 0.2836279232525895 0.9344241329717704 1.0539034133412042 0.10737055356687959 0.5944729894510279
Ni 5.561307252468396 5.727819282602043 12.198310093201423 0.06717984028060689 1.9165874568196735 -0.08698350527009535
Ni 0.024135919703227978 1.4203002880392017 11.468516543132857 -1.1353515906153673 -1.3728461893955584 -1.2124774863650924
Ni 8.315331300577073 3.429481847461067 3.789878158317235 -0.11402199744512621 0.14908027460084003 -1.3751928352508638
Ni 4.870565740205188 5.5668352049349155 6.682535023155654 -0.3492781938131017 -0.08207424089393608 -0.12100665629307548
Ni 2.3223854314039576 6.998481358188818 6.124549487461926 0.3551588209635948 0.031452562082326475 0.6900650623257406
Ni 2.8782299377921245 2.744333762566691 3.290759236579586 0.7323265420981129 0.3550580337196724 0.38106988440240175
Ni 2.4803202493349 0.1676325863189084 2.1716116970743133 -0.4916018664163985 -0.7899462494941105 -0.18839989813606908
Ni 0.6730417754571235 3.0570980173475535 5.208943776770006 0.6386028898907067 0.5208358235808515 1.0752983340772124
Ni 5.263022304655675 1.7875303079851144 5.602500319579314 -0.3382283637568433 0.4320769715778881 -0.742521994573876
Ni 1.0268148322666877 8.954581478951631 5.4371125870539165 0.6116474443477853 0.30360614569728356 0.8539770026227744
Ni 3.6555386244675834 1.7521925678522687 7.418037984705715 0.3600236052550638 -1.2049469823160022 0.2663642306266896
P 2.364467086474808 4.571766346731456 11.346525575859008 -0.49381044403194313 0.6050049993306031 -0.7810502325560612
Ni 9.182452846107902 9.3269466019502 8.204891041426583 0.24200714193856385 -0.024092265062513347 0.8702243177195723
P 0.7014999740686066 7.06103795056798 2.0477313111909266 0.3484816660537353 -0.7790702260115551 0.3479414772795491
Ni 1.1900344101698532 5.027668091521037 6.93285492824703 -1.1002472907130665 0.9576901619427248 0.4168411284647402
P 7.02635495945824 0.7417829400374067 5.2106274171151385 0.04830537197360713 -0.006894156016671998 -0.8935812472779578
P 7.796190153712804 1.0790263900807548 2.4641638495118547 -0.30710027489347114 -0.11073741315658349 -0.09948498017121576
P 4.307500287447895 0.9940025526515414 11.966937689483025 0.3090064907772485 -0.04087848338191669 -0.645797607866933
Ni 6.980223214001599 7.225763451224291 0.44425937180298675 -1.2485405506362368 -0.32136424101165295 -1.3830213301563472
