# total energy = -340863.0946778201 ev
CRYSTAL
PRIMVEC
9.31861070448247 0.00000000000000 0.00000000000000
0.00000000000000 9.31861070448247 0.00000000000000
0.00000000000000 0.00000000000000 13.63872870561782
PRIMCOORD
 96 1
Ni 6.292121574776583 0.4786905040144941 0.7239386299127224 -0.14273453488847032 0.7376034742263361 -0.14147135190533056
Ni 8.639190710537175 4.3838564940359825 1.0160202290152973 0.528968737100631 0.19661251585384848 -1.511208820468578
Ni 5.484104848772982 1.743307035720236 11.95319988509062 -1.292488931192729 -1.3870589905608304 0.7319411337342363
Ni 1.3162910231220466 6.48969475693237 1.1871937873126117 1.9273336395925837 -1.9239161292706028 -0.3138805310400981
Ni 4.695759709767347 3.2848754703419605 13.77988984855022 0.5120138544138472 -0.8329641478165332 -2.073400581288397
Ni 7.324213611511157 6.852971472957332 4.484932667740783 0.3172576750424472 0.3078494943546698 -0.3245218128040282
Ni 3.4363960788625296 5.735893707458454 2.6238868506837894 -0.4060352960984878 0.469098800217876 0.3292048201019943
Ni 5.761622391352998 6.306779749266304 2.0809696867611573 -0.5439490125595471 0.5485389459230746 -0.2811565584445158
Ni 2.597320423695395 2.4507759532406306 12.216700373590891 0.02727914743092721 1.6279430746385448 -0.05016762199332651
Ni 9.255477023237535 5.76017800670843 2.773544668943395 -0.8025335992408178 0.5198606041517756 2.0335109441823107
Ni 7.870423972423405 3.257311020157222 8.628446352503707 -1.8779054668684432 1.0067398682815243 -0.7956875228532619
Ni 2.0360605066478006 4.786429791003825 4.42601295657511 -0.7864384934511682 -0.21734460619487728 -0.7574253940482698
Ni 6.436904827826035 7.147085461033974 7.415131567789864 0.11597629295801962 -0.3420834758368753 0.6139832915698136
Ni 9.187609582164022 7.4199343796983195 13.374574084479818 -2.2857644464392313 0.4957953356724558 -0.1363348020097136
Ni 8.599996634311006 8.846110459134914 8.375911073108364 2.0563875916701684 -0.7593241537328793 3.0471552528931523
Ni 8.46871604803562 2.3837751429538594 6.479351099155136 1.1956064216413667 -0.13253753975081045 -0.9089770130077378
Ni 5.3037524590246985 4.358183721805099 7.178103388310824 1.2875693824039245 -0.7924250500519062 0.6404972786999421
Ni 1.049927857442345 2.15988620443509 4.903818192581642 1.1864381248785374 -0.5153514034275124 -0.0432626673433771
Ni 4.744645141028042 4.492763096236469 4.746277761606935 1.1252870072905135 0.2014600737541369 -1.7978225453729229
Ni 8.744500329042154 8.63259313422521 11.30167804195127 0.9612295425545511 -1.02925733265775 0.9515405974015613
Ni 0.06218588418452117 7.320625946426259 7.057210257282539 -0.12776762916599285 0.911172992217792 -1.9488044078718503
Ni 3.0940023692148495 0.5303966787068731 8.097913622081926 -0.32067492825411226 -1.1620288427962375 2.1596682914383902
Ni 1.5321380006842817 8.838795349805968 10.134243436576359 0.5593769170788431 -0.47008996048655166 -0.6975541716139342
Ni 7.478595033489032 8.959918650516324 6.545566350567473 1.9488987673578693 0.5171066955557224 -0.9164627798618216
P 2.8957489284845233 1.1839481152371067 6.183745201519813 0.45874265379453255 1.5087667866859886 -2.5108871539176305
P 7.648818093504114 0.7422133571802308 4.724823524399253 0.07765297189778884 0.25652359038718403 -0.9256261915286446
P 1.982059158162149 7.47155016386778 12.801201837361187 0.674274118040071 0.2595685478610949 0.03653203348776289
P 6.199420036427098 2.4901004900153416 10.144581503187226 0.6178306903403618 1.0400852765111892 -1.2646299999989317
P -0.23869527891719108 1.5525737137522775 8.490790904709936 1.3764845574790938 -0.2784458443815721 -0.7553823954763119
P 4.954136826154174 1.7633513671426067 1.9879401333181963 1.2523033601127787 0.5571932791639629 -0.7561254442899236
P 6.537219671043988 4.586731965628929 0.18626784376358876 -0.5577164986572847 0.0079364812382573 0.34115530759565116
P 1.9709047812618339 0.7109400999726644 3.444420334458905 -0.798555074209044 -0.44799672813193814 -0.17578683735774886
Ni 0.3494329881025653 9.015727809460339 4.515564804538373 -1.46067867292951 0.8101525492386562 0.8691066591753612
Ni 8.219648223648303 1.4030100134598336 10.713125778148752 -0.8492415448203181 0.08126742872192456 -1.0669263079634335
Ni 7.057272691973626 5.583413282045043 9.537890563832109 0.9982608842762356 0.19666059548296455 -0.5383167539744342
Ni 2.829400420940461 5.870370577173112 8.400897995598342 -0.34560408739562415 -1.2618262120015493 -1.7685621058459091
Ni 6.811848444334868 4.661849285757115 3.2771000216488755 1.2925328970567869 -0.830750427994666 0.41167989597877486
Ni 1.1225850643694593 1.8697792189207998 10.061726940669457 0.8445724214794228 -0.20152023756811102 0.693169155172361
Ni 4.709746944293138 5.963165301628698 12.919285407290522 -0.14934586955740087 -0.7576025430560823 1.3915411947019
Ni 5.904225089519682 2.090350732062366 4.026016255440966 1.6472188921490212 -0.12005843344719322 -0.3847550465634728
Ni 7.456714935776468 2.5070789985469824 12.61668309680912 1.4264251510632788 0.18177159418627403 2.503263833044418
Ni 6.9468751120755226 1.0774363959634226 8.48502175288121 -1.1375771375117762 -0.37781332513831706 1.1559350711936738
Ni 4.326528401562518 6.339050097809153 6.372872926879649 1.5618436119063102 3.5071546619129217 0.7561881792070589
Ni 1.0136970993901941 0.4773160089495012 6.787367522401018 -1.0200412133761207 -0.5077998163324997 0.24554497988849325
Ni 8.537422164064044 5.40090829324582 7.1588455476239465 -2.8995991282463223 -1.41251496874009 -0.8340422113720605
Ni 5.134321480911476 0.40626998979687695 9.992987277642838 -0.1761395927114773 -0.059138458033369125 -0.07121287269939994
Ni 1.1081878109768222 4.1314246512184125 6.687627637457709 1.0077402845215804 0.0016948712039196617 -0.6951944131325059
Ni 1.4833271183084673 8.707579993804854 0.9891639932369283 0.6034451110426511 1.9872303159482163 1.111255726008428
Ni 3.305320502020566 8.756595885614091 4.7229821669426935 0.041975315990521254 0.4067032686997899 0.43339543327899555
Ni 5.634069249321661 8.942492848675396 5.437201485989059 -1.4479843652912934 -0.2960321900047676 1.0587599701025572
Ni 7.016839240536311 8.170315499078322 9.879185609288855 -0.8077683652771959 -0.2982703353066669 -0.10065534633023311
Ni 3.6657550418094407 0.5136157247201669 -0.5279104733960928 2.0908226334195863 0.6707540207019544 2.7810710154007263
Ni 0.8993288595111167 5.562763240933014 12.173615777434996 -1.4249593651510297 -1.0847790198741385 1.6492253810560888
Ni 3.6293938232087477 8.261581971393849 11.585199565347386 -0.41969608141503206 -0.27993425600164046 0.3813043690107111
Ni 1.5665329924462388 0.43447369666946944 12.506700195083164 -2.5166747071336855 -0.9571641142359257 -1.0273282339558372
Ni 3.9938260469493643 4.343376449545617 9.78648313907831 1.2991624865581626 -0.37287963528212553 0.17889195864563387
P -0.4130278462113367 6.545457322823335 10.501629659880383 0.13248637479790087 0.11619715071957408 0.5658463268532706
P 5.092779114811556 6.021266838782803 8.760768759445304 -0.442525934825354 0.03974051312273156 -0.3587519376314918
P 1.277544240205163 3.887640479047034 2.3044812215502173 -1.1571830846681619 1.7528860898715488 0.8427394820357421
P 8.76730296920512 1.5967812024866919 0.7335479811738792 -0.5252930880212566 -1.1207898907511085 -0.17645943794474125
P 3.2257675232419625 1.2714964619191946 10.487350752842495 -0.6761885614539644 -0.6936918604450504 0.23604552503849024
P 1.8562485963149038 7.772159223539678 8.12566817192311 0.12999446161398256 1.3492596603248697 0.8872015690038592
P 6.833989463144515 3.948817157702479 5.355983271494426 -0.12219090640916375 -0.7715278948879228 0.9548444649638136
P 5.152147983008638 9.324108590381078 7.574390350561077 0.8295872609245003 -0.37518205816305705 0.5160078060645887
Ni 8.213665675636605 3.859461000562028 10.798803879681389 1.9743855987750645 0.3299144445745092 0.6406446029110838
Ni 1.6403084326465673 7.6368809533125495 3.3301685772124543 0.6942497898310496 -1.0336089247582263 -0.8315916929490388
Ni 3.69805334618412 9.53135449035017 2.304508245520987 -2.272783460798531 -1.2419258735331968 -1.4909325867180452
Ni 3.918280070733112 7.812238567773808 9.36181448449281 -0.45543055870216403 -0.08333125322948874 -2.028335570628958
Ni 3.6630899191749458 2.3960011600743387 4.272890478890661 -1.4513663943896487 -0.8585178279159216 1.2200367867695892
Ni 5.383808642776248 6.78050063824242 10.837210533311003 0.28459746580526474 -0.6098325026262337 0.5973071164657132
Ni 1.6783470011570818 4.080768683941794 10.39569849004771 -0.36089855166084944 0.6868213585774623 -0.032829130714878946
Ni 8.90184506919405 3.8711465382671197 4.438887548994053 -0.33063692456283056 1.948149805006987 2.036222943796835
Ni 3.804788712112447 7.464486657025309 0.9846165112591891 -1.20845705235179 0.20653183185008947 -0.28184792808458553
Ni 8.26161924583629 9.230745430678272 2.2394652753234023 -0.023326590541082406 -0.28964505553150116 0.17288354766802483
Ni 2.6978495949573813 2.381659818345362 2.118940229414218 0.11211578156134885 -0.8383981743479109 -0.6329456916049293
Ni 6.984671396710173 2.7018472789091232 1.514989893439537 -2.4119019962009687 0.3067827436530523 -0.8085656643675108
Ni 2.5693459546438118 4.2467424575186605 0.6154560244949976 -0.29320706185114664 1.1232658630954269 -0.916785453308563
Ni 8.81575042576714 2.5647798354448517 2.6967723635708514 1.5899802222415265 -1.5096142222879485 -0.07537831693099922
Ni 2.1137497633043805 6.44882333079638 10.539450172902619 0.1874817571971739 1.2779822529361216 -0.2718445370149705
Ni 6.2517533536135375 1.8887425915123963 6.478969036120121 -1.3013648935261202 0.8003659021655377 -1.8721870763274273
Ni 5.992164817847395 4.257225894455047 11.564346378524057 -2.6496565335107656 -1.6964025529625237 -0.8656945481700187
Ni 5.945189701761774 7.655303846488759 13.650867161625666 1.678338496371961 0.1472185388017529 -0.4854363610356349
Ni 5.3976374609216675 8.737492733863343 3.3066008791183967 2.474040674513242 -0.9979502950143523 -1.8083098180574921
Ni 2.1710219441141847 7.0945844088565515 6.08677387578877 -0.886993566758111 -0.4018030031846951 -1.0403012491767374
Ni 4.7855817974383035 3.8569729315291252 2.2604694236386154 -0.2050508764291888 0.9758403504891903 1.7843052276127787
Ni 7.445029398071377 5.72255877567537 12.121351417967071 1.8465562631332006 2.6423934241904488 0.8727208588891808
Ni 2.585159636849187 2.9680799840402834 8.275243986409347 -0.6426891441449383 0.49440951106852266 -0.3107234734683552
Ni 4.752472773940543 2.2188264165441063 8.286578212494437 0.8319724733272252 0.39469518849532026 1.1671641071402736
P 3.6576758064104653 4.504066570906545 11.92849997580743 -1.1401322998334624 -1.3084523965005208 -0.12131184623832011
P 5.0654755857239016 6.895622753719856 4.465360789876346 0.06434545615560532 0.048475064782252004 -1.410022027114907
P 9.43444094000491 5.996386148453779 5.003927094505112 0.7787814911265426 0.7113962197033491 0.8414863263549314
P 3.334189557690721 4.6498655525125 6.217978049457154 -3.7137039772645073 -2.6561657953841933 1.4001595324985305
P 0.27794899425126524 4.50136417382961 8.687815220700788 1.458254379758734 -0.22794757852170422 1.2815745982730702
P 0.3344197745485991 3.3308162206498575 12.555253883806138 0.5513381059347666 0.18474764609546246 -0.5229742100800928
P 7.740895284942721 7.047646567213372 1.599318660155828 0.6734871033624014 0.7624097346367386 -0.025548795003381804
P 6.772915289205781 -0.25486959135317827 12.178838858681969 -0.4440487992277837 0.5109674154272039 -0.5803656035153683
