# total energy = -340872.1040568082 ev
CRYSTAL
PRIMVEC
9.26771809441588 0.00000000000000 0.00000000000000
0.00000000000000 9.26771809441588 0.00000000000000
0.00000000000000 0.00000000000000 13.56424222647886
PRIMCOORD
 96 1
Ni 0.12421985888936903 7.680296964188716 0.06741708818628164 2.291878015536137 -0.9576302552390669 0.693175068709632
Ni 0.7637683996592691 7.350125240922953 3.0689501528740335 -1.745712197830929 1.9146159349155993 1.8653296870859615
Ni 2.3471793443322384 2.3493109194838446 6.706351547493846 -0.10944800492119862 -2.0461530584263534 -1.2424871453533053
Ni 1.1633303082842577 3.7527770701736265 7.832969644264808 -0.21269090947294983 -0.8025027460028824 -2.2694178867604076
Ni 1.240567470516809 3.800561424441809 3.9001810525380316 -0.5671583607964749 -1.214617929746863 0.862941925125546
Ni 2.235688696185179 7.922416098257039 1.2736819538829152 1.0596254034266461 1.4906919314621487 -1.1632411179367836
Ni 6.5413685575313245 4.982093530977174 12.770950690865392 -0.3893208115572843 -0.4720607110596773 2.7748967682692145
Ni 2.24092495688369 4.403259664699461 11.168647502946557 -0.9223891726485857 -0.5990066156553232 -0.9716175706570944
Ni 8.05158028472633 3.1421549309828283 3.9908304563332115 -0.03277436621754356 -0.6340489519714371 -0.17673608864489562
Ni 5.027468278552237 6.186192530965414 3.545801122952656 -1.6252526722905751 -0.7321365375744939 -2.2735661046008264
Ni 7.363999014844494 6.413622331923754 11.001671953603186 -0.44602623466912866 1.2717938647372227 0.4804263094155532
Ni 7.02939732235061 8.005010001522757 6.758451878058129 1.2101989747435609 0.6628615053277551 -0.1884891154157657
Ni 3.063360792117799 6.8285009981707425 7.320133051768047 1.588265810653581 1.9026639047600458 0.5421446123609566
Ni 4.277598675653246 3.987815667651396 12.387408959662434 0.8673122862790997 0.992479244597452 0.16700600584132527
Ni 5.363599144524447 7.804410244320505 10.579132591615688 -0.8686114647064975 -0.7139598666654673 0.6380472744975527
Ni 8.366108099922913 1.6081622392703385 10.238602339884922 -0.22749814968911145 0.62412937886488 0.4506110258263336
Ni 3.9007825274395063 5.825743172828791 1.2475747921347633 -0.3974017887932059 -1.222791723806907 -0.09394168175548337
Ni 3.423430173814354 2.8797858329742456 8.972813701465585 -0.0056872801927643985 1.4639182629127303 0.06913722111729383
Ni 8.72760471019924 0.6452973062766016 0.260190257494919 -0.4991115445298823 1.815455427963338 0.9617180521551955
Ni 4.380794716145141 7.224992511805613 12.81142652267898 -0.5156506798354861 -0.37774107713948496 0.18236140525147304
Ni 1.5744833518749592 1.4565609074008792 10.411423965774523 -0.03095428228966927 -0.06266164069527919 0.47592302222856103
Ni 6.429034547041674 2.3437317532174666 12.763151906125929 -1.3402955091530464 0.12792395223819902 -1.8481441764456106
Ni 6.563425726491425 7.394471271794413 4.4349107753854 2.153744212644472 0.7695517449981586 -0.0881970659622223
Ni 0.35451060440988713 5.891673719039779 11.323985578733962 0.30995137118902105 0.15367509306037402 -0.415627053551981
P 9.16582875821534 3.8605328279463493 5.842362971608686 -0.3976252176579217 -0.3583865838722731 0.14683698709261805
P 4.854810691272127 7.912314285582035 5.621048937791845 0.020054604658029978 -0.9558160848484636 1.2900870066194556
P 0.27008910714461754 3.9123023009762306 9.535797916333397 -1.3654825499416354 -0.4569559942077549 4.875321700665255
P 4.767990708575398 3.6752155378093088 1.0231032467781305 -0.5278685620579168 0.12119280416195258 -0.34676622602452534
P 3.23924354527947 2.6540334889830395 4.142736696126531 -1.391932773713364 -1.498586246608561 0.7633705558881111
P 7.528695632319256 6.8221526113061755 13.361795519736505 -1.1549737357216692 0.5840199124385038 -0.2505452613165621
P 6.626548154133123 0.7286826726638296 11.27930498324088 -0.3981085850522434 -0.3176664804450916 -0.055995798639329374
P 1.150485251066317 0.2568974372715898 12.332622844407126 -0.3099061197733824 0.2979777437669126 -0.3865257653106504
Ni 8.125360588126059 2.921601776817931 7.960853958871331 -0.7792057231481548 0.5118138225878992 -0.009815186318208902
Ni 1.4532337966207631 5.5961261904105415 1.8266014269479254 -0.7963259277682092 -0.6101952852822911 -0.7043015176400966
Ni 8.985821870521214 5.439325668714773 4.259972402693072 -1.9913805906711641 1.1048783617271745 -0.4600048083364077
Ni 0.4959304212291088 2.601429921328616 12.493697637667768 -0.16602538709561082 -0.5667955781404174 -0.45150731238835795
Ni 8.196851765167324 -0.035386001060274466 4.377737295960294 1.44684228126705 -0.29843694279151833 0.007450799851090394
Ni 5.345045172987422 2.754551158958351 3.6603510448281726 0.24710409684549706 -0.16367642724746007 -0.266231047482935
Ni 2.469207387902673 7.389401830020811 5.159851143500452 0.5155766320644412 0.3681382639423983 -1.1625456345316558
Ni 5.030091042760517 8.62053476356225 7.935718980746672 0.2207189219837489 1.0093960749574484 -1.103761731624228
Ni 7.971442326743983 3.806659582919013 11.499615323192856 0.9385405855974676 -0.22165917440983113 -1.7715900940389553
Ni 8.214960886237927 6.268462064099367 1.816360598502165 0.09788858221837334 -1.0298857102703682 0.4169660840783787
Ni 8.056112198853006 5.7024547196034945 6.814376995861838 -0.08002661433628798 -0.39304711136893594 -0.00965140704683499
Ni 1.5209808155696414 5.847754003198639 8.869047696313586 -2.2014512889124473 0.3316993043890739 0.22881686850053498
Ni 5.080201594259366 5.57042680825661 5.720231129596085 0.5614471693443105 0.2581534126811232 2.234642945173068
Ni 3.416516456148709 2.156153139876113 13.426157968053353 0.8617260504405739 -1.1282576598830634 0.011220037085535515
Ni 7.762992812352989 8.582601993581708 1.9858458458936012 -0.2528790516560612 0.5737241869394506 0.49699269841466664
Ni 1.6015821594545103 0.2936485732006973 4.380436055456588 -1.1858300589808932 0.834679330735427 -0.9370804561121733
Ni 1.4282572964747677 1.8230157468342016 0.9691530796909753 -1.341262501052006 0.0006538315339150029 0.5428920320499424
Ni 6.3005005653998145 8.851449226507563 13.26561143472159 -0.4284270335301267 0.07585191413330807 0.25001792805818235
Ni 4.359126791343161 8.389073505251957 2.9736344530404457 0.7911852641075342 0.09226352272211207 -0.7321594203926294
Ni 1.2617349385440644 5.583401613527258 6.141780699295795 0.14956364199516178 -0.11433772891333212 0.000978304752869283
Ni 5.636663189163263 3.471501827342101 10.229582069906407 -0.17267143165721874 0.3458478279753141 -0.3494283462377208
Ni 0.46303187569357834 8.556040713649082 9.907769828322161 0.11634833158545768 -1.5367894971511598 0.7715530916989035
Ni 3.2744886770253774 4.83823074367985 4.349211259800971 -0.27529778567089364 1.0297404429417556 0.5801450028641298
Ni 3.231708890504444 0.7249978279669659 8.35722777248696 -2.4095633207654634 -0.5230032635458154 -1.448907391326195
P 6.422018884477474 4.681022442389862 4.016196200637326 0.5813457080404504 0.20003234016867485 2.330470016876722
P 3.543196894180476 8.111662900847476 9.412593799342359 -0.44730175894744256 -0.3722515147798234 0.17365282173388158
P 7.379985828481542 0.8807612920128878 7.5009443773889535 1.1802715910565094 -0.3735008138058923 1.2800653607173953
P 2.828868990005007 6.818176760262528 2.9816510291540954 1.4597098812583378 -0.9400747628538068 1.8952537283389035
P 6.083608159864849 4.329646180224641 7.968938189326748 -0.28144297933668305 -0.6888070215489234 -0.4353926662146824
P 2.956439128969618 4.773421591352969 7.366441058550791 1.5202956132611947 -1.6786549991711155 -0.6213528445610073
P 1.9717904246982703 0.15293124940970065 6.4444931007498445 -0.6197464193058358 0.11203299203955544 1.5397730052595158
P 3.3090387299175 2.468994230387512 11.101138664351577 1.2752368289805005 -0.41009995308616465 0.5727607945849168
Ni 2.064393463458488 4.082883919413037 0.04581033032343426 -0.09907154678288098 0.6693954497915311 -0.13184488455916002
Ni 5.837309284955769 6.568402491084523 8.170177419074482 0.6314809341339447 -2.2972387656274176 0.9254932654952062
Ni 3.4330315297146328 -0.08956415401147097 11.79062259674917 -1.583213592941654 0.5563643555047644 0.1107042459258029
Ni 9.176356885920665 1.7316267791385949 6.018725792565369 -0.1854737256282096 -0.5592177657931594 -0.19719975581588617
Ni 2.8495545366936383 3.6776714830926815 2.2829837149402974 0.9960574488670135 -0.9155096719199329 -1.45737531958789
Ni 6.793904606688367 4.289804260325704 2.0242735120180373 -0.351600157078059 -0.3321808720111828 -1.7219413206635763
Ni 3.7531755820497965 5.430771564954196 9.337109162593151 2.151887619051707 -0.48750687041141844 0.38998184218005094
Ni 5.482337148186968 2.0242827797360876 7.887702006755423 0.6517666809661743 0.2232162344843059 0.45919876749534466
Ni 6.574991838618402 3.3427083495948287 5.916369407328846 1.098335161292018 1.5755293369235188 0.6229423005353143
Ni 0.4122336595153854 0.9541301087311762 8.348845121510317 0.24560385815088673 0.3846378042593182 -1.8609672963522077
Ni 7.749980936210141 5.043844336347403 9.222925315580627 -0.6390991128008349 -1.5938178508200616 -0.10509975525483191
Ni 9.04191010016261 4.878239482503695 13.392396597967325 -0.4389266475098699 0.37557466561578545 0.13430543028451064
Ni 4.759631226893881 0.8546467160902956 10.058523163990003 0.8988908324163293 1.083942897126088 0.1630876446235256
Ni 6.303243809942751 0.9895049885297902 5.711346168301107 -1.0006468680099088 -0.3701966891333237 -0.7831194563802641
Ni 7.131907551706771 8.764508763476178 9.443507199671481 0.9998819648194264 0.39038036317005026 -1.1751373551537374
Ni 3.856000913819673 0.3798003534259881 4.926274991931046 0.37316502773302834 1.755481618512867 0.4826557129667042
Ni 0.5986222978590594 7.787385446261806 7.30093960768554 0.22627661857718448 0.07375106574022137 0.6146458648544769
Ni 5.502160797096907 1.514196845956703 1.281437180347542 0.2679428879677192 0.12391405974785757 1.509023125671169
Ni 2.465861741686456 6.788093747470728 10.718315181297527 0.7512367487390547 1.681197820197627 1.8182301624949977
Ni 5.825326125516521 7.010889689403837 1.494141504095503 1.516537174660027 0.3789543807212957 -0.9445166006752443
Ni 8.288750457355706 8.714639172646642 11.935949683498468 -0.3668552834649166 -0.5659993074913673 -2.372629423853591
Ni 4.320786241768399 3.087577339383657 6.028396656351026 -0.2397527986867484 0.6909330667529907 -0.4178207187691901
Ni 2.9320835659330036 0.9164188372120408 2.4001656687421455 0.8041012008382539 0.47520851266003966 0.22815249544365868
Ni 0.005773788345437901 3.663380661858869 1.833790395839669 0.0018730486529967743 -0.49853021810511555 -0.13849787109930342
P 8.89410853269384 7.327437867135422 5.453774967927249 -0.36606261236029214 0.07488106557960653 -1.2946550856061123
P 4.045979866136096 9.375501611388994 0.3368176038797499 0.3859647506008579 -1.1154633363318724 0.6158486269133265
P 0.6157731368832445 0.28423349843323287 2.448494964831695 -0.39571591645035076 -0.21907187329862915 -0.8352681133593616
P 5.285370336460496 5.558545593715918 11.244932870535326 -0.9554867265335028 1.039980375502209 -1.6154310582144629
P 7.635172445001015 2.5882419585428087 0.7792250998238298 2.3556112920290397 0.1059199371632821 1.0783031823418077
P 2.1960692015194536 6.265060811574847 13.221690792108642 -0.544618784933062 -0.10494188952072896 -0.9934367234147148
P 8.403660893463385 6.977674187910981 8.924402849457191 0.3241376899917321 1.5277957782929816 -0.23685002321765658
P 6.444984289806519 0.8712989518833659 3.5264584686095364 -0.0683401791372952 -0.6970432934157866 -1.2087398736995312
