# total energy = -340894.9646002624 ev
CRYSTAL
PRIMVEC
9.05374746463864 0.00000000000000 0.00000000000000

0.00000000000000 9.05374746463864 0.00000000000000

0.00000000000000 0.00000000000000 13.25107458132414

PRIMCOORD
 96 1
Ni 6.431845502887702 1.8376209947679445 11.546549123285853 -0.03634228607445999 0.9446934925727408 -0.6360251018612014
Ni 4.563867293211708 0.25999465227302876 6.149863825143692 0.12572977280035766 1.8953277761099487 -0.3923536848463372
Ni 2.681946312596736 1.5899195206643604 4.757042573821786 1.0911545843831787 0.6684963350160293 -0.08884549817949859
Ni 3.401809765426735 4.380157705469619 4.68919741258261 0.5167526546504132 -0.657712614136964 0.39068658155655944
Ni 5.032081838087867 4.544238768928782 2.708135182218872 1.0165797371900815 0.072514622229959 -0.677209289408995
Ni 7.2294987530603665 6.131505541615792 2.7077639785769905 -0.11442360375891908 0.07387267891975019 -0.7975243189516845
Ni 5.20742576326657 4.262920730866479 11.598904228161718 -0.5520217622653525 0.6071045621721093 0.3972012427466256
Ni 5.612255022854553 7.770804200397808 12.430528043814997 -0.43345559709296966 0.5181361652615012 0.02194025171651705
Ni 1.8714548486633753 6.495855496743922 0.38894717596385603 0.7692300999926817 0.15518844438110693 -0.3215532170940075
Ni 2.8777879218052096 1.663399734262251 0.4324196493019082 0.42876204827204223 -0.6880986826279892 0.07599486746907558
Ni 0.642979935598367 0.28294590183816587 4.697002648184229 0.04266797118217168 -0.5911778636395237 -0.054275987734745235
Ni 8.439794646795262 2.3917465483713563 1.4348261122124208 0.817509760934676 0.08871180081511174 -0.8031666048391265
Ni 6.981924031419864 0.7684974675396823 4.5685996869583345 -1.2084647656612737 -0.549431375830357 0.9589998818930838
Ni 0.7451677713347729 7.413271717033996 2.2704924260632646 0.12738916278065157 0.7362305051382094 1.2047680335359767
Ni 7.664160110209346 3.882518481663797 3.84898702293029 -0.28619592064063615 0.11104183177087973 -0.5492354577694669
Ni 7.798381914865424 3.947343312782685 12.615499723939484 0.05682035142315375 -0.9286099567473168 0.20184445367674914
Ni 7.809853012774312 9.058907998970094 6.791837889410034 0.2650095163710081 0.21056435004825025 0.5909346372804661
Ni 6.929339866735717 0.6819997759833089 0.331905851452916 -0.35797032227046094 -0.6367131290671616 0.07768999578331136
Ni 1.8871721540854967 6.443452407007033 9.341689122606253 -0.6520459027694899 0.15057614242007616 -1.5126594368721755
Ni 9.093131164002134 4.861156141622296 1.4100070745663023 -0.06737318723833559 0.013376935527538254 0.16298660026928705
Ni 6.263853220567734 1.979927795819157 6.94036914177329 0.554162205647123 -0.27504478911982305 1.739284439927714
Ni 3.3316251158689667 4.402846396361229 0.5819006397635409 1.6069055372419552 -0.3500968330596551 -0.835928886871812
Ni 5.914116013683442 5.562196853684674 4.841677909545596 0.011623186061225144 0.20042983271740963 0.4952356065142439
Ni 5.2225455213627345 2.967121247035666 9.447790893327673 -0.026799893801663522 -0.48879422176427434 -0.4451749424124269
P 0.321951256227327 5.553722546152931 12.435735759298177 -1.0743218290965562 -0.5831133414638344 0.2433736832687873
P 4.132447177618672 6.022081950986897 12.684233057794966 -1.0095917359080226 0.23735421654758476 -1.8305886840603505
P 2.5250358170490474 8.606528458231775 1.2418708376632632 1.0687150244327401 -0.8380243359482599 1.5296287177366623
P 6.373666122333236 7.7310944644638075 5.849355464170831 -0.5041887019424736 -0.1972462927831055 -0.2660544126957547
P 4.775073111695147 0.8912726194047529 12.612320047865607 -0.16339206323782182 -0.2692983735543491 0.30930191053048023
P 4.053299318171561 6.064335789929894 8.199075422658002 0.8586360986613406 0.7482678959187178 0.34233878638079107
P 4.67578066436542 0.9085344941269975 3.9240407778198647 0.7443487633699697 0.5526115733305516 -0.08176982227963982
P 0.1586986106518757 5.776915526144946 3.6382148789455373 -0.2822559621562816 -0.7379675424339742 -0.3404130301129879
Ni 1.6047586125922735 1.211490988386807 2.5746440149749863 -0.41506243929776254 0.5353921241284714 0.15862163843237198
Ni 1.8888652048423726 6.414199749277267 4.777860760508206 0.3102938421301043 1.0107721293693688 0.134136251696498
Ni 6.015499876654016 5.373887962282195 9.21222687293889 -0.5227410110233643 1.5845078862730455 0.6087891489633838
Ni 8.54113324102902 2.0666174268196253 10.274591777760694 0.31613153185780396 1.5289057235277088 -0.7540636766648885
Ni 2.4967881252765713 5.437907009885778 6.955700757557749 -1.575559418830506 -0.538464335295892 0.013495720493589661
Ni 0.6932372872102313 9.104538885679478 8.796341177071245 -0.8377829093614152 -0.0917701280254613 0.22386132426747254
Ni 1.4000081159786346 1.2261671128621863 11.361457933696174 0.5637153965531969 -1.3421225350594563 0.7387764114885147
Ni 4.216982016746753 6.733480150032517 1.5013865467007907 -0.06827898688205661 1.2870063108116028 0.2807539236894584
Ni 5.661896719645735 8.098957273568772 8.085937984860816 -0.26542166420776225 -0.9759722480813643 -0.032360418608576524
Ni 5.304264645060931 2.848707285275339 5.074406296260294 -0.6475073914691881 0.07350861071211211 -1.6059560288444923
Ni 0.5096788970491036 7.506072627504472 6.795839645744467 0.607551934122173 -0.5245376979124707 0.042478480879184904
Ni 5.137766231055854 4.392724306809425 7.134868985622571 0.8866834917168601 1.0080465029080898 -0.48424465472037886
Ni 8.184370326191061 7.26468161531288 9.28933401773039 -0.5293394901764884 0.07201325711350823 -0.14148729274493052
Ni 4.633481556685609 0.2447834513284975 10.453865029294926 -0.6569654515582943 -0.9534612114630417 0.4929691790775704
Ni 8.223419138567564 7.514429236320496 4.627169284024144 -0.611408845974418 -0.6434843863527241 0.06215050538681555
Ni 7.262137512303885 6.16371877473325 7.132285046125178 -0.7600296644403362 -0.2399672286903996 -0.7098329889812872
Ni 2.178521744225974 5.289914455490618 2.5928375203008813 -0.22219396386737864 0.27653242940894307 -0.002613269253130983
Ni 2.18255971554986 5.144755724020069 11.492166884375418 0.8763268310728843 -0.0886351819409054 0.2155054961036095
Ni 0.9941557829386352 3.48313052424096 3.949986101637937 0.7471075570620295 -0.24936949584090598 -0.8585605082283988
Ni 3.8909113054692734 2.5666106249398206 2.7288202788190574 -0.7048895289330829 -0.5241386627018393 -0.10207048151020486
Ni 1.1447920315637832 3.1563626744165316 8.146376275382343 -0.9795363112835387 1.3074404102962385 -0.03545345571160346
Ni 3.557670026280319 2.803827859597081 7.134763056778423 0.4095841897920107 -0.6269426799439589 0.39023278184859245
Ni 4.206262379868993 7.064213541201927 6.056284292400001 -0.3055373012817254 -1.6838267731800418 -0.4539580879216956
Ni 0.7343449217370748 7.371008824343638 11.244742454941141 0.12866674394149455 0.18011837485356721 0.559944616656855
P 0.11017414628528456 5.732687970276822 7.9802608348907205 1.2590694751920188 -0.5608815266488276 0.36406563653492136
P 8.39645435816871 1.7490391305686146 8.039798277549632 0.13521097281791553 -0.6672125832075994 -0.3847725300649696
P 1.747871197158791 3.183858905157881 10.486846925563501 -0.5790137174731641 0.2657314821386972 -0.11130999783060183
P 3.9032606168723687 6.152655095455697 3.592670908210837 0.6364645033914651 1.3257268673102522 1.494177318907588
P 7.017251753630186 3.847444264379639 10.501277693485344 0.16375124634945346 0.0010037586741660132 -0.3838991263210808
P 6.149567767604923 7.543365012892559 10.256477040036858 1.1050778793324905 0.2845010494367165 -0.46088309717630305
P 2.2792084686495993 8.372081670267585 5.849077514126789 0.7903959354370195 0.2112444068344104 -0.3813964145038851
P 6.937017444499517 4.054204692907858 1.618088444834779 -0.3503840252827708 -0.10647812365959727 -0.21330463179754877
Ni 5.19332907862242 2.6265645399774287 0.5620023138091984 0.40021508987228493 1.2006943776872354 -0.3460427175949395
Ni 1.8489653402137498 1.192450957682474 6.9017295587775935 -1.2554048818562378 -0.46880929400191523 -0.025286028260298386
Ni 6.76826464740106 0.7872387245810368 9.293137496997574 0.20041466320875806 -0.12244210318802137 -0.385375196645975
Ni 2.5917890963562487 1.5953970378189595 9.190812949675987 1.2527468754081004 -0.7328829288222152 0.41388513116020975
Ni 6.3445583245612776 2.092963831645877 2.5995563062189437 -0.12142214656393928 0.0009484799561983666 0.6043141439111657
Ni 4.06724208911054 6.665251109905151 10.429285010579191 0.3167984760178415 0.30836474342819153 0.3899394189778897
Ni 8.506765216039174 7.2780449464206285 0.22543287708961487 -1.3670403813470584 0.13833023517318757 0.135961734941011
Ni 7.54860713261572 3.8154845361883436 8.222635989420667 0.7248256057353776 -0.26874481504372427 -0.17105549332035058
Ni 3.0013263045729786 8.283952493436402 12.336736653383012 0.566316838731786 0.20205117037091655 -0.4189787436330332
Ni 0.06314264485884769 4.832184150060782 9.976177548552888 -0.051027141780144385 -0.4392197532702565 0.844490660398894
Ni 8.57932194740604 2.2308795652260485 5.722953381112154 0.5408523759120943 0.8755418732777437 0.767535228788762
Ni 3.654979702937555 2.4008546182185073 11.454374732132894 -0.05614235151952267 0.6275373761051645 -0.2497921852006214
Ni 1.2305943953226801 3.2698513976114008 12.944205981074324 -0.7605356575424773 0.04675576809830012 -0.5810839697386315
Ni 3.056943474623723 8.292662198399583 7.979372662274413 0.30258953150731116 -0.2943478603238092 0.42886952038418397
Ni 5.568733659280741 7.864836420509648 3.7488353749758163 -0.12825870986979845 -0.1123482092871291 -0.4051390095364636
Ni 3.084946715217399 8.379098324473889 3.5027889258901843 -0.20951328307591657 -0.47325807380188817 0.016571016984803722
Ni 3.181595468317138 4.404503232128654 9.405996984750717 0.9728828105227632 -0.8539250663389166 -0.6601991280042436
Ni 7.2990315328080015 6.040252821944385 11.448013569235671 0.4141764371483835 -0.019251649140760392 -0.38944268184712927
Ni 0.7740972102836812 9.332693319226404 0.45923865974050737 -1.7875445604856828 0.09021383928193497 -0.9141076493660838
Ni 4.8336599108809475 0.2642716425272973 1.6284377834453938 -0.6989058005458222 -0.40911984856108247 0.02504665855598267
Ni 6.083810400507648 5.5805216383473315 0.30202757978036815 0.4771928900799201 0.2719784914896735 0.9042598100377265
Ni 7.889725172010461 8.726961405654045 11.352354390722704 -0.4176741658889968 0.28501295607612853 -0.001135399156023851
Ni 9.052470784595021 4.913894220011615 5.772936404178919 0.5501939650279944 0.20565868521651678 0.6891502638209551
Ni 7.8520253679910414 8.979008678491855 2.396563141968458 0.6794896008027395 -0.45516316397339035 0.48664169419764575
P 8.558588865944833 1.7743715156902136 3.491247208751866 0.2868716065514221 -0.21368309818289005 0.2515171383115281
P 2.0324666917664906 3.3020827382235853 1.7621408083775731 -1.5946488313617893 -1.26071575254619 0.7891065272016345
P 4.652087007516519 1.0693109397986758 8.481800413060512 0.213635018553774 0.5414858957310352 -2.265997548224949
P 8.529453906930785 1.6034639267193687 12.434304361840091 0.021032395190267002 0.358900290283898 0.4642237315137618
P 6.427617402869194 7.704929134584815 1.2715218602770006 0.31351492017056326 -0.47229468144735437 0.6291013781581747
P 1.8935369384816667 3.5090151879517006 5.980859333868544 -0.7370488872744467 -1.0158755120342053 0.08372308935126871
P 7.0887944652924 3.921467702819308 5.986610274193505 -1.6521605524250127 0.5339731322937578 0.23378115448434578
P 2.310643079493842 8.450215510010043 10.11518154256609 0.3660448717484793 0.596278932311515 0.8822938472895967
