# total energy = -340897.49316014786 ev
CRYSTAL
PRIMVEC
9.01549596866122 0.00000000000000 0.00000000000000

0.00000000000000 9.01549596866122 0.00000000000000

0.00000000000000 0.00000000000000 13.19508965044168

PRIMCOORD
 96 1
Ni 6.273495852875534 2.084328533318924 11.257614430625623 -0.3280539943270027 -0.2615755509887947 0.6645998281751007
Ni 4.592349306712659 0.27327410214170733 6.006575872165539 0.10000614278200841 -0.4121930881697675 0.19121962697305134
Ni 2.8101390527610657 1.4945618453247542 4.747738589023525 -0.37106495067088996 -0.23699863298037896 0.6893587802873353
Ni 3.4376806681089134 4.2614445492927535 4.776451140010636 -0.3351273562340164 0.3887369140293563 -0.17106294951951828
Ni 5.173461118749901 4.441339752255831 2.700902798040101 -1.2200946365907182 0.19401955831569168 0.017825972437827364
Ni 7.065687467808162 6.086640687163761 2.4529406018740945 0.9273717134648416 -0.4094795458933464 0.10695146375159001
Ni 5.208468288896519 4.62734746136349 11.386702807072792 -0.8175431852757726 -0.20530875807626575 0.047373604187957115
Ni 5.619115106565419 7.821456479755381 12.293838387110062 -0.6363853134140975 -0.2280635352742782 0.46788961040112326
Ni 1.8409462090134587 6.432772616970388 0.4425328231735513 0.09076739779255981 0.49279254429038993 -1.3362064266853375
Ni 2.7337687879369588 1.522545944252157 0.4759442505656114 -0.17604369056356134 0.2779719900689471 0.009483771120719152
Ni 0.3999138699327296 0.10532533264792768 4.943157574184766 0.2549356770747739 -0.09561804101664177 -0.2849682188811221
Ni 8.641010124406007 2.0997360156214144 1.3635017799486464 0.04834111030754901 1.522192316063275 0.6269470508193331
Ni 6.828805315966182 0.8458942186957908 4.692952322666589 -0.18245730739938898 -0.5650297444892464 0.2715820273822033
Ni 0.6378436223853294 7.325793536801234 2.3872419794147963 0.2223765121918299 -0.08700073166127598 0.678350859212606
Ni 7.461936538702879 3.7120492514393413 3.860263100652165 0.7724267525531083 -0.2189140075645262 0.6763803657497964
Ni 7.751838821276836 3.651149577388244 12.497319930154928 -0.027419015442901165 0.6790877373786305 0.4141682096182674
Ni 7.814974338283473 9.032715385423337 6.917961356917493 -0.27140847791881645 -0.24144869833193253 0.16453723258585856
Ni 6.68380909720026 0.7376316375199804 0.27438390967326765 0.6758270643494878 -0.00835402839165013 0.10069288443638787
Ni 1.8979782353713033 6.355004950299068 9.17561459986886 -0.3881298765729767 0.9785477221180244 -0.580033159876614
Ni 0.13343294386763238 4.927374145707895 1.3842707775965386 -1.3094664395873319 -1.2142014110347348 0.6206113384092925
Ni 6.217671902953344 1.973203532230275 6.963273238750331 0.7101116965639706 -0.2449520834995007 0.4283920665271332
Ni 3.433434369592545 4.4266715406079955 0.4959442264227474 0.6515759051116068 -0.09603944482477654 0.16974705892157216
Ni 5.987001427709618 5.763876922440839 4.65782704952514 0.28762262578483366 -1.2699604110729097 1.2280311178289756
Ni 5.433666358196645 2.978431312644386 9.012853346651763 -0.3000590517759736 0.36872601812506817 0.6279083862913379
P 0.08070761984793869 5.485857063316083 12.501014480329042 0.7479472793545054 0.28820678042307785 -1.0399482367126927
P 3.9043407611115613 6.173802500446663 12.46983438814463 0.6476120353678525 0.05419216977168731 0.1741888967430097
P 2.404369618313727 8.375747191821931 1.5481138903082503 -0.05694967791216644 -0.1899937249857502 -0.8651350761221229
P 6.368600317948077 7.756445739624743 5.847878804449885 -0.4902859758184524 -0.1589311992529908 0.0017226391180615495
P 4.695243160146437 1.0533885589161038 12.659408627386204 -0.22624473689798455 0.5979594053377315 -0.875992330551601
P 4.002862099087933 6.199794174804814 8.22543633828871 -0.45522127090483533 -0.10921840540889576 -1.676382915307487
P 4.765203407464945 0.9046779558853346 3.75132435729222 0.057513520835436434 0.6813608496835233 0.409846699424778
P 0.08823465728173009 5.514120642612928 3.615573529457373 0.32901455846805916 0.3193338408451855 -0.15226741407957003
Ni 1.496391990969813 0.9413529927528197 2.6247146462309208 -0.3885973031276985 0.7030591605925635 0.5263079024390162
Ni 1.9107171309204076 6.279734575961154 4.71418291369885 -0.544572762186475 1.0022751476419514 0.13793119996255598
Ni 5.950461623278961 5.60276099720514 9.18804426391242 -0.025508942904381875 -0.11029492630252617 -0.32717904792121716
Ni 8.5543982563662 2.5041170637173296 10.261966516036336 0.9102587079336387 -1.1433752322507922 -0.2162500875791179
Ni 2.397598980976588 5.146558879317113 6.887242858117449 -0.20284692679933453 -0.28481729512555465 0.24769030836627023
Ni 0.4776148219352144 0.039985526921010456 9.273468791156883 -0.22357850291973108 -0.03177189309495818 -0.3932782535431356
Ni 1.4047765227674078 1.1647299319036757 11.459961824300299 0.6961374937720656 0.4741031954110029 -0.41349843724475244
Ni 4.165357395179268 6.987739491221073 1.42126947076283 -0.11257986568196096 -1.6866177056616176 0.18200427902237043
Ni 5.62464160548375 7.848575091087091 8.186008870557004 -0.48634730288567857 0.1308382976715166 -0.8075626770242931
Ni 5.091293890133809 2.698950943201898 5.037278448666785 0.5422168603597888 0.1077158527214403 -0.8341342568652343
Ni 0.5677661736215726 7.526379302598844 7.175911820867542 1.1757209955713495 -0.08887737985869855 -0.8198888026898138
Ni 5.029979503276443 4.717655682676568 6.866262897868106 -0.5108368033866105 -0.20920346514498164 0.5498504656456467
Ni 8.084321290459723 7.008844766861874 9.120881524937074 0.5069462100829527 0.4793225348284132 0.24468288899851406
Ni 4.523362732939307 0.4236678982361834 10.450893442680302 0.6592609324606905 -1.0656194162265518 1.033109873634621
Ni 7.975504256292923 7.307897777661126 4.340682643327172 0.3628698164546073 -0.1725217934532319 0.9334405453667407
Ni 7.2948613707510015 6.082367342160026 7.041479960066548 -0.04255612819465575 0.1634357719915637 -0.9712072225925531
Ni 2.2232032304444753 5.260298374184418 2.4365657568735015 0.6977246357535273 -0.4151485712536657 1.5617729065693748
Ni 2.329658204714698 5.200949365408937 11.291024956468103 -0.29433294792547376 0.5670922834452299 0.9871105240863709
Ni 1.145734282277375 3.1868876062653286 3.916236707804444 -0.5954988596123808 0.4064217329036291 -0.9512580331641358
Ni 3.6583800050105943 2.581136444238206 2.723202626872875 0.01057391886110437 0.17437221639840936 -0.44568762038278725
Ni 1.1480422491992226 3.2754468213954433 8.222651451639651 0.7878119767599271 0.5054151181504071 -0.07611725197955278
Ni 3.7556481890723687 2.6391060821580514 7.282554317450166 -1.1281856689945473 0.20504264889907267 -1.0030115115873435
Ni 4.105124867816518 6.799811481510471 5.867579465846844 -0.23396267436753257 0.663464943239709 0.49894699392756015
Ni 0.6954210862383763 7.292246876972347 11.330874349402707 -0.11861964411813765 -0.27277219103556244 0.09976934418085398
P 0.3919748243414052 5.485000591216179 7.817338201279209 -0.7541742341008237 -0.19734476603418272 0.6180384354757936
P 8.71098840271609 1.6942190150561525 8.020727786267033 -1.5289784857471733 -0.3915533004322289 0.9705793592005671
P 1.95505533920809 3.2161428900989053 10.46856201132654 -1.4466232232777085 -0.5398905262194572 -0.36258725221718197
P 3.9534932441502857 6.102426820289366 3.6392851849306207 0.19006674431553072 -0.0007589896532115961 0.20488941115066006
P 6.976352920040239 3.9491928526591864 10.249615286806137 -0.008402365131082303 0.5744296976469074 0.0027886184887306814
P 6.382448119479162 7.737882833796289 10.290111090788773 -0.26579447416614865 0.12147665395095854 -0.701748669311256
P 2.3084988360991647 8.42388092383656 5.777496631928478 0.47377178021351307 -0.7535067757201539 0.11863995583311181
P 7.004012461119256 3.915285572998761 1.780822769149749 0.2496505174164346 0.18960934506313798 -2.513259767914865
Ni 5.4274005886236605 3.0717416940550235 0.4182477821681568 -0.08177110783122046 -0.4721612411932836 -0.1767358315345795
Ni 1.5377009926725704 1.022258051958526 7.038749166392221 0.052915359941792736 0.9752112015456237 -0.1426208921287415
Ni 6.847900136046155 0.7252722943435705 9.201041002641075 0.19715347595898303 0.32391169002385506 -0.1734155089120949
Ni 2.8060009401941595 1.4769185200667234 9.342360702224457 -1.2569706836814611 0.7952208676294885 -0.4220542972345635
Ni 6.273694193782881 1.9085083344522331 2.453495054865085 0.33811189278363707 0.22230117886920422 0.5289198861405665
Ni 3.9824690476144196 6.907537640686868 10.235813464303572 0.834827169167201 0.644240033571826 1.5104979104444825
Ni 8.169175136820778 7.262378539425154 0.30223097306468566 -0.8358478971222314 -0.4108910815288924 -0.15081551212439187
Ni 7.695032182313703 3.820631882715642 8.017323535057308 0.5043864197755765 -0.25067021693020053 0.4976637563397623
Ni 3.0127983825900233 8.320941992923839 12.464226749764201 0.5759152810534984 0.029817854692380907 -0.28343352740415056
Ni 0.1652062556749279 4.848804099911402 10.061981182258238 -0.19814617888955552 -0.017366516302905574 0.12591180690417672
Ni 8.487539339598927 2.315621077772054 5.874981187889175 0.34270465436064207 0.22343169292922163 -0.20160559819306567
Ni 3.655359813921458 2.8673964665136222 11.752430818525232 0.3587845906416402 -0.6861125054358957 -0.4286969993620617
Ni 1.3416950987355016 3.4878519021717347 12.76884863231199 -1.027983865261965 -0.32882403972380786 -0.35448930570039594
Ni 3.054161477267512 8.413080359881974 7.967695935390531 0.4426030679201926 -1.0641754846911735 0.29448001502629934
Ni 5.659207016336733 7.835313296782256 3.6452354121510093 -0.6588765525380783 0.7209823207298873 -0.8248505175704632
Ni 3.2150520151085002 8.272727121447115 3.697514469129174 -0.266044899614058 -0.4578497096666179 -0.1081493407144331
Ni 3.3834163989581283 4.359019260211336 9.273561650763504 0.9788241157078625 -0.6851228878291168 -0.5673892458603582
Ni 7.286116339836189 5.960117219268409 11.30513060117874 0.3638206104036509 0.23700377518670154 0.21880036480479736
Ni 0.6444555869965913 0.02421832633655988 0.2758813835237321 0.290842418273712 -0.42694684944017436 0.4209623497219654
Ni 4.511949115271108 0.3001538028350228 1.5862341111506268 0.21680981673732985 0.269674011726213 0.3842891626706479
Ni 6.195971604590504 5.480240409439868 0.24255740644082022 -0.6467160059161443 0.4892950726600928 0.7478554909716475
Ni 7.952767175914407 8.959257125738905 11.29460050209781 0.05068055707400304 -0.041448754063089906 0.4209664634870234
Ni 0.06278301112130788 4.748804220625723 5.659967924181281 -0.10574947302368885 -0.19131989999634147 0.7060092443598228
Ni 7.819148512833533 8.833626191926612 2.3996058303391004 0.1003450141786659 0.018099023593555925 -0.16027897153013687
P 8.524926600633702 1.5527117931603687 3.4919620667016966 -0.2092255766321687 0.40888819216625066 1.326317963927032
P 1.8180468497107518 3.192188717788947 1.7185815893253278 0.0467331423904808 -0.26280659518241833 -0.3443589021346134
P 4.702978455532943 0.9593028448676584 8.30805073549591 0.6467491731469248 0.08203747411872968 -0.6913326161842546
P 8.583680586687143 1.6708418344766565 12.489099601095006 -0.5951103659247107 -0.34869326784390914 -1.223601878413028
P 6.2176989494407096 7.773611243605984 1.3428644085392658 0.5045044334106795 -0.17431565212886108 -0.5095255407743549
P 1.8062996586983788 3.057984047481822 5.98451405242158 0.690487751685456 0.4691777330849275 0.698207746037533
P 6.8055994298066675 3.9714971892398547 6.004465344601459 0.31836376362243235 0.10517431724650919 -0.7749857715295363
P 2.273013844675757 8.421960623233614 10.295758397350669 0.7443711319674728 0.11039031422980987 -0.22923955786025035
