# total energy = -340868.053630755 ev
CRYSTAL
PRIMVEC
9.22414924260811 0.00000000000000 0.00000000000000
0.00000000000000 9.22414924260811 0.00000000000000
0.00000000000000 0.00000000000000 13.50047480785127
PRIMCOORD
 96 1
Ni 6.261472461066292 2.7743566101229202 0.5510073258814037 -0.17372095596765566 0.5873109244849498 0.24578692069597027
Ni 1.0964285069446884 7.2192989005785915 6.009587693624326 -0.40465332814929666 -0.7632916230210596 0.607724198033979
Ni 8.595652666432551 3.719776568822191 5.61556339749213 -0.3854641568153555 -1.453204218929336 -0.3589514552368076
Ni 7.376681335992635 5.772500306494821 11.290852239308627 -0.31664472404879657 -0.36779913543542464 -0.04858407955629052
Ni 1.0607863940364795 1.698516404423346 6.023358426119322 -0.6444300380954451 1.6879425951206286 -1.944275152542929
Ni 7.869112546552869 4.820678788179014 1.043960623292208 0.1479019380220227 -1.4453551551985624 -0.5799305728604787
Ni 8.633314868038196 3.762069293378128 11.037137400644875 0.35852130967792445 -1.3963661268943692 -2.9967760291096517
Ni 0.3434362941077418 4.327970853139678 12.895693717896563 0.8884431547204441 0.1410350356988603 2.601420067101881
Ni 8.503226690412816 1.128888288343236 11.268603591188908 -0.6657645379071631 0.8937481118731252 -0.9203508020623181
Ni 0.7651560985232964 8.490294433089495 11.970641603274057 -0.4923431154577972 -2.256644389144823 -0.6512074660285947
Ni 8.177734133944913 3.6245556755635366 3.339072866698987 0.3753687202525664 -0.4937528513211303 -0.902339195976246
Ni 7.751108004514898 1.1865299973399748 4.698597172148954 0.33142985277777115 0.6265683273236757 -1.4633096827944543
Ni 9.01900422285987 1.9254950463312919 1.5246624055982807 0.0682779584407921 0.9354658033268857 -0.7001070199427749
Ni 3.616530665669607 1.8841339608549952 9.334795741505422 0.2658242989628196 -0.14835933727441547 2.0772564646993774
Ni 1.7616188098076782 5.513762918535384 3.259635415313323 0.21133773787916507 0.9451742888639013 -1.4245708714633594
Ni 4.578618662160062 4.217779165561659 10.29702855713994 0.23704825527139178 -1.112492940849639 0.13664230594780338
Ni 1.9830445138349968 2.464849504397752 11.217098708723698 -1.1694043093247022 -0.7355090535911527 0.09781864821238637
Ni 3.719785792971495 0.15352858583509682 10.99800025756562 0.8403442423306883 -0.01093464463463278 0.6954769773699313
Ni 6.783605432383367 7.237931682171393 1.2428305150280041 -0.6986008677108937 -0.6121655216347844 -0.4721931228724835
Ni 2.5208400906691883 9.061970310314953 3.296181494853262 -2.0747249565267754 0.3937307676995219 1.0290665568031827
Ni 5.26350252378574 2.157869815581707 4.932533589876429 1.3508403745484283 1.1633069381777128 0.13474174649098083
Ni 8.709358754895153 2.667660875130877 7.726051525347233 -0.280247159256369 1.0692233315277264 0.6299341584721151
Ni 1.4300567630981604 3.6485938086481102 4.324040443121514 -1.4823438166077696 -1.4873680092952384 -0.42506145949200347
Ni 1.2870547764480655 6.90419273622628 8.401777651544528 -1.7802310575434048 2.2539696705261374 -0.5460760862048789
P 8.318900514883639 7.141161131829772 7.9228616645435865 2.314964465041955 -0.2886641796754706 0.36798759729714686
P 2.187377869203177 7.2720702587431525 1.8678717856331597 -0.16489127349116764 0.3621689337328408 -0.16537361244422485
P 7.060615860112774 3.7964108012345625 12.376790121250599 -0.12084056302885639 -0.25132919067043813 1.0608487343107857
P 5.010585574036727 7.696897679059012 13.248218566312913 1.2189384114990878 -0.18207447013867353 0.12041633100724422
P 6.050940477366249 7.7369212628863195 3.189014405831817 -1.998776883135235 -0.27349158570009025 1.7020785203013786
P 7.083353388145572 1.9286128087958296 2.424023419581051 -0.5505554621324712 -1.4586336174750234 0.3785751430050061
P 2.8661461198407223 0.5174055947990993 7.600268258201733 1.6176188098944013 -0.2269852146084349 1.500813336166867
P 6.704047144641828 4.522480489499772 9.324318952726658 -0.5548923989449283 0.13272574450221658 -0.49678701016176374
Ni 3.933583125524929 4.336613881036933 3.6436699577499727 0.3386574808744619 -0.29578099322590995 -0.31870700589446405
Ni 5.844596257449935 4.883403003441907 2.1110019129713002 0.359152258393704 -1.3613477018376556 0.9885107468680073
Ni 6.071169036788533 1.4263394309289035 12.129150307318042 -0.9615959247550341 1.5126812912490466 -1.2378013098418619
Ni -0.04187210334770301 6.5884962263185525 1.4811373346954144 1.4774965158177973 0.43986150061931345 -0.3847568463356857
Ni 7.177771780414835 4.990200204076286 6.916387984020261 0.012136635362533937 0.21297604481353644 1.3930838565986718
Ni 1.8670139397479466 6.309576399683349 13.140322769496503 -1.516063577457718 -0.23708270805375298 0.23436196668848025
Ni 7.676097222379919 7.452273239533725 5.372999632921216 1.2305114610486678 0.6026609245784589 -0.4773517842552876
Ni 8.781740654478671 8.577591782096558 9.48835015495857 -1.2376411301149137 -1.828150506932503 1.6277044762651773
Ni 2.7082932528122075 4.878089893443167 5.608705242485076 0.6013008110061386 5.346048266294542 0.3563944931429088
Ni 7.536185325746453 6.0087307701540436 3.3597008317861063 0.6354941690583958 -0.18711254678321323 0.44433496300963476
Ni 4.858719179906097 5.666330348013069 8.40696162345302 -0.015129656552586848 -0.37689672686131864 -0.5644476467335311
Ni 8.514636963101081 8.901018129120507 0.5690829688562811 -0.3419873165786433 -0.09219101761296382 0.7104194576123765
Ni 4.867288414608925 6.37429303119577 11.110431568594496 0.09888642735526841 1.2921518595682844 0.20640584779518645
Ni 7.599250834533572 0.6224797243436105 8.143918402598771 -0.874484635657823 -0.22233871697535904 -0.5706020963707011
Ni 1.5973182624161095 -0.016045407713206457 9.735597020130802 2.4076668750736987 1.3782506482405812 0.34034541009984615
Ni 5.627690386581266 6.058347469256853 5.0511349343743275 0.27204276906870567 1.318464529320884 -0.79213657227721
Ni 4.157268746131573 6.0838799145285725 1.3758870238992087 -2.0450040324235745 1.353548774618527 -0.43221683958986207
Ni 2.3943585554214235 5.3451823658670525 9.266510286627529 1.2914463488608274 -2.1842801764497994 1.6248454095498275
Ni 4.432646499434283 0.22850800586244377 4.351230468023048 1.7857368178529827 -1.3980298877500374 -0.679876551828513
Ni 5.160247396483853 9.257263999365835 8.460436784209428 -0.38252358612979287 -0.3882291211550024 -0.02270875445142541
Ni 2.993042741807139 8.536571990144488 5.8578559720735255 -0.44574829841739366 0.8998400837034761 0.9505568933320533
Ni 7.094044177188175 8.667647151745328 12.143191307387626 -1.4643445518168716 -1.107474661699441 -1.3029247818140721
Ni 7.996470375984453 8.372566615530626 2.982592703061355 0.2605987888978222 2.54635217959346 -0.39087941429365586
Ni 6.16631613685276 2.351641519997532 8.979665070910873 0.12484402776129468 0.48646840184457507 0.42809047612631435
P 4.301488320489712 6.994986037819318 6.625371607988622 -0.0008240385631921291 -0.08203541723620066 0.0179054195255111
P 0.28816426906703785 2.106841821635482 9.628592276137097 0.49751488946672384 -0.3592859557580909 0.032888780308220775
P 4.142224158617782 3.933417090837469 0.9079016538227576 0.05666968477790241 -1.1907377806951556 0.7577220993530821
P 8.202731578557037 7.110398593903044 12.837493947866971 2.1293033059932873 -2.3314128404059655 0.9208449680899173
P 6.44859355383439 0.18975274256434838 10.14800965789926 0.7511035655953 0.2637453049466038 0.17713023875952075
P 2.4502015553040057 7.486725437181801 11.121663815201208 0.78874554431779 -0.1984343995539357 -0.37248291406433914
P 0.07838958802480163 9.121217021290478 5.537409025274564 -0.6301637579844179 -0.8933989560638226 -2.006124067528926
P 3.1701740808796903 1.9799913204155826 3.7368098829257885 -0.7532452945286511 -0.21946293808946074 0.35024569993269355
Ni 6.085254312774773 0.2681829168460848 0.7566763380687114 -0.06489361534959147 0.6983427289535006 0.47724611191535876
Ni 3.6850845432922292 7.567778037110484 9.311237264184625 -0.7191766349797163 0.022033325650955605 -0.3347319205678106
Ni 6.418421361463077 7.229445464812295 7.310426116376412 -2.410626986143287 0.661363323515674 -0.8495863297542465
Ni 0.8387666547940238 4.687168451162082 7.155953900067581 0.5211253297968121 0.5748870968993003 0.1388575684315673
Ni 2.988098597780534 8.263518722466225 13.28892289235881 0.28980060727275897 0.9366045449170193 -0.1463433352856512
Ni 3.041109783826983 2.825522966308695 5.791784313028439 -0.25487705592269655 -2.6582764139692925 -1.0726884072581913
Ni 0.8951197501330822 9.31777441879592 7.500134583024105 -2.002774948551034 -1.8837290155287556 1.2577276164521438
Ni 5.96020252066903 5.569476780327719 13.22086619638364 -0.34792630777089756 -0.3727433668145774 -0.3329935977204652
Ni 3.5021235418599495 6.971713509126925 4.329237328839031 0.1366916711285001 -0.8571823969339496 -1.1424018125939293
Ni 1.8403100275146997 2.4702825283374352 8.051925961596295 -0.16631257931872648 0.761264822399018 0.6977153797821468
Ni 6.600976500326008 7.177947039251598 9.664517570428918 -0.18965485358909273 1.2781365191257987 -0.10312103426190629
Ni 2.257444507311551 2.8573370572560073 1.8769843227299556 2.347815964354337 -1.1077171167275501 -0.02764090164572014
Ni 0.697041290407515 7.515597024501338 3.694607555033025 0.6357314818801826 0.39624993457694985 0.6145749024072255
Ni 6.214493868664245 0.12815018385674387 6.124733671793184 -1.0802482218833203 -0.39075420156970125 0.14698508263470816
Ni 0.745639643427233 1.5934902404552123 3.682119901706127 -0.043840908444350304 -1.7755627055334584 -0.7798289585544504
Ni 0.5054686231856124 6.314575888605774 10.907951344821363 0.9060711522148523 -0.20417772979561613 0.6323844197848205
Ni 1.5708080573182335 0.32461349503929154 1.290058159461242 0.010600658333981744 -0.14396994995746817 -0.7041444232369422
Ni 3.610110657754464 1.4260996030470159 0.06962941343139423 0.6637791320460181 0.709402586312088 -0.4325371990437583
Ni 4.90275526868037 2.309874571951888 2.4647139094029926 -0.34062488901347787 -0.5389109359150074 -0.4352664250494633
Ni 8.748155526865114 5.290566177841818 9.116600334564142 -0.7831073721954062 -0.35400182454101614 -1.1627055571482878
Ni 4.35425045450497 1.9770580409371117 7.299869077498709 2.597522274709372 0.26348742329952685 -1.1392848642315023
Ni 4.206119840842203 8.440677733986686 1.9961667886339665 1.2186036538674885 0.0531380174755601 -0.6670853136011158
Ni 5.085605580321009 4.128655434992529 6.156918573542491 -0.15829202300709513 -0.04936980868237949 1.427083353472568
Ni 3.6884144611907446 5.095539989120735 12.620000498687679 0.05829230798298993 -1.3994200832293449 -0.43675226556637037
P 6.200058075004476 4.134079234782909 4.190749640858003 -0.37193346931877236 0.25166883339804397 -0.15184318205795785
P 3.189480225371637 4.181528258799427 7.583283832089443 0.3967443577148651 0.16122616593475458 1.0134815578807321
P 0.6909183000999402 4.102578764911912 1.876903150216086 -2.3861842797198904 1.5726533009273045 -0.9019095646379951
P 6.996544919051589 2.117006834167792 6.566725389132747 -1.2285049721416004 0.5705028517886754 0.17727447764686888
P 0.5409225634480328 0.9580385949462771 12.931645762221367 1.175166665729776 3.816363755619279 2.6693493839540032
P 1.8920206085093736 4.620090437428 11.429110245972003 0.34161296395836005 0.10811643059396864 -0.2142196874126504
P 4.175698596439699 2.318268547817951 11.374865791163694 0.23442907248098982 -0.014505906925658889 0.9692251591655179
P 0.007524138586756256 5.654597230099188 5.003950643442816 0.2961106086511868 -0.012435397549875358 -0.4862894530645497
