# total energy = -340897.5376351139 ev
CRYSTAL
PRIMVEC
9.02651485187368 0.00000000000000 0.00000000000000
0.00000000000000 9.02651485187368 0.00000000000000
0.00000000000000 0.00000000000000 13.21121689982784
PRIMCOORD
 96 1
Ni 6.487771439127146 1.9978114512048677 11.48906905062194 -0.5656984884214967 -0.4802915836099019 0.20340305641312068
Ni 4.508473369870352 0.4874471467309904 5.949274837687561 -0.023976308309939354 -0.17280127236686368 0.08472890490796375
Ni 2.658877292428215 1.6918125979432006 4.724185411041621 0.5038997099471451 -0.8767592906246126 0.054476276671009405
Ni 3.297232422300342 4.343531864098952 4.705359711679894 1.0893537837290144 0.00769376909983191 -0.3935173661371352
Ni 5.156441738052911 4.638915535902338 2.750324011676257 -0.47458939101880204 -1.0626875872917376 -0.7852652990786734
Ni 7.311558263469905 5.956849888945885 2.511174624708707 -0.41730521258535225 1.4279423590387537 -0.20897129452951752
Ni 4.932484878221784 4.547242251131675 11.427108344768133 1.1729688867475088 0.01004915670588592 -0.15973724009405393
Ni 5.666295402584829 7.832505514746914 12.440817554717148 -0.5942724434044475 0.3751311503204636 -0.351404239017169
Ni 1.7718507050780443 6.510220381547847 0.3062200028753814 0.3646253656931333 -0.0122037411550435 0.11227493284703244
Ni 2.8301373585914478 1.6210627745843524 0.39814512741023367 -0.6703336453350842 -0.5773332444469477 0.8742252113488492
Ni 0.43503920153815145 0.013949576042200014 4.945896473979194 -0.021584925259627342 0.28364538630464053 -0.5153712009218544
Ni 8.645794502324383 2.385229468372737 1.5743018170788439 0.5491791506102349 0.6925783156658976 -1.0519228925760657
Ni 6.8859851680502056 0.7816068231213301 5.011688032733421 -0.5283383026054836 -0.08370483451882357 -1.2420953092315254
Ni 0.8510297487978931 7.2581574016440635 2.6264820332992826 -0.09273197771809837 0.197571280222692 -0.1111657589432537
Ni 7.536201138429289 3.9525212940225836 3.6643823030341767 0.36808555632759193 -1.308559097281714 1.0368359163359562
Ni 7.564011830668203 3.8907709059646756 12.622763209154456 0.5277916860733943 0.010071782413705235 0.15475547060874636
Ni 7.794034508475492 8.888544566063795 7.025473707260329 0.11814347581266749 -0.08976415333902604 0.29940624868332305
Ni 7.177893631638083 0.4330407311513628 0.40220074053030647 -0.9204053094493375 0.9760727782149707 0.43226414788802975
Ni 1.961759550912033 6.27207384037963 9.014171989077203 -0.8475034790832888 0.9218659531552639 0.5352558556609233
Ni 0.19807332851172255 4.872151652994616 1.358773916810423 -0.4467862527636047 -0.17682710569680515 -0.05061653660528702
Ni 6.377079287577063 1.9951034967512247 7.04814470194623 -0.1477823817250229 0.2588717789043864 -0.2211881483106836
Ni 3.4505206974062306 4.3417446141595475 0.3123544223643675 -0.9935084571929147 -0.15693756586172972 0.6454191414815916
Ni 5.8840871527764955 5.641490539789459 4.8364021409491045 0.41991436807342525 -0.1847731000167592 0.018874211196683623
Ni 5.207495706018928 2.852378691170703 9.353568044615649 0.49534230729543727 0.11106908546438936 0.04369924066016345
P 0.05901986731715077 5.61009632115689 12.413589975337251 0.3314545353681195 -0.37986352279912644 -0.35313613410661115
P 3.8738642436590975 6.157807188950738 12.51782636346985 0.3448651523470706 0.09957471167154464 0.20133948901587262
P 2.254733143251677 8.482622193462698 1.426811272458205 1.4243790671675276 -0.39801731089001774 -0.09373316528910308
P 6.368765867404379 7.790784963131119 5.740168400080212 0.24216629322424746 -0.7014681619563597 1.6169873469579892
P 4.610184139149186 0.9153788704798133 12.52196140992056 1.4086256609880128 1.7648149800986508 0.5331976875803139
P 3.9627302823128177 6.311158649660546 8.160001013113083 0.2439151575945541 -1.218673073652843 -0.7346947852199733
P 4.753209266875767 1.0130818671672555 3.7147692115531132 -0.094532778372263 0.7938137028693167 0.2485968793409396
P 0.19640703387124753 5.4458769365731285 3.6153818671955054 0.5492881653842734 0.2106725934913404 -0.09388691725814798
Ni 1.340247897741566 0.9289998813816379 2.6764735804679876 -0.12899507381519076 0.41199999832235495 -0.2488280215151392
Ni 1.9516588807999442 6.454228909961355 4.7954208608991555 -0.010119862042821282 0.35867403320570485 -0.02152167612185971
Ni 5.868642785875885 5.368519704347391 9.142941541908323 0.005445596495603524 0.584799985137638 0.4014695311046763
Ni 8.62756094233652 2.3378222124042916 10.270994128662418 0.6239167486334416 0.026074328489548642 0.23111209229261487
Ni 2.45333452288186 5.1337942123056095 6.830436898342625 -0.5190440217877513 0.5029334893791337 0.6695327467003437
Ni 0.5487534302585004 9.028229883297548 9.16123919015159 0.18392103642910904 0.6511362464710271 -0.03132966335121701
Ni 1.773186629275175 1.11764501513726 11.444414881681364 -1.4698449128098106 -0.23882720154868545 -0.22337024356366691
Ni 4.064413972047115 6.885786584723605 1.4617547167280152 -0.13276405393931975 0.8955807942064897 0.10647915210086178
Ni 5.566615599146228 7.87274571792805 8.119786084173516 0.3166357251877321 0.4576314230082248 0.10657248314561646
Ni 5.2203675161885785 2.8175182908374716 4.850828316975146 0.06932182632427415 0.4041103111616331 -0.10125827002155466
Ni 0.69353872837995 7.619867904532015 7.118415217366782 0.7518604983659826 -1.2389490502930598 -0.4038956240476657
Ni 4.869443698540974 4.557478318966446 7.069480675086483 0.8505250395184318 0.5049047541728917 -0.45518064747488707
Ni 8.043870386368601 7.138980326139232 9.221363000234343 0.006354738573434217 0.10761686524973078 -0.6847917297419432
Ni 4.651020092310123 0.534399466351223 10.38804545992114 0.11810259527240304 -1.2473174768624133 -0.3776755140088721
Ni 8.258981261651162 6.995007414353875 4.920399277495175 -0.39304839692051663 0.2901088825417971 -0.3494057205299015
Ni 7.060025400785846 5.916257651685775 7.034774628157108 0.375751814623598 0.9876113749821893 -0.3243521199953833
Ni 2.447620738984673 5.198938569945417 2.5256937738376566 -0.35784356688460955 -0.06133932233942985 0.03663230651105304
Ni 2.206576686551058 5.168266472500486 11.376892037379774 0.2965590090425151 0.669265609081886 0.08396065928337153
Ni 1.1194683711360462 3.221003504430289 3.651910367472181 -1.0606566729046378 0.8401555233586498 -0.31380751171031757
Ni 3.6170057372162066 2.712657267877566 2.616310053719915 0.16201343772274032 -0.19576970823757897 -0.25727126718648596
Ni 1.2251056743726625 3.413340482757711 8.295296736177484 -0.5623097744549219 0.1136227051241785 -0.8694406454760124
Ni 3.5645797389936766 2.70979586267155 6.934316739138827 -0.4964931330704288 -0.3192644210598308 0.1445304504466285
Ni 4.247895939311125 7.070947483748872 6.009015923540866 -0.5105362414270563 -0.4344927801082324 -0.15457729315966928
Ni 0.7265532064272818 7.263681628729496 11.085730066569617 -0.12501732011436534 0.08200584954984586 0.32560167613176827
P 0.11267166625569641 5.611305874146184 7.981186656675672 0.0036998174490904027 -0.020864502153835035 -0.2024170383507675
P 8.61874203733249 1.83252693786934 7.968636190434521 0.09368251455682575 -1.1791189655093048 -0.1420742755966521
P 1.670681526689939 3.251224276132946 10.429462720638126 1.2513157993885287 -0.7388327186477469 -0.5163847297880333
P 4.113229364331454 6.281208673403253 3.621881860535733 -1.3167015238831905 -0.11683529852420524 1.127110690762814
P 6.972594577992556 3.877104762488624 10.391956648803685 -0.7819997409535241 0.4811942979298293 0.012094726381004976
P 6.273472950180679 7.928655950880934 10.286332885339338 -0.0323745596759636 -0.3225397493769929 -0.5961002406418058
P 2.4086893804561313 8.446091887883053 5.733602513181612 -0.17905110993131743 -0.09292455334487869 0.7485455750601366
P 6.812942609920607 3.85470095264215 1.5517499723889046 0.5948090326342079 0.2897913513013783 -0.14318242105916631
Ni 5.2577463141636995 2.9393581882217186 0.38897689628168275 0.2368813906762243 -1.364378004023547 -0.09449266916294694
Ni 1.5786652343551475 0.9982422767612913 6.95361813583291 -0.8526878514977057 1.4396012834339207 0.4858022290154859
Ni 7.043786700578833 0.806127350699068 9.140166791244823 -1.0391200843844428 -0.37220703469513317 0.6087048167796937
Ni 2.7970642081976202 1.5876375901115514 9.22141625667193 -0.8250204674894244 0.35417280290124165 -0.20084917964301538
Ni 6.543320611486211 1.7511438800225203 2.4884783557812398 -0.8522319949072096 0.6572850396812422 0.6115970507258242
Ni 4.134757602237916 6.696455435839726 10.365534234548006 0.2532588035929832 1.5263402767933778 0.1607299430246264
Ni 8.038815538055134 7.170184987960046 0.30170855075561204 0.015896359515282298 -0.6083651740520878 0.21180722131641586
Ni 7.553161959823941 3.8229727529602986 8.140883757321848 0.9919714517230981 -0.14365216160673325 0.5243140119374389
Ni 3.2291905533951364 8.286394787236874 12.489845070100355 -0.922383773331947 -0.12983968120367317 -0.2011127177170472
Ni 0.0646135985668928 4.848971562871432 10.178225024989514 -0.5540549906452973 0.06976405606801533 -0.10906696743269603
Ni 8.662935854015945 2.455997344761276 5.620593255270695 0.035364495542222964 -0.21536999896700973 0.9598131218229986
Ni 3.5652477010922423 2.6821566742146996 11.517275104211084 0.36740627087238015 0.15124617190390727 -0.4302170355510139
Ni 1.07837064904459 3.3850874912913684 12.553245505072017 -0.651888037035387 -0.3383422636268883 0.7058706618994295
Ni 3.0793774865047565 8.414796960913785 8.054377249648736 0.4642651262746585 -0.21969099493986677 -0.17239503806738052
Ni 5.666304429099674 7.907308243271381 3.7204640397691247 -0.5634176628071199 0.35001687175133916 -1.0553676565915564
Ni 3.095995300335279 8.459992720745086 3.6701556619293436 0.6543524394154795 -0.5516252981578823 -0.8894314867756423
Ni 3.3912164948714474 4.377850673541455 9.340621314372783 0.13690738668373195 -0.5080893225484604 -0.3211266710795502
Ni 7.115899527679347 6.064816033012634 11.252495830991288 0.04815470532835577 -0.17527467360802074 0.5153863704305058
Ni 0.639500594606018 8.812577417124261 0.10801037398949213 0.0364520721794469 0.6190437368118565 -0.27937401262279626
Ni 4.756702528120967 0.4170051275283731 1.5877368817748518 -0.6744306982225933 -0.6163211956743708 -0.5594113698612043
Ni 5.912926867707795 5.612136313511968 0.34141618956086495 -0.0994502702785384 -0.15043833129063122 0.1951133056005027
Ni 7.916515288413767 8.899574967204966 11.332858892660568 0.6987132249190419 -0.029682357555781136 -0.20261964127987683
Ni 0.07338827364818092 4.889789463002678 5.770686144121285 -0.10313440399834495 -0.43532376064996 0.6557454631082642
Ni 7.933530268897491 8.610654280030943 2.706714210503304 -0.20909342192967859 0.0775339298214213 0.0801939931520877
P 8.41699943053608 1.573827022397972 3.6085776803049847 0.4386893346880832 -0.32743410135481676 0.19319680530408015
P 1.7521999822594412 3.272752514039408 1.5162116807907773 0.9889084965270581 -0.40212233419732674 -0.08072492595489322
P 4.61889472597507 1.1832136189748041 8.107961349725942 0.5331485795099334 -0.929598031692199 -0.08176236608047209
P 8.650939615786305 1.6375722702367297 12.595732407798192 0.03692489805080738 0.18893648736582946 -0.890606223810034
P 6.207940452402517 7.737284809641978 1.4323995877990396 0.8171606051253733 -1.038503019625734 0.7024945463383451
P 1.740384274326712 3.313082982368999 5.816238451288984 -0.20772199550344872 -0.2640427815823646 0.8204174214997741
P 6.854933956981765 3.914167632444152 5.964283223921136 -0.25501126750771563 0.4268082669797811 -0.36805753130313384
P 2.397027123275775 8.394821283560743 10.197169874347201 0.11342678706328853 0.24663461340824622 0.1996173641184433
