# total energy = -340864.81301983946 ev
CRYSTAL
PRIMVEC
9.33696871217705 0.00000000000000 0.00000000000000
0.00000000000000 9.33696871217705 0.00000000000000
0.00000000000000 0.00000000000000 13.66559750553419
PRIMCOORD
 96 1
Ni 1.5166318572865813 0.39427031521469785 2.310798011433542 -0.395544423869493 2.7214666734745325 0.74956013236758
Ni 1.4295552860168599 3.6819963085920606 1.9125688214366905 -1.4979707245117493 -1.239175821591885 0.2115979335190872
Ni 6.989598841205858 8.148820868808366 11.765232440974009 -0.5354247771386198 -0.3360354698705825 0.9188572482359273
Ni 2.4700951028742013 1.6387780834661327 0.11470839681289251 -0.8277280962285745 0.19018347239905312 -0.6993269472436408
Ni 4.510783009448328 3.003450773112277 7.476968072582941 0.13171118719477315 -1.633672006702522 1.2387405338266797
Ni 5.222932295732287 0.9228305182638258 11.937378135215898 1.0683244738625406 -1.1631480440023452 0.7879842406717333
Ni 8.207653109379942 3.925924619166956 13.182204294104293 0.032536282064808485 0.27163396366606124 -0.3829740434036501
Ni 3.269171568926667 0.5170131737022199 8.622035255445484 0.6137549776090914 0.5525565517229 0.6561285574792958
Ni 2.31299126541073 7.78817111094173 5.009220283671553 -1.3598487486946258 -1.537371852017191 1.0050694225576369
Ni 3.2440644597540014 2.0555990457889832 11.50356388963003 -1.4948877147110513 -0.2629901719481342 -1.8568707576853312
Ni 9.137381780212294 0.6499286597254874 8.314627694914396 0.6456294577201849 1.9220559361334122 0.5679638874169057
Ni 1.3826370176670475 5.2049773046802095 12.620384874400665 1.5787139052990875 -2.0836387140766375 0.8079514278222794
Ni 8.081351932072895 2.947167525030154 9.180453217405862 -0.533627833139197 -0.5899236795174486 1.0809660738859512
Ni 0.3557431807486619 5.549558139197587 0.8563288914987107 -1.3633325934781682 1.1342107921427047 0.5047641148299694
Ni 5.780339997665709 2.830250001393069 10.749645673303707 0.26487479056535673 1.665735977116602 -0.013881900188414802
Ni 0.840225421364796 0.6071307957185152 4.708249629448995 0.18336593525658743 -1.6674395900712702 1.0702453450343374
Ni 3.4926986026171165 7.5816840453584255 10.043872603030911 -1.7378024560655492 -1.0055846716311587 -0.4554616690504156
Ni 8.832763172269482 5.507840562483763 3.1811463616242412 2.0952966100305397 -0.6728260727396348 -0.5756684551500151
Ni 3.381420608150835 8.919905102320984 12.644886947993417 -0.9352205200852989 0.5491647524325317 -1.231495422228492
Ni 8.060035632243517 2.82236026273524 2.126244419319003 -0.3831139114156241 -0.24924299756537072 0.6703917522665293
Ni 8.484055397531085 6.088609360419422 12.434887314737834 -1.0568090170237736 1.252169919858708 -0.6874317384679516
Ni 8.069223209568138 6.583300642749722 9.828981331807475 0.1774449417864621 0.37727725012918895 0.31351723416340843
Ni 7.883641617185875 4.188284106204047 4.839343472854342 1.2420521146984158 0.08986828301705814 2.3263284839045224
Ni 1.2813589168132338 6.592656285513207 7.216091296195392 0.37016712144696895 -1.4877765575875668 0.11348695087726261
P 6.920215825861091 0.9847234172165097 1.4468174739820607 -1.6478446986584783 -0.9336634600108243 0.7538960407387726
P 2.2008262589059946 9.168417864589363 10.665246944693234 -0.42449221725209474 1.984004352811751 0.5598741684302357
P 3.3697027122744148 5.806782293380469 6.021185241134314 -2.487854440467883 -0.3855297199459683 0.5047697712569243
P 4.6247220400299724 2.9714996657902755 12.814831918683057 0.3672522617930191 -0.45176005182911233 -0.025851670955781288
P 5.960291397845994 0.38824890401891793 6.400392224542295 0.08107768130862165 1.4382535111567747 0.30147392984562915
P 0.7278727417866612 2.8562908074483184 13.28491468597599 0.25258131790998434 -0.5304316947994027 -0.5897722415412487
P 0.14480238103543583 7.469388321290128 4.514388946808865 -1.8525142804888486 0.07532946597093478 2.2169853799923045
P 2.1523767276687455 5.66459893210068 2.031965310297034 1.1911887521896454 1.2971356859361207 -0.1383603170801746
Ni 8.140921793181711 6.509445219337381 6.173843747739807 0.8771071608823345 -1.0632663426133429 -0.9867019757940425
Ni 0.8576005866527892 7.7049693817347285 2.6828986278681812 0.7173925464961001 -2.0235630889409792 -1.9804163783501763
Ni 0.5011179179731213 4.376536071670497 10.723407857206233 -0.49657360859937705 0.29643071099476687 -1.4328642218204033
Ni 2.27489643260133 4.279534302538915 8.091742110982283 -0.13704828313697043 0.2787579763053522 0.9524016598502757
Ni 5.606429616315737 1.3459147192750454 3.4232595654593942 0.8513951008282111 -0.5452834151002544 -0.31016143031729815
Ni 0.9596256450126697 0.36557500892226436 12.63773949835724 -0.45090233181450734 -1.1597112504066545 -0.8391242538806579
Ni 4.676299455823876 6.162828925615971 2.3030492610049826 -0.4782994928805375 -0.39584987092505375 0.09937185163211919
Ni 5.602676154847752 8.494120649925334 2.0843727826195537 0.32067235715095094 0.03460730566122427 -0.003192024574736438
Ni 6.062269771361746 7.593467300016627 6.463663260093671 -0.4053243860743922 -0.9067252408590836 -0.7475942668904608
Ni 6.55303018981637 4.764655191822736 9.161498236992538 0.1443602434173514 0.1357287929945985 0.056586895256109
Ni 3.753424120109686 8.976253709184888 3.8431626611916525 0.41930347396230366 1.186925348927601 -0.9119080706116037
Ni 2.408368401966617 2.2641402445139702 6.485528573690009 -2.1813709732228044 -2.4517528096493195 1.7558631702220018
Ni 5.224071405929038 6.258299431860116 10.941060070111467 1.6661226710320598 -0.19978757114772044 -0.06705411333602
Ni 7.968888142565733 7.4870632032774305 1.5577556027830817 -0.5172871869976446 -0.8260280828183321 -0.6696263348554146
Ni 8.160594786497743 9.209892680113715 3.141925490374446 0.11065128120068041 0.3146698597106129 0.054230736319106604
Ni 3.3942215924110526 4.578037195900806 11.36142721319437 0.29852230341647296 -1.2515479700039929 -1.5714718790246935
Ni 1.5830457165447338 8.831717431760989 7.419900519119447 0.1385194683658582 0.9286248691456523 -1.7325031553398227
Ni 8.952164329614238 1.1131720973534984 0.8734678314754104 1.684732572823763 -0.8617751585109545 -0.4003801546952395
Ni 1.1160198728453776 7.014304460719013 11.395427785173643 0.5106701959017592 1.3100917318761567 0.802622045189566
Ni 5.7723849002261 1.3042251534676996 8.640156444542663 -0.9148154740663859 2.13790158918526 -0.48035277586514047
Ni 8.857646194190327 9.167782950709206 10.813355546389898 -0.3399088367830598 0.5550651770773666 -0.39951086471640873
Ni 8.718880163500794 2.2492104313614627 11.341817711266355 0.479268027441394 -0.43073794105149044 0.4900846584409237
Ni 1.3434030746608963 2.0618548149022913 9.5619141450884 0.6648679942348227 0.011938660419114924 0.5843143037504711
Ni 2.0526112157647165 7.2983257154320365 0.2549412653049655 -2.198887384840013 -1.5076861520273004 0.461390890050657
P 3.05782927955393 0.17796075842661763 6.162501198010183 1.3043252617060246 0.6178787699694778 -1.347142613981867
P 0.29283535328461 2.764228294825602 7.761936095934902 1.1522049147272801 0.20261886994892844 -1.4299853576107113
P 5.085436092803065 7.787536197061572 12.964962907827395 3.22359232224039 0.7211774674598289 -0.3268694871005983
P 6.635681037862647 4.751835533624868 6.694216362825561 1.2747516618139658 0.308349831029856 0.7977305214252197
P 7.014416504344923 4.831834682524607 11.319747918052732 0.12753263033705134 0.19951014911661769 -0.33117299957195867
P 0.40501810003011457 2.1585858119379244 3.330429553999194 0.6095080294072792 0.12478514949890121 -0.09256022802692447
P 9.083367415554848 7.922427385688386 13.487439141989611 0.6762731507479708 0.8292021096709397 -0.9281008783213822
P 1.725145045105091 6.032130035991956 9.549916140147204 0.01358133822886048 -1.405289140415612 -0.4331388371834992
Ni 5.64259169657819 3.702313552757074 0.8699421920467757 0.6950632868712804 -1.3505503541118355 1.1830116156954915
Ni 2.6456861386128225 1.9444797797927411 3.923680011861226 0.16254411341522973 0.6795459079619716 0.9238845262471895
Ni 4.744132534343555 1.0992600138030069 0.6337813058380912 1.2564821740808165 -0.7687184504635858 0.5958377310090384
Ni 8.02975584234134 1.7564612385469358 4.619915368478433 -0.6566975426088884 0.9153168391828365 -0.06635734437931153
Ni 7.215926965544058 1.9298767605491376 13.126790317819857 -1.935975631538298 -1.0978877893419543 0.02049503462955825
Ni 5.882915937186314 5.74751121527408 13.55788563808364 1.4482623015430283 1.0498366994709982 -0.20892604311387888
Ni 0.8657078766842603 8.002407860650475 9.36113943703274 0.009572217069467384 -0.31844526759264513 -0.2990318960630398
Ni 6.48080873594855 4.3751635372530995 3.183865286946324 -0.46703728970315694 0.6493020214757657 -0.9797905933861901
Ni 2.6004111767763565 4.8407234768468 3.9905728576201436 -0.5937037153851711 1.3564890881937735 -1.1186885281373897
Ni 3.873226767113953 7.430882661852392 7.345709898526258 -2.0333685050671755 1.2649069078094022 0.1254999161777387
Ni 5.382407723277519 8.849196237402948 10.032270485567931 -0.3679431172124567 -1.512074768013299 -0.29587972358730336
Ni 5.149188915945855 5.536252958620775 4.9319690046972555 1.2263940964461848 -1.5565710506534611 0.3021043643407765
Ni 8.84775834420377 4.791368259633445 7.771734311020732 -1.1949464194598645 0.3251748730069948 0.6775646158658847
Ni 4.697475701120866 5.195724368573808 7.858976146638671 -0.6855859435084645 0.9870094797321324 -0.9706783466722766
Ni 7.24099672684142 6.843241854860921 3.7902351197055335 -1.5257057285331723 1.326523909290251 1.088847276406241
Ni 3.6537893257692184 3.604826261246549 5.454992385232665 0.3270715758090754 1.3360004813221185 -0.039490344785138444
Ni 3.4346319934892593 4.418169615664888 0.20368877602620133 -0.8595015319854294 -0.6755820382182172 1.3353584768627453
Ni 7.1602786313420905 8.949363238966487 8.243634986144055 -1.5793039734746026 -1.9242591144323185 0.9688788315696927
Ni 3.3527000920425722 2.509637165851605 1.8437077426492874 2.6328443470494336 1.1426126430531547 2.100099687846138
Ni 7.511152582848081 1.9693441277759351 6.989037689379425 0.35558048188204566 0.32842731850602147 -0.17968437263994216
Ni 5.882617154183888 3.051284064407021 5.631196859823143 0.6594326821518643 -1.1955118050450313 -1.176328290138045
Ni 8.057636031255278 8.977859667822932 5.900108097885321 0.3964556228298527 0.4104581077565318 -1.4017893547924696
Ni 1.0743489809756837 4.379850695603668 6.1003776759275015 0.20983621363297408 -0.46879206761073455 -1.5203832878789945
Ni 3.71935352086422 6.306795647941494 12.789304645913228 -1.4593915786869704 0.655894844201935 -0.9664740787829421
P 7.675585940839832 4.77287172438947 1.4132277286311254 -1.1811899891057207 2.2730032901188206 -0.4735198121037071
P 2.904366859932534 8.902230220333681 1.1324613412507876 2.750665406525676 1.5624084832708447 0.39010525513179267
P 8.858766630449427 7.958673498670271 7.607965745209381 0.8547766157059344 -1.988115289656331 0.21085745580863685
P 3.7175981707249632 3.2775561669322655 9.42721249692875 -0.23982067581020636 -0.7044611831464125 1.1476224375629203
P 4.781844551431095 3.2542137448676822 3.662475507867891 -1.6502090851255968 0.04610605032944318 -0.9409247695589279
P 5.4673834765614275 7.042156638726474 8.734421548111392 0.9720580006286227 0.2685617524986407 1.058803421745983
P 6.921551012403185 0.8957280988530796 10.495629701609383 1.55613679132952 0.42527126150996436 0.4806764777531464
P 5.186181986433807 7.413926726464679 4.16703689994398 0.010313209000549979 2.102023130121096 -1.3079214636977152
