# total energy = -381168.18937161355 ev
CRYSTAL
PRIMVEC
9.23699990855286 0.00000000000000 0.00000000000000

0.00000000000000 9.23699990855286 0.00000000000000

0.00000000000000 0.00000000000000 13.51928305642187

PRIMCOORD
 96 1
Ni 0.7683197914155566 0.13378316352168015 2.37948810747745 -0.5576666192559556 -0.20415767519095807 0.004531569321766389
Ni 2.9141718433718156 0.4870060375063142 1.1172271390736839 -0.27433387909572754 -1.819350906363002 1.1051005050403095
Ni 5.370548737539853 9.434948749323347 3.863621812102735 -1.1896437763000287 -1.092306438599435 -1.2645528669040933
Ni 0.8916836191146775 8.189293135536793 10.870233503980527 0.9863021692524627 -0.3396231872218409 -0.5321929004648834
Ni 1.0149892537147893 7.012351563580043 6.123829769511519 -0.35759905497397126 0.6791692413488433 0.012668853716920116
Ni 6.587920657808077 1.837211557712389 2.202737191787508 1.1258367091463966 -0.9523996029677467 -0.006278376809544025
Ni 0.8518130329936713 6.678027591273561 8.366299916122378 0.9286302684622909 0.34038166265442027 0.9471766640059106
Ni 5.604882186549168 4.799184875270148 13.444237125245388 -0.8772182325389022 1.120193137707374 -0.5570009606474988
Ni 2.537874943780131 2.899457302622403 6.763805142912775 -0.611009039432838 -0.7197273652768638 -0.3237628231508166
Ni 0.7577092496962535 -0.1491285913603484 13.430569136578153 1.3846858623429636 0.6844528583452857 0.9877011064825182
Ni -0.08496284825308742 2.2114024213399395 1.9993125916518177 -0.7893962905279115 0.7273712549753667 -0.3692045004233835
Ni 7.217163561092105 3.993385956992859 11.337609069421147 0.44474608240512437 2.2114382249218303 3.145353138821828
Ni 8.341260256948802 5.58298125992214 7.348920126848298 -1.829869546506139 -0.09215322239649291 -0.6768249094863827
Ni 1.73402503246965 1.207839336430563 8.588287191141946 -1.310292277922737 -1.391916832873764 -0.9367451842599417
Ni 8.704588408761342 4.65304630075888 9.585820362554012 -0.24219688935186676 0.9998665382004587 0.3224775286804898
Ni 3.6518663618089184 3.15934029319661 12.35051353227144 1.209209614247098 0.2510666810376708 0.15015396728099303
Ni 4.382725500362428 5.666326709502771 7.9866518329877625 -0.05410320960230683 1.948361663907477 0.9539448359676796
Ni 6.799327873207824 1.6934561291605361 7.448611371350562 -0.4774965373632679 0.07596221445892724 -0.36303025329187155
Ni 6.252285031523933 3.9413446998791186 7.287434037395403 0.4489572922729945 0.10621921357125579 -0.8529621882050149
Ni 5.988984351007929 6.136129758502051 6.100630120706608 1.0154345678420447 -0.15381110441760606 2.0891038509562665
Ni 2.3077720406987705 0.29075396774847606 6.127668666646143 0.4057064520041594 0.06492009771215271 -0.7147970178547819
Ni 2.635353003120085 0.7580676452901501 3.532250908645963 -0.2847586739734773 2.6666268428165174 0.952524044360753
Ni 0.7753750118954066 4.471234432855126 6.323306475914443 -0.5718231132619958 -0.7430421287434041 0.18949621652404142
Ni 5.3043471596672624 1.2694870733807058 11.122706573280924 -0.6892237973713679 -1.2991277766654854 0.2705088489226825
P 8.850459110277173 2.7844566545808576 12.622400004141229 0.2513515592679413 -0.3208937291331377 -1.1093590232063473
Ni 9.295377681700236 6.762259792839091 3.947320115077358 0.10527021939442516 -0.749723911638954 -0.2000408248091071
P 4.203315252417775 3.406199113992618 1.2017632379340388 1.4782529343678477 0.5773391579842186 -1.234850197633338
Ni 8.030065732248428 3.0827563275008307 5.8557147646775025 0.22754494376664683 -0.823296542819782 -0.05619454491369677
P 6.167341580970516 8.817658523835764 12.377863365105675 -0.01379473979124721 -0.8782569582160618 -0.5483846797333976
P 0.3749843219140378 4.6415924209539385 3.480079409834441 0.19076068505876181 -1.3089275363647264 -1.1641075797021372
P 4.580535851993729 2.2381712468840678 6.225764681275573 0.302509313088679 -0.09644696467584035 0.8312510217801684
Ni 5.974122018261034 8.513872073009232 0.9092394610157024 -0.7536510146075021 -1.4607522064799228 1.2421061078648028
Ni 4.889624340729969 1.0531288260652747 13.780340143721574 0.38034689019344814 2.2697557297158006 -0.9834225337118224
Ni 8.778669147499752 7.631276738039781 12.57462346985486 -2.6063259890439308 0.4741489610472737 -0.19689662275317057
Ni 4.179299052826769 4.763936483870427 5.738043699981434 -0.5130523229806906 -1.391914775991235 0.18226653154482156
Ni 7.027786590317185 0.797752567714318 5.052656464253541 1.6194167823350885 1.5256908161348368 -0.29743446966893294
Ni 2.8153544190546707 2.5789518820805926 9.826815535849878 1.834045018040067 0.3080209869355276 2.1320754694217863
Ni 2.303282858775221 2.690202308186004 1.76411733055718 -0.4940698683409168 0.304756714361959 1.4243122184853338
Ni 1.9404535049541847 6.326993886251645 2.060514181509558 0.018723287441116142 0.0020406845791126147 1.0643652321044765
Ni 5.04184086113773 6.971514787275491 4.11352607174688 -0.825905698307855 2.2378203144597846 -1.2707322562419276
Ni 6.869787708007896 6.589223074785897 11.436583522735619 -0.019001480803167277 0.22219370675706251 0.11258192256448997
Ni 7.691843746008328 1.0806920335958747 11.93310644117986 0.48788945056181776 -0.3978920981660631 -0.9315407572408666
Ni 7.849242223327841 0.3454102195176832 0.9000449513722845 1.6676020837910634 0.4030240200759898 -0.055711691740007285
Ni 9.230266069809081 9.083314639311656 5.028280945368655 0.6204079641492348 0.568246451654331 0.36820845505870137
Ni 6.51487446305205 5.4592978320284615 9.0576219242492 0.20143667671536922 0.47827326762829236 0.16314420889307385
Ni 3.4717725758759057 7.166877333948477 5.796987767077621 -0.22847799710387745 0.2632948476727465 0.39724623705194806
Ni 1.5036819673923796 3.75396292107022 11.510615305374861 -0.7411243428954011 0.2216211220830441 -0.3917211934686609
Ni 6.158640327118698 4.111998271972898 2.2777831970094784 -1.2324045643063226 0.6408721455408576 0.31129657236300584
Ni 6.839610429521814 2.954047971692727 -0.08207536210226114 0.49910691654419204 -1.4717359591849364 1.1862365503906924
Ni 9.010896560544932 3.0118808277078366 8.111177675267095 0.6057593609981246 -1.3909662960350369 -1.225968578872992
Ni 5.729461603427587 2.7351403124207123 4.3910498846206645 0.8533365408252981 1.3202804994837003 1.930187564101611
Ni 2.4052778110382524 5.992438988949097 11.769860942959921 2.273667148955065 -1.0910640815519015 2.396506744691821
Ni 0.7247848874569537 2.424897198704135 4.2847200083314565 0.39549968667448665 0.5119102389564475 -0.0157156109630439
Ni 8.077017402448842 7.367458785532586 9.286868557445144 -0.012970444117738953 -0.41099906786166635 0.3903705929780374
Ni 2.938575996956214 -0.19419406619288584 12.230111086721887 0.6094288394299118 2.240652384591941 -2.2518299984753156
Ni 4.838626864598454 5.49079600149205 10.652802840983359 -0.9128467803757891 -1.2048353964388026 0.12336744321576817
P 5.750642044066885 5.084608170409405 4.280056247110879 -0.25379410727116286 -2.608493943229527 -1.9376463343725014
Ni 7.07161615457077 2.9318884090701034 9.561823560662676 -1.240926742844721 -2.2716591173861005 -2.697034765684413
P 3.1660186440828784 0.02730919003492601 9.95939881309199 -0.3878300859443708 0.01708112385200284 0.21182290504569973
Ni 3.012157937703118 8.234739174762849 7.935305198262194 0.4574190498871026 0.23149672932554322 0.15943924923766087
P 0.5981631699133145 1.5599907184334447 6.3346218007217425 -0.6225352949048828 1.6097682035017309 0.7761823629407987
P 5.209418512283891 3.303843918735722 10.74590995199775 -0.8515617083130624 1.2270052476676223 -0.6331801762132385
P 3.6476358158809647 8.299250381664228 2.978892730169622 1.1046469624426587 -1.5588536760400509 -1.5944125469812669
Ni 5.009474413688929 7.9156100671976 9.75629843165078 0.028290362304260953 -0.44405111322062873 0.5714842418653384
Ni 7.800443153158886 5.074022568589678 4.573627499811377 0.20086100671755727 -0.4065343472220934 0.6958940103026919
Ni 9.083203795313544 7.271865074160542 1.7263583226002137 0.7000877366690652 0.48250324654924004 -1.971772072411617
Ni 1.8517321214651048 1.8240026479373364 13.17555496862103 -0.34805126338453607 1.328791622278505 -0.31921916964419217
Ni 7.060134563766301 6.9823128400916 2.649306415082459 -1.3225806083717866 -0.4132552108856947 0.7023850173436742
Ni 7.280446247014405 6.511567617108366 0.48638346371691665 -0.7965262167044734 -1.153538031716407 -1.5609144152238215
Ni 4.555679085417038 7.1860718196215965 12.221972366160491 0.9702458871205485 0.40411442492669114 0.6488927018524888
Ni 4.642793230933489 6.695476283976411 1.3493039890214282 -0.028608921985944277 0.7289316574839511 0.7754141173162066
Ni -0.032878177240086466 9.03276053917259 7.53153838483832 1.7666852005381704 -0.22529625694178618 0.7029853699318345
Ni 2.015587261674661 5.308208225601509 4.682079114964453 1.1311650633378454 0.7979074133227162 -1.653394424832114
Ni 3.1152705669471152 5.145581606371031 0.477241604972602 -0.4882110955672947 -1.422910195931485 -0.7861057927020977
Ni 1.839095905680299 4.507766767232982 8.949089023497512 0.31689514949670583 -0.21648637195964007 -0.24531332349366136
Ni 2.7636734049347957 6.882396212793175 9.800952859990318 0.9693326312776596 0.35348631835717836 -0.5855450908337786
Ni 1.016938260681598 1.460628311125581 11.047660568058955 -0.9744041322632961 -0.6881040819446278 -0.595189298791762
Ni 6.881749622804186 0.1287702437070499 9.320788668267488 -0.14431782021519018 1.10803259108544 0.024163741730397092
Ni 3.942748723855208 5.083435071429383 2.8995884680201693 -0.3907788841600496 -1.0307483153809796 0.3756381718638692
Ni 2.639796000044421 7.383198633264537 0.005002759114803291 -1.1405375056916809 -0.14286617537032814 2.4204293169456896
Ni 7.331157376150797 7.431683645438841 4.926818967996547 0.3312339347168812 1.6135325556401696 -0.09905329195043586
Ni 4.964850467448872 9.250947712456874 6.361471911864487 -0.8924296501720179 0.19379047302402108 -0.161365005505464
Ni 1.861883584292226 8.031229594228606 4.117446254480119 1.2551876236391093 -1.5172082325851226 0.38275061453893433
Ni 8.270467890154391 4.474513567799282 1.6619930602963504 0.5894858206490816 1.130130451425744 0.6899699315087731
Ni 7.205552652289838 8.758671042840318 6.828319120914105 -0.9225308404327724 -2.215806529192855 1.3993151822203642
Ni 3.155663967259218 3.1672656390616423 4.297698916810426 -0.7330886170751181 -0.712755819055037 0.4953366508684824
Ni 4.397246064115143 2.01222499373192 2.822055862440546 -0.6219449696190514 -0.2542949581669814 -2.5968059653686373
Ni 4.193089893591912 3.4920108425312493 8.267325462807907 0.8257414048158489 -1.238569555466454 0.6781081470741804
P 5.7602115759039165 7.379457648328247 7.810765500483098 0.6857245259688578 1.2712554757352492 0.7730155351770429
Ni 0.13242070604488274 5.573707312080074 12.545678407147793 -1.0481798805938658 -0.6195091064840492 0.261200427037563
P 8.038573009103548 8.87098372392764 3.259268928594831 -0.9297373854835407 0.3874480200146037 -0.8984701999391429
Ni 0.7584639125834017 3.900748085570477 0.37061060248852207 1.6543650162754993 -0.10446263589146526 0.8485974834784159
P 0.8452566105053269 5.844166667474166 10.556018480331591 -1.0355485649831004 0.6897596152701798 -1.632190537060989
P 2.510487239246542 5.600282160627506 7.100854953872834 -1.4413367780677886 0.10709724530083492 -0.39627281739508524
P 8.928678024945109 0.25897406978968596 9.65406608849179 0.6852987512853488 0.44436581624757016 0.35834441778042797
Ni 4.761544100911168 0.9844794432343698 8.706106971535482 -1.1588136782930494 0.4782573267886924 -0.4424853113954057
