# total energy = -381171.63698673726 ev
CRYSTAL
PRIMVEC
9.21750694145311 0.00000000000000 0.00000000000000
0.00000000000000 9.21750694145311 0.00000000000000
0.00000000000000 0.00000000000000 13.49075312869520
PRIMCOORD
 96 1
Ni 2.643544157948137 2.9595848228931425 9.01685484662069 -0.0946523346692628 -0.24387119173049612 -0.15834524484253373
Ni 8.755055523785972 8.780062620469723 1.7319834049104308 -1.077374499879951 1.1492435181061111 0.4049289504081865
Ni 1.7923811199934694 8.726545774415222 11.367726563550342 0.2975367995747521 0.8599581599068737 -0.32769609676695177
Ni 3.7930502472713994 4.24165709891221 0.3697962444326473 0.384415403835867 -1.407110767005383 0.03685342138292363
Ni 6.65256059589418 6.316029412730235 12.075195118522327 0.22654221353374535 0.009422835975796675 1.9702296676251616
Ni 7.211897359979483 5.111476371178678 4.708029773681757 -0.0966300272209239 2.341191259948968 -0.45173331235623493
Ni 2.639073667018679 4.5038767400693684 11.683653853158372 0.5622087301006834 -0.4766820118817726 0.26230368740407084
Ni 5.44526073723545 0.3164047564743118 8.530338231898074 0.34870046693276074 -0.17270279911578645 -0.5350720217848914
Ni 6.283620657868433 1.3406034459202185 3.8394281340993746 -0.4691641062381726 0.29529222651494946 -0.3747210593662385
Ni 4.56750519138081 7.189415860233198 8.003173332742849 0.594433394462344 0.7399439494340547 1.089761046469762
Ni 3.5951135004277255 4.983509720511326 6.6756569033621025 -1.7409309743922017 1.771477222610175 0.7460066106883667
Ni 6.176043132842237 5.083796197444323 7.077059979541373 0.18164895256548072 -0.9404414021646061 0.5184218148227201
Ni 4.797786170536789 5.775533233098153 4.911807654756354 0.17520756781551117 -1.146031953147349 -0.14201642577552318
Ni 1.8863075170474435 6.593660725710186 10.459407607749522 -0.8641161479393055 -0.7109077101027047 -0.2501444263337176
Ni 5.460183881183475 7.85150939314654 4.048008336357987 0.5579368421982069 1.1958373067052501 -0.35046090126729323
Ni 0.9096066415386445 9.49430880839105 3.765471466114825 -0.10380880435755026 -0.7329191813767894 -0.7256810117571373
Ni 1.115714708400802 9.048015551025074 13.567245892622687 -0.03744683199254841 -0.5839934300759426 -0.4858338535843697
Ni 6.5703865203557905 0.6036517728307791 0.35049386287516676 0.07041608782971744 1.8692688742393677 1.5105652733473083
Ni 5.243471072436078 8.062673262637167 12.935743422176737 -0.40293763100977054 0.1873750564159805 -0.5002436012517965
Ni 6.907194228731867 5.461345287074428 10.043920180765692 -0.07004919140860194 -0.48940717275792484 -1.407574079795047
Ni 7.5174761543988495 3.4088092475077136 1.8793160379340539 -0.5030921264441851 -0.30803512800291466 -0.9345245224595389
Ni 5.022730213098632 2.477933208402627 12.385550425105912 0.4703367863900352 -0.2315908317012463 1.0093037723539584
Ni 4.835743864655363 0.4965489494187427 2.113866566365343 -0.8183209439820617 -0.3516706053046782 0.04077795324831041
Ni 1.3007745978662224 6.921416842142492 7.011171395496111 1.8676925308911834 -0.3761451934072748 0.9393980485017565
P 8.553708299326008 0.830810782341795 11.330478617476238 -0.391501621258687 -0.755008557076661 1.9209400773614143
Ni 9.397709334286473 4.348561745922218 0.4570639143784966 -0.6487962854839406 -0.13270029058091987 -0.7802135955873789
P 6.40696933749319 5.831418978469913 2.6352161403094456 0.829234762681088 0.5874546491516657 1.053350883271844
Ni 2.2413013668746955 4.788845188677874 3.4864824143433095 0.5076640620855838 -0.705595810971488 -0.27991445850729857
P 2.644604171261308 6.454467151430297 12.633753003260129 1.3060517574788282 0.9501275191041185 -0.5996329363854125
P 6.275306466490348 3.2512083116069435 8.463518679638637 1.0337822171112971 0.19253037536467488 -0.4521282338018085
P 1.8629687891435514 3.2364418652791254 0.9587525457400554 1.192313866933024 -0.4962331945408228 0.7439569272481897
Ni 2.218128554098082 5.7443872767050825 1.1487456449899005 -0.22161340877356026 -0.5526496256573386 0.7261006157930592
Ni 0.45498813178609665 5.519304971537174 4.931004956733225 -1.7926312309799706 -0.8456646261023372 0.8768695909502318
Ni 7.46634664267575 1.3900922413846726 9.54132178145622 -0.9511611025749555 1.544438271945669 -1.1618393524932504
Ni 4.9174109773048436 2.6711229391047113 9.997255629467807 -2.247410015030749 -1.807715121896287 -0.49914111221623714
Ni 0.8812379200260815 1.6476570414709528 10.160695856098087 0.7547293352733454 -0.19430109411185248 0.36536944294800944
Ni 5.110757405627136 1.002403893976415 6.152080379709635 1.0639839375056577 -1.3689363128181908 -0.6282822246909889
Ni 4.363208364658113 2.9633086957498462 6.807312400359288 0.07971936750851431 -0.48260891888916885 2.6579496267574934
Ni 3.209628137209448 8.045842094725433 0.8625826074649884 0.1551917868152166 -0.8649067621614007 0.09938059338286755
Ni -0.26366125926307094 1.434797150679253 5.448820538466287 0.8391610206558645 0.7008822075459026 -0.49683663245277665
Ni 7.215022094876568 9.080525698464658 5.282048183029826 0.11812419253895784 -1.0236775245771275 -0.02822737027680945
Ni 0.4365319173777383 2.016007059044153 8.006667689673483 0.14528789743794335 -0.9205222946431759 -1.3926580819151628
Ni 8.027923260979318 7.297122430358389 3.3959729471605726 -0.4496702591796191 -0.5652547160158587 1.8905300976109891
Ni 3.48401488770039 0.9664556163993298 13.152930932538293 0.03943558028780305 -1.1305551976679884 0.3251782154411045
Ni 0.9572196743141401 7.226341193559815 2.5666968797461074 1.9574625977674804 -0.26069134861162846 0.06221504007616382
Ni 7.488874229957389 1.6214147988396805 7.092938978972666 -2.7064748280513906 1.0802621058403912 0.8524394829323255
Ni 8.037878168616048 3.1324683855177096 4.043192188913364 -0.21852525676653978 0.5542000008635939 1.4551497726914808
Ni 4.383026004860866 9.369595937719778 10.614443311432419 -1.3490711984631476 -0.1570545510555682 0.2643991364805188
Ni 3.3654869642737903 1.1368504521147138 4.258882776126583 -0.08031046412529394 -0.5342891208722799 0.33676489183743935
Ni 8.748114740961473 8.81788205198223 9.546529672951364 1.2830876924834869 -1.3583783347966862 -0.39962733568961495
Ni 0.721205405759969 4.078212263528395 10.699664694808497 -1.1580004383631346 -0.011075283977555118 -0.7487029265736073
Ni 2.2264703979973803 6.709008609197275 4.7988636971133944 2.214877846730998 1.7790321521392976 -0.8558482515035585
Ni 5.740018178353406 3.4321571929186767 5.1006246001039335 -0.28535414146563115 -0.7066206526915766 -0.6058416362992856
Ni 8.415961873656276 3.69441370410412 6.265806903702926 -1.024812666622835 8.278952179340582e-05 -0.10675708835259679
Ni 8.36022360839765 6.362292080719822 6.891144705419759 -1.4948617465691223 -0.9244221439182144 -1.427136832418323
Ni 2.235770862632067 0.8748741531442302 1.8227896758208553 -0.24061000448072112 -1.2379782017393584 0.36217253327726656
P 2.9409101535672004 1.6689218302838593 11.085406304723348 0.5382393637692795 0.5322867457302705 -0.780543725233288
Ni 1.4333223495478853 2.0563797400153407 12.547749975284427 -0.25509739946361876 0.9099460617892264 -0.014394063938142954
P 3.4821252987508253 0.9503065440108546 7.813668761367769 -0.2991087720475623 0.15584150458407353 -0.6681968014977395
Ni 5.864343913727694 7.271774285913008 6.262124509628042 2.172417620684259 0.759433425617234 -0.05686508861816013
P 5.344716170104464 2.3945792919591447 1.1634908910514554 0.23076627891742194 0.5182328387403655 -0.7675074608746201
P 3.3361292042525035 3.4308114368863034 4.842560211134403 0.32876001925509185 -0.14438055513232553 -0.4024357516726876
P 8.164028970390405 1.5083805096274252 2.7442214571809465 0.3303461327952891 -1.7609092172863414 0.8004312081858344
Ni 6.3567154889418385 0.5957606650272553 11.62164952659285 1.293655183586688 0.8619098843166059 -0.470224429181887
Ni 8.060820543715886 8.17401153054835 13.090010385769908 -1.1729303202000896 1.1968174112303325 -0.5282354584790321
Ni 8.522304252734951 3.893696206980167 8.691795772757372 -2.3340726466263155 -0.9472784796910975 0.9069427561865284
Ni 9.13765580729101 5.090497325084973 2.678953211361566 0.23742235078135884 -0.8663746049561789 0.7548396355989645
Ni 0.5631629512704959 6.612630355262402 13.193228029951499 0.7216906596508216 0.13509861560976733 -0.5509637533144833
Ni 6.585484796938167 4.282324740109671 13.506132898990934 0.2631806906923854 -0.804927039173659 -1.2506863933346462
Ni 8.795861427589498 7.255929391257877 11.182863006985533 -0.0829512441822507 -1.0729015517102618 -0.48683966914106475
Ni 5.200351574357717 4.0596297692731635 2.6083563247044137 0.9305292852572168 0.47346221939289435 0.561933879172742
Ni -0.08128274260461811 6.03782661431188 9.121409029327582 0.9001319039122821 0.5352082902524395 -0.05169382882986582
Ni 2.140535579574004 2.2365912207613903 6.376458467337316 0.2429923886699686 1.2054717444712206 -0.3797321394275847
Ni 8.480014330292985 8.786441135362887 7.263272979141381 0.48634396045156886 -0.5723177935102273 -0.19635309154487474
Ni 6.395410583626097 7.913561650748831 1.7269377415397393 -0.21825426249334023 0.47882811169049794 -0.1404249129186872
Ni 4.569081385089959 4.821797776456869 9.19203264675524 -0.23919641196264615 0.39101362587867494 -0.4915571292213922
Ni 1.5086570348395567 0.08823735168972345 6.115655557016977 2.7300713844244076 0.9656446409031111 2.390089014090935
Ni 3.7348877776530895 8.264988325339589 5.882710718317464 -0.2836626126958211 0.033714875753941935 0.06928814487286132
Ni 0.13022033114622347 1.808189144620316 1.0577992679719963 0.11703635879141779 0.45785485187294045 -0.16565746223323083
Ni 1.0053719312532923 4.325554848272884 7.3300252435991995 2.3253967161188727 1.2879954141977497 0.06513118528169429
Ni 4.91860925322408 4.6333827144175865 11.745495029848739 0.5590642709344307 1.5309883170883503 -1.105602641487709
Ni 1.9884190603805076 8.741736226068307 8.697744751821025 0.3793040507512306 0.07932598872483758 -0.06338772022802631
Ni 4.205072813347223 6.978463993405206 10.53826153724092 -0.3711999335868575 -0.9666818239183739 0.8612344555161361
Ni 5.336337456176881 6.018184106743478 0.7622601822544147 -0.6992850382621117 0.5893369537760431 -0.7708717493611628
Ni 4.095965182147233 6.285519464325068 2.7917091318602756 -0.6324744083954656 -1.096849320775111 -1.1464487289697933
Ni 6.282403946935053 7.85538074611638 10.382510555009308 1.0407272809705626 0.37650026275384835 -1.1728465022370316
Ni 1.0065794246795994 2.6108404428600607 3.384398523531458 0.7134495026879519 0.3813807307746013 -0.1721746945264583
Ni 3.42409187423151 2.6577299013304794 2.4220087495011673 -0.09967189937104123 1.11716566373496 0.2535207990051182
P 9.52896663497819 8.025812451860048 5.303241997038286 -3.2210620996193686 -3.0462867342452697 -1.5784930475375332
Ni 6.806751054178662 3.1804915973578667 10.902484876898413 1.606205425851137 1.443630716308288 0.6718565097375139
P 2.9102527250488963 6.166724233193408 8.575721549713085 -1.7849305199016035 -0.6581952102003374 0.24099361307238498
Ni 8.21889157247728 2.5768094067537537 12.659089164946316 -0.26955754075300675 -0.3787450929239671 -0.30927619949886737
P 3.4453290105232033 8.155760866547675 3.216425126923639 -1.501785213161833 2.4314518933084384 0.482637201023943
P 8.383931036584386 4.872355802741564 11.944078845688798 -0.7609647746600958 0.30887742139855195 0.20104509770390538
P 7.261533635557074 7.129280844101684 8.561231628597398 -0.42101762843993296 0.662417218701485 -0.2538596704017757
Ni 7.979789439054308 6.2448886931558905 1.0307256062029155 -1.2183617130600113 -0.10365916615356341 0.3008452951226948
