# total energy = -381167.64612681145 ev
CRYSTAL
PRIMVEC
9.29617440486659 0.00000000000000 0.00000000000000
0.00000000000000 9.29617440486659 0.00000000000000
0.00000000000000 0.00000000000000 13.60589091322749
PRIMCOORD
 96 1
Ni 8.00618159656422 6.783158279780183 6.5612093234309805 -1.3831115758773083 -0.056594608565592855 0.151825441446145
Ni 5.068292959648603 2.082222250015245 0.7864991297425289 -1.261706912814866 -0.46996629042449384 -0.09180869457288059
Ni 1.2106965893243156 1.3103608767267694 0.34520042744965607 -0.09694575868912982 1.1612197166313807 0.8423260486474075
Ni 8.307665833552278 1.2036593851863007 13.186299169550463 -0.7999671240652222 2.4263724219030016 0.4545563836273268
Ni 8.530597395551927 3.579333977374222 12.478098929230997 -1.8550123643203538 1.26777008828981 -0.8276990427628519
Ni 6.099415345097048 5.302128934401082 6.292534075299323 -0.20464078547496367 0.6482362992154126 0.18206649971887354
Ni 1.8928963590313466 6.471504027829128 4.796879058493089 -0.3840906735065966 0.5566271222478479 -0.027561968778668663
Ni 7.110550955252585 8.836171949344116 12.393660846131917 -1.0057782756992035 -1.1504740480791025 -0.6473865496206076
Ni 9.066242973401884 5.337352139789376 4.822622025070356 -0.9706148404241929 2.2817044174372447 0.903415202649244
Ni 3.1901031487630154 2.6131918520641175 12.466248165908485 0.7783670292969433 2.5347248797671766 1.3552523875731952
Ni 6.548894680998182 3.0548809936882937 2.6585636912139314 -1.6800382526718873 -0.756344245168949 -0.17849369476595067
Ni 4.269017167597901 3.8527344710321056 9.473305724044188 -1.3543633001000224 1.0525525557402646 0.4426246651867473
Ni 1.2600034991631939 5.085937098953693 11.437547433931575 -1.1198722640328456 0.2614554804711626 1.462639653310623
Ni 1.7696383806087055 3.80208891205733 6.916201411539251 -1.6086184061680038 -0.2579929758438589 -0.5798022748127305
Ni 6.500443019218349 3.6965587385107717 0.12392823260804527 0.9255876249812252 0.6971152843043027 0.733282478253479
Ni 3.018337731513212 6.972502763113192 7.074069977447022 0.7648301711527732 -0.6293327774426903 -0.400201205915214
Ni 8.073532381214044 5.716561692230463 0.5509786881607128 -0.023976308309939354 -0.43355329901309847 -0.608509670049752
Ni 8.673321563492408 6.571214796104356 9.091334278142858 -1.8915929916578649 -2.66716394626691 0.3803872565130804
Ni 4.604925138962537 8.249406707617087 11.80173622752695 -0.7349390400202955 -1.777080170619249 -1.0097899679617577
Ni 4.0087149838877885 3.1068466094498564 3.02345992369293 -0.022172679442297297 -0.09775822728809616 1.1281859261048635
Ni 0.4552197236887477 3.679704774042844 0.8402254409647789 0.10855506079328402 0.19221207279330768 0.12079454028226938
Ni 3.9871292665714466 5.618691566517094 11.442431644042689 -0.5672336941191004 -0.13999733846296536 0.9954352419019823
Ni 0.44897362400534985 8.202210029402158 5.822233167630255 0.16584669542590147 -0.0039700403913415505 0.4536816943318574
Ni 3.735165751437027 4.492887643227589 7.379644531239211 1.5335180254887395 1.0298486863848457 -0.22948021311614672
P 8.08346999181317 8.67697496009246 3.6359021291578872 -0.3296573342583807 0.7161820711277666 0.7863405344207232
Ni 7.080515015265893 6.897138675997093 4.196043126959852 0.20167861752284622 1.0964988794142279 1.239287664579401
P 2.438209958418339 3.675967711871798 10.681033115215689 2.109612769542896 -0.9155819199187651 -1.8489695005603832
Ni 3.2028760926013673 1.5727639958862758 10.458861980294625 0.04828737425147813 -1.1614297757596577 -0.0707485314684717
P 6.098244027103139 5.086792347012738 4.100067561620759 -2.1011157878154783 -1.8393977977115485 0.28564673300538546
P 3.037459962572521 7.535739387041918 10.385581165896266 0.46194367723033347 -0.4029268323764931 0.19739207433235037
P 5.533036614168786 7.717656226905608 6.272438534764122 -0.7400889596523512 0.0054774781748034695 -0.014680999050942459
Ni 6.057694113694921 0.5350292414769715 7.748187652996074 -0.278295691956953 0.09581473040848014 0.29055574027122866
Ni 3.2125441141384026 2.44019004359852 5.750870154042562 1.6784817068180446 1.115825861877614 -0.8087209589984524
Ni 5.377158359233206 8.869935655327302 9.658209424792348 -0.5569662507548215 0.5057485902304257 1.4293032439420224
Ni 8.415073834358914 4.285889724414938 2.7886088066790626 -1.6115273522846827 -0.36396279240846996 -0.6943521197368686
Ni 1.0035778202424506 7.237601772893602 10.838738998068749 -0.7990903778872238 1.5189797226632484 -0.1026572072516103
Ni 1.433358562261875 5.240179227167619 8.86668757193784 0.6770588798740598 -0.2076183800460489 0.07832634381572962
Ni 1.415677238258567 1.1364759316784623 5.662458885938742 -0.2851366261381864 -0.7721105068642702 0.28226316124513323
Ni 1.0985568356692645 4.949004447760879 2.9735403959508875 2.976424204926177 0.992956955564819 -2.034935592443979
Ni 0.9253003120208648 2.483435847627642 11.682208803953166 0.2803662013327365 -1.8897777928259971 -0.3073483863485352
Ni 7.811491812862177 8.337023152796467 10.11146300756275 -0.12264779144092426 1.4618248707188113 0.8624567579590114
Ni 6.373764048559527 7.34846795063464 8.282000954841273 0.18197162601222208 -0.3238947207429905 -0.7350326281753664
Ni 6.7635340552949135 4.905907382524635 8.5428395278232 -1.2188363387035848 -0.2731578565097554 0.15104022654068827
Ni 8.281980503257252 5.987284887616553 11.638506557753402 -0.7533705072526057 -0.02148156691254365 -0.33334121086787105
Ni 4.3546907122953185 6.2006227974756065 9.301095949650664 -0.017578118093079406 0.7123819806553859 -2.2932414715425664
Ni 6.31704808760044 5.638390160398802 2.1533091672186613 0.11156068038882723 0.3568210391573661 -1.32022342099352
Ni 3.4963563232977086 0.54909156472608 13.21794613658751 -1.060318829949245 -0.8402419124248691 1.7475456514952419
Ni 0.3867915124080162 3.242896124059959 4.744251555103221 2.0905889201422254 -0.16062015691963952 0.0719860034199986
Ni 4.006521086692846 5.568445743048176 5.186878680739981 0.8581259917941415 -0.3405955784374392 -0.5115322867917383
Ni 5.16780850825818 2.53249176075354 7.143542149130262 0.7174971903947642 0.676797398682557 -0.08053903519633226
Ni 2.6462397526065784 0.3618303541108117 1.8495575932566763 1.5038462094559197 0.6273807959226421 0.548875503326887
Ni 4.978798687209146 7.886744345883617 3.517748680183309 -0.6459251345837327 0.027811365785313392 0.051368584279963145
Ni -0.00038672086148139936 8.46623997910876 13.153086726718383 0.7974060482062654 -1.1347075292734652 -0.36332618726573557
Ni 3.9913590259938996 5.674952014922994 2.481687237193877 -0.2414782660182873 -0.48472313701869424 2.1721815934140527
Ni 7.0938736181012 9.317369832826369 5.876710609756537 0.683843764006377 -1.2126934590306406 -2.1173782724209276
Ni 7.039909324810346 7.951733902196514 1.6269792858901104 -1.633900063552928 0.3266941378649987 -0.8279109016633418
P 0.5543559883764866 6.3411809567448065 13.187060526246505 0.9598776565123468 -0.29046857987406105 0.16785884075992383
Ni 8.562836528908118 1.9555990564037513 6.1872381653515465 -0.6200780916136417 -1.5161563942818406 2.350220460030772
P 5.364655004456945 9.002452623606565 0.08926651616286388 1.6569687724469333 -0.10428214444954298 2.3054673241847974
Ni 5.213880349351974 1.1164891563855535 11.899372089641538 2.0458992905443347 2.0608772520104055 -1.1294061716652097
P 8.042678377866526 4.279084924640793 10.031582838847907 1.2352212078195115 -0.8120407674003047 1.2315059637514534
P 2.4105259505940215 4.256755513360065 4.388552957728783 1.542437953686189 -1.3167472895194612 1.0041638800242318
P 2.799254785779267 7.6907716900930065 3.1908403354052144 1.5267233711644095 -0.1929900886099128 -0.08634201503135452
Ni 6.144371645244262 6.743733203493102 10.753116582331382 0.3296750748701935 -0.2790050593191517 -0.15217048349038956
Ni 3.700249319809043 7.421554474984802 1.0012788762750384 2.253939845729467 1.3231994729027083 1.7479986798722604
Ni 8.896225236968393 6.815964479784219 2.425168355135352 -0.5725288810797688 -0.8324946643792824 1.586432614099584
Ni 1.0555062513057945 8.850097618827268 3.6584611559501203 0.190479149262601 0.6881899567902148 0.8755318459754148
Ni 7.334895535784572 3.625917108068532 4.945183720018839 -0.6589012351284265 -0.5813832461466052 0.9357990182965883
Ni 1.1756500112525636 7.541744715804346 8.364113135066729 0.9911432993948479 1.3384679690260046 -0.510571979760998
Ni 5.804782388755907 6.825018953800634 13.285704093682838 0.3883692462772924 -1.2802638498814467 0.32059599538706074
Ni 5.552242510799088 2.1992703838352523 9.700184441759824 1.0799270910984757 -2.3322834159363772 -0.5820098239870106
Ni 7.562781958821951 1.6612263929501458 10.866779978995973 0.13541717529145064 -0.23428380515237715 1.5296662558428171
Ni 3.1101374552422705 8.845858563230262 8.725253713025573 0.5285712445518961 0.7499195725895278 -0.27765137350473473
Ni 3.456475734457439 0.8587220394765467 3.996404059924812 -0.5301234195303645 -1.0189495229738386 -0.34371741189587257
Ni 0.9877836196737754 2.8252097051363836 9.293870962786642 -0.957884280231402 0.3764233867693259 -0.976601397024931
Ni 3.0446923863761874 1.9549669165340222 8.210610982347367 -0.1527602945555885 -0.03312069381336876 -1.4998967378898684
Ni 2.724848204642317 3.104838635746011 1.1636477202848081 0.24031304206559256 -1.702117858179746 0.23630392090619945
Ni 1.285837568251098 2.0697374875880934 2.8801491671380406 -0.18188266584284157 0.11045304914694525 -0.11776166699321655
Ni 8.941432533828586 0.04769867164089087 1.8182229776846726 -0.5013388911985043 1.9853115016589487 -0.5768370215368195
Ni 0.9127913795398702 0.4236396891084962 9.813439736361456 -0.2958151888979551 -0.8569574254073371 2.515618497955029
Ni 8.764080115671323 4.141157582770613 7.013020139910467 -1.4363663214363909 0.38360139257500386 0.7850629532598802
Ni 8.180819531751467 1.6683658550082638 3.945790107943523 -0.38290899449366955 -1.8060467330549281 -1.7295764686113309
Ni 5.511385823630561 1.613155874327061 4.7268091427859735 0.4009532535898901 0.6648831637434742 0.5919643640965611
Ni 3.636403192966393 9.196315047773226 6.244450542031861 0.7348490514096505 0.10555226941121822 0.2575024093606856
Ni 5.7719297078790985 0.6838191633144844 2.5444652335801754 0.07292445607386795 -0.24525290256937118 -0.05284285483264448
Ni 6.115339692109492 3.965868915364525 11.275582973514942 0.3904994052464178 0.38522812954514946 -0.17642601360364454
Ni 8.51437557095373 8.751567464720507 7.864694749456989 -1.143298870486902 1.0301006544946518 0.1948389688931935
Ni 1.3568975265483052 7.833505154208042 1.5642421926718528 1.0509425309406675 -1.8242645416145358 -1.965954694398892
P 4.644703469882703 4.307763623142479 12.982183064849812 -0.45652302043539444 -0.39031685692196655 1.0667764126491306
Ni 2.468227306055922 7.516133754905757 12.881704432556356 -1.6890484265902976 -0.3148302965478771 -2.134027193831518
P 1.6937537077175355 0.3292212330073393 12.20078381646807 -1.1913751571688387 -0.6096489258605179 -2.4026151715824042
Ni 2.9191475490130556 5.186754112000947 0.6022303577164639 -0.6198333225926873 1.1521681479520738 -2.0803618430975783
P 8.28545727254076 2.189797581963869 1.5969916860111033 0.11989413995518707 0.4903934479305942 -0.05419859752959053
P 0.5966126794329734 5.999695280647266 6.828551500131473 2.1276446873439423 0.08038785433044864 0.368927592612913
P 0.8596637419589521 0.7763904695315944 7.8493885980524425 0.6882519203764018 1.4691671700164954 -2.4880537009628827
Ni 7.833375007764273 1.985328222630134 8.69933504874922 0.40495440432948315 0.6176931363212329 -1.4705848762996285
