# total energy = -381165.3033021722 ev
CRYSTAL
PRIMVEC
9.30134995664897 0.00000000000000 0.00000000000000
0.00000000000000 9.30134995664897 0.00000000000000
0.00000000000000 0.00000000000000 13.61346585642241
PRIMCOORD
 96 1
Ni 0.8438110225683023 5.173550339044307 1.0430877936709422 1.5777975641324051 -0.28914651862852786 0.7217317973014021
Ni 4.261413460322266 3.330822703382874 2.36819809736054 -0.3632685945549228 -1.6798585325609132 0.8067658921546107
Ni 2.0174627950319755 0.38864667441833356 8.272835469303846 0.1463361361967996 0.2888518702062444 -0.2652229179333948
Ni 3.1186031038833373 4.543728032728032 6.781248674826964 -1.753605998756709 -0.14568101911130396 -1.250216395676763
Ni 3.786207493525661 1.3851291242405563 9.37031197642647 -0.5834316440352018 1.1581104815784378 -0.7442528612220537
Ni 4.611051203361694 6.133486854943246 12.77693231034413 -1.5785411271666492 -0.8532031005712275 -1.0764810415314041
Ni 6.7621092871213975 9.389340678068132 12.929294002646117 0.259802775359088 -0.6283092212741824 -0.4154020820253684
Ni 1.222271788702452 1.6973940433498855 10.26701698551625 0.6440256035681746 1.9950210156372283 -1.2833301475115961
Ni 5.326176189683679 0.807685509660858 10.803496524966393 0.3932466289742518 -0.6616392028848799 1.2809955858411486
Ni 6.1711573220704 3.051651987245992 11.723113549284399 -1.3989799103681326 -1.329809007799426 0.5303779587433317
Ni -0.12860232409714661 8.507116940650024 6.448249186502857 1.4025007790371977 -2.9015287411688675 -2.7419956466658197
Ni 5.033983583675681 5.308131570862277 1.571552359905415 3.832459632739877 0.3534027575044365 -1.699856572949395
Ni 8.556897765357313 0.44056866987443083 8.15341822824079 -0.2790801355314613 -2.0563721650512004 3.285609644483451
Ni 2.017639520680226 6.200596094529026 12.690486494434737 3.4713147693961766 -0.5651953235328331 0.08116124216136344
Ni 2.2620045854616 7.288454075711852 5.7957836739706945 0.5141242158886307 0.3099948228324468 -0.3158908766019076
Ni 0.8148252258501919 2.2204554554228366 4.826177474707461 1.2125836729256536 0.22578733764559178 0.007067191259426538
Ni 4.858625233861307 8.30729604057777 8.899054432665785 -0.3516469511555944 1.255942756637579 0.6878089193017122
Ni 5.789560140747293 0.5719093113844747 1.7035347945591068 0.6417239520181915 0.07155920029522514 0.9981541834950424
Ni 1.1261144333541782 5.819798829298002 6.9440790364503355 0.36030256994806337 1.210929168041366 2.482448438960964
Ni 5.774129201250022 7.644956214983338 11.415190500312095 0.24479704597887517 0.31482978232724484 -0.8132882666541607
Ni 0.8950716920459452 8.752970221416668 10.513285106488787 0.6029447743674647 -0.23580718377543902 -0.23426272210645463
Ni 5.872714208924268 3.0285288313748557 9.367480645514494 0.6303347363446434 -0.2522673862139913 -0.29932603026469096
Ni 5.730589582330959 7.410934251299593 0.5689272986039895 2.556993718467706 1.2694060812313364 0.6463910184765578
Ni 8.465223660664666 2.5127689789796364 8.542967133600193 -0.6912948209677836 3.1886204341508955 0.7024408102822741
P 2.052445172035734 8.875822451000726 12.364689041344347 0.5438104300991538 -0.5071981781927587 -0.6759080540990682
Ni 0.29280091429197586 3.9228722277230093 6.4189397028079505 -0.9517748248995545 -1.2786060025630495 -0.47748419606809384
P 7.608001951799096 1.411256616131957 0.6818084810867374 -0.33860862991439755 -0.3249619856652403 1.2145734496621727
Ni 4.6147903460246855 6.839236080558028 5.239768509308907 0.10205428356028877 0.37264232246033885 -0.33144887894116465
P 8.066725926558835 5.585255990019411 3.292756928884634 0.8167983366899482 -1.2157641275361644 -0.6620721766572405
P 3.0499405388629315 5.167364941355528 1.3846259212105367 -3.0048163829156254 -1.8039584830673319 -0.7003528174049938
P 7.451543944997654 6.902606177480817 12.523680735860712 0.03283170181804023 0.03637802440840187 0.6386458273135001
Ni 2.5968903875470373 7.51230966394622 3.434200696664681 -0.9592662481805931 0.06835586286657905 1.6323108646889373
Ni 5.946566927193303 6.299432238650787 9.203247640325005 1.010802211276356 -0.7368033469225439 0.0005453309805087382
Ni 5.182916798401601 4.641196878413325 7.509855037705515 1.8598180132391133 -0.5690730613206845 0.9724135841958285
Ni 1.396932537273731 0.6190392513680016 2.860611561486832 -0.16845122292828407 -0.4383931436039031 1.5034536020031914
Ni 8.273764674159649 2.928585826614051 12.871599589437153 -0.6602670051277015 2.3239008482996364 -0.2742017243932374
Ni 4.22840296949899 3.602422120694694 13.12451073451394 -1.452370667284447 1.7077316048220978 -0.7111342242912141
Ni 1.2780519841003624 5.62795848744676 3.3357077723545236 -0.8582494047458832 -0.17769408168279074 0.7454221989398065
Ni 6.570585191167026 5.605960794914485 5.837127244176494 -0.8884215574538892 -0.7785518916142399 0.21353345997890325
Ni 6.862684783675943 8.02658130035617 6.427026296417912 -1.6666194081628203 0.7667798386799762 -0.3916828840315577
Ni 4.986267658647955 4.838283181612645 10.911546586306958 0.06838980142830801 0.5638964022157514 -0.5579247580133488
Ni 1.4978242797251458 3.45986963200562 8.367502748396868 0.9494531187449131 -0.022150567955110237 1.1657978229203665
Ni 6.144388037035352 0.82188774083529 7.9490796625182485 -0.1357971843386887 0.0011557108709980095 0.08142889400045332
Ni 6.347650436573543 2.0892134082218172 3.8620311678401893 -0.8432105081348897 -0.5446342115520298 -0.3719589232400691
Ni 0.08855536206851511 1.322186889413533 12.063422968501154 2.792286424500572 -2.7318498164810694 2.308674261157869
Ni 8.211910697271854 7.4232585399276125 10.398169739758155 -0.16413151250700767 -0.9795321975184809 0.05023112824141027
Ni 6.763467284207957 2.880125793593688 6.580000947678832 -0.6837352634529709 1.0577312717277267 0.1945731168263165
Ni 4.193839153241089 8.824106945512584 6.55956681206608 0.1030654984336225 1.2072586611683145 -0.24678348028128466
Ni 1.937275857475633 0.32424226738578216 5.6669860215254815 -0.07170652450636683 -0.482275189698834 -0.5347370070429759
Ni 0.6494342025971649 7.886595984241687 8.360642072704772 -0.5828346338811511 -2.9967935126111485 1.3075458255258514
Ni 8.522547880147295 1.2544079526343814 3.3414522860576668 -0.1229861486169495 1.468490198554129 0.8276481349202585
Ni 3.1326295395445096 1.5181756333237162 12.04411894690222 -0.2180855981259599 -1.3855777780296137 -0.01606553810329491
Ni 3.565588775059255 -0.06583123410842927 2.4905424732396253 0.7684567121617668 1.9012708810672607 -1.6666505185110714
Ni 2.780889691425887 5.431439566591825 9.838628433346265 -0.028457484009744537 1.219854495555454 -0.9777491374761291
Ni 3.895396040094957 5.419868687306349 3.4818887176426845 -1.117885829730436 -0.5678443311199058 1.5631649018208948
Ni 3.128220699688146 2.027266417834943 6.911393162738847 0.55571180952243 0.5261528649183906 -0.0013585709104234668
P 6.901564426291127 8.90306610488108 9.765905829091043 -0.9425011129071124 1.0569691967507218 -0.5193828931844088
Ni 1.7303394247238055 3.1687838866366684 13.341591219475365 -0.5429120866546004 0.8938499275583123 -1.0475525314225118
P 0.7224293364046888 1.7681773161493013 7.08062192296389 0.5460871419484724 0.38312728115206274 -0.5303730736473253
Ni 1.4670926196293153 3.287506316861602 2.6970454630857432 0.9530441785302812 -0.04447262849107825 0.20827041180775102
P 2.3379036007103826 4.067471013391829 4.5580065349717085 0.2646721876362474 -0.3713603704241218 1.2231889592453256
P 0.8261738028728683 4.038171761181822 11.228087335968967 0.8059855623451603 -1.0378520163052964 -0.4684051165849611
P 5.7179862532057015 1.0176513920777013 5.673751823448517 -0.5410992018155778 -0.08618337796630318 0.8779407125272234
Ni 6.794691915848908 9.111676780616337 4.170239768254667 0.43482702351919955 1.4911799268421608 0.3858457085244903
Ni 0.318227084400318 5.484327042168366 9.670298183522329 -0.011183270310329127 -0.13372281830816327 -0.800772393575337
Ni 8.101215332017471 6.481441053649338 1.0973974456484072 -0.12466199365747563 0.4106954205783185 0.21914000753240326
Ni 6.227616516011589 4.294265828197107 3.7317229761699267 0.18641732048840154 2.5035957624625396 -1.618714356951425
Ni 8.082101057956658 6.511354194953269 7.566337485021475 0.23294374618471494 -1.0920657833435385 1.750263307536721
Ni 0.14085778273584706 2.1844871353288364 1.2449149949183387 0.826335586756422 -1.3210186632013055 -0.18865495156966866
Ni 7.645542200027538 4.679248700886703 10.882822157521261 -0.020935978821718784 0.04498890600586446 -1.5892572280325727
Ni 8.146326879070976 4.0420969308429715 1.3072498515963737 -1.3814784111492595 0.6901342250007793 1.4833555457017358
Ni 7.570545415719826 1.460246826097072 11.00805274227678 -0.6272452987860423 -0.5657398831823934 -2.6835909814746817
Ni 3.996436604144899 1.3708422507819622 4.274941343628373 -0.5029329751585015 0.34339242445628604 0.6357263396738599
Ni 6.54803871899018 7.072904592945273 3.7557920793267003 -0.20320533858001777 -2.4424469588673614 -0.6651891250196673
Ni 9.265074643298066 5.417189898532862 12.605429370066597 -2.691825196459016 -2.411774726594485 -0.5026403836187473
Ni 4.7424978802606885 3.5791966499745698 5.243321624973739 -1.1317564170649412 -0.4501909075697795 0.15724481268950338
Ni 4.061518149450748 6.640680164073254 7.530846324177752 -0.8911800940356329 0.07410407820426593 -0.02504280190124074
Ni 8.05721994695292 1.0098847649045721 6.107477490195676 -0.8406450614005587 1.7133430374716039 -2.872851942059465
Ni 1.2055851669676094 7.640342745429001 1.4891498408010018 -0.8039883294094734 -0.5123182730281435 -0.20817425254951888
Ni 8.095327577525746 8.79650984033573 2.0764482356081615 0.10519205785832206 -0.9791997538797264 -0.9473931508920911
Ni 8.737455569770225 5.9568542201914845 5.415191968572636 0.7553767390493572 0.6138333962555106 -2.0237543790161787
Ni 3.292742976859772 1.8045176902396194 0.8008676201783387 2.167168199359861 1.9299551363758307 1.7095064373343334
Ni 0.31299972575205626 7.5318518001028005 12.470397952913084 -1.5152269404890357 3.0576011308168245 0.7688776017492693
Ni 4.44349668612008 9.395386555508294 13.512031945593415 -0.636956098315903 -0.9609415790004869 -1.3162819198472686
Ni 3.063725139426497 3.411604927333325 10.866554096532276 -1.0326049089737441 -0.21313648165080068 0.7422810822076635
Ni 5.905417755200581 2.7578502477039217 0.5737091225916608 1.2622031357249939 -0.29992869684569634 1.0008435574017474
Ni 3.5065531071935663 7.176214686372751 0.8947405639892224 -1.6674640155513023 1.3914152106469975 0.17609614106805158
Ni 3.358605835557888 7.703647732902434 10.848802470232974 0.20015806711326173 0.20958810217791002 1.9292208293129676
P 2.6219389228491172 7.590757249069778 8.910721115855313 0.7518306735693115 -0.4676019039573753 -0.547877915300308
Ni 8.174007696397002 3.3970204106776762 4.543031361619927 0.3360930625813954 1.08593447363482 -0.2240868100147173
P 3.789174624146294 3.564267983372328 8.881071202753777 -0.19410363338906572 0.10265155082465548 -1.2754707993681775
Ni 6.601995849806135 4.90514128475091 12.96286443473385 0.3126597712591196 0.7815773087041249 1.6713880331960569
P 4.651093514715371 7.4704256853107704 2.7909239877065715 1.3174263178643568 -0.4331414082866605 0.19272269388113905
P 7.348754727165021 4.5681905829859115 8.440457886399788 -0.04815676221088481 0.03826547123910184 0.1531521306773685
P 0.13652986462368305 8.55393993608659 4.309955345221819 0.46476469161889633 0.6765567434266606 -1.0630089751868983
Ni 1.7150480054751538 0.47641700255461866 0.6210753168628497 -1.7483648049624274 -1.3932383798986652 -1.0804647087695005
