# total energy = -340860.0219463128 ev
CRYSTAL
PRIMVEC
9.40527762274354 0.00000000000000 0.00000000000000

0.00000000000000 9.40527762274354 0.00000000000000

0.00000000000000 0.00000000000000 13.76557450091927

PRIMCOORD
 96 1
Ni 7.281293215789632 6.334463913176201 2.3635490989922108 0.38490082811271775 0.5179333052220757 0.5862827403307516
Ni 8.63568141549403 7.491783329949645 0.9453724251030022 0.5532327518543182 -2.0054771779735465 -0.5660126772278058
Ni 1.9914546823955754 0.41143387148926713 7.954368744551989 -0.602091168117918 0.047320896573150764 -0.48060911485032065
Ni 3.7389740832516463 2.7188776676218387 8.053714811480022 0.913182309338337 -1.144354822555242 -0.6209625511011241
Ni 6.689870545610454 4.5514489944095 3.743506486558782 0.8112159575061643 -1.6179705368068653 1.0408190693534203
Ni 7.86009400334134 5.728594736502396 8.478754357640597 1.0963821513307055 1.613883768332001 -0.684799185941111
Ni 5.534150026040191 7.9141273235312095 6.908143527038896 -0.125190612467436 0.3757975802598689 -1.3946514581961078
Ni 4.085013059130789 2.5523007948833225 2.494803510929148 -0.09505059854894599 0.2521845966921979 -0.1859771476271894
Ni 2.2595991486467812 4.378043890085633 3.119265040492655 1.4749444388199051 0.44212741383535464 -1.329147720066343
Ni 6.953302967751108 2.703330743640315 5.927814506435513 1.4548522960557202 -0.8075714187750413 -1.7852609066578287
Ni 1.4375966912134983 2.6141593060911155 8.094447187994954 -1.129668681297977 1.1676575018369244 0.7635528471022462
Ni 8.269026070971512 3.5273365252164077 1.6600869991472724 0.5643208913476798 -0.6650500283386418 0.016801644938371066
Ni 4.414705662426818 7.20625791057209 2.675311480946209 1.030471407570509 -0.30100161819490096 0.8937861641999124
Ni 8.762605637593644 1.1868519886439735 9.271871326306757 -0.33259044874477556 0.009467058950170791 -0.22124137014612222
Ni 0.5463554011880895 1.145412335248575 13.419040103419576 -0.37114362642762533 0.4509825502331394 -3.332496795953293
Ni 5.950982526909613 4.634469380365284 1.433409461596696 -1.648124434682426 -0.9290863821631032 0.18672225332333003
Ni 9.21401193916245 6.306699533506836 12.574701052057849 -0.4701843199725709 0.10066717340477502 -0.8557253527724488
Ni 4.484370554097203 9.246732900161676 8.54448502166339 1.7825661334344851 1.9665787011361358 -0.06991909358864087
Ni 3.955822165113723 6.614957509002567 13.239674874638908 -0.007248196921981065 -0.06960387634106723 0.4721023629308902
Ni 4.161412129609868 1.3444750370446736 10.095217797918478 0.8398256508230569 1.5959811770199674 0.7848336108578935
Ni 0.04557797556833897 6.136454602478669 5.341511128889816 0.506748749360166 0.8769215272340898 -1.094152233558922
Ni 0.033725444653931055 7.809455988388815 8.491335797574102 0.2448078446121526 2.2485433573042437 0.045273012905186545
Ni 1.087823820101043 8.3547927980057 6.038144997149403 -0.1135604844276754 -0.019039276019638177 -0.16125213407668357
Ni 5.265836264791002 0.9975707756202794 4.3761590724414114 -1.6433085013510214 1.9057746824748856 0.05916674016814327
P 8.257184826390302 4.052009939801589 9.523368451089542 0.30157214598639026 -1.897593432215674 3.8985079305192016
P 4.476329041692967 1.2290346589749683 12.290111457808036 1.6274447948458877 -0.19843851331899373 -1.0992453318111135
P 6.060892601711844 6.517152026556188 0.41881231181806655 0.27564488459766723 0.9054576870005696 -0.6095584230292406
P 9.0555236052165 0.49606726256473105 7.18630461400415 0.5378773524441705 -0.5148358972436746 0.034358937095844054
P 7.037245070918137 0.7067483038613599 3.2237595564149326 1.167814082019447 -0.44328055360319135 -1.194009509467892
P 4.67764901012885 5.933310010175624 11.320368077217482 1.1559661815419253 0.5513591889806891 -0.4709790479597244
P 8.868001179116305 8.452504227675423 12.915110028726259 1.242322594750983 -0.2959486291520258 -0.74211396050218
P 2.820341803080205 8.25654526750903 0.8021507378641347 1.7155418448951356 -0.03346187920287141 2.3136637439526604
Ni 8.745582085018595 8.458185015385551 2.9799719377347813 0.5022233506859867 0.1460584570553807 2.445095709344118
Ni 3.233675540657958 9.305892096679393 3.0614225828481474 1.1172726216264692 0.9971586523509924 -0.3688363184506873
Ni 0.6471226055714214 8.83665338865628 10.76568430265635 0.5079160301953898 0.1900963120018855 -0.2654257779728203
Ni 4.334346970050448 7.01709896615805 9.37527859213087 0.968917398117112 -1.2890989316745733 2.546846345621059
Ni 8.083648048179114 7.770405275520523 6.59035142157337 -1.0155083585027738 -0.5594599637109526 -0.5829467339789831
Ni 1.9133062302706623 2.223332397967558 3.8270911891745127 0.7449522012819235 -1.7003129437605233 -0.4050670186479476
Ni 2.8464884749910553 3.8060901446746063 0.41032122714140606 0.18588741612686052 -1.0288824658168345 0.15272635599385956
Ni 1.233323465590561 5.88080034496761 0.8328279320265886 -2.3567420631993734 -0.18811476279548248 -0.7853149213696863
Ni 8.582748512791056 3.4254115311524194 7.620787058941163 0.9858506835373408 -1.1108016691901452 -1.2028954991036123
Ni 5.172244346738888 4.035550703886486 10.221874910132387 -1.5172794521426902 -0.15798374773805696 -0.2725451626264209
Ni 3.887991302588163 8.283256256079827 11.616506411913097 -0.08580773979443931 1.485855429305454 -1.3890821916384464
Ni 3.2441624252552956 5.740605276081588 1.4330511205176297 3.1285196122042573 -0.716726887887643 1.2655265436712722
Ni 6.078348797059519 8.369606110329295 4.455352450914992 -0.14832514160237037 -2.4721653118674003 -0.3142674820658717
Ni 6.805452002845147 0.4539297375665321 7.322033116526697 -0.5926457064343019 0.6909844888162163 3.0187065106341557
Ni 0.4718599589085629 6.019057926654483 9.974521750689139 -0.1849816164831395 -0.9232072976745069 0.41072190294087974
Ni 7.202034940900157 2.670600377363423 11.372498709735565 -0.752551096675104 1.8875208784710202 -1.5070508324361462
Ni 6.1980779817448175 7.632824873825586 11.951656897838575 0.10734612808684739 -0.364154853814618 0.8759349949511043
Ni 4.125305268650964 3.718414146274265 5.535674621549814 -0.8060043313982377 0.2598233441843783 -1.9361167851018526
Ni 8.123545236037325 7.6322605571656394 10.555318338161525 0.4303355634067492 -2.9900237979874826 0.7067790326463118
Ni 2.984238171683976 0.5500037083946431 5.541690237144842 0.24305435225615557 -0.1559587468882282 0.17128046484696308
Ni 2.758389239095754 5.92468537055611 4.777343072330519 0.25783125345501406 0.5840268544170393 0.8730818417730253
Ni 7.6322605571656394 0.37092910269384644 5.3339671556741 2.2131924886087755 0.9197849022565191 -1.6864158740634572
Ni 0.18568651589983548 3.8936626850206246 3.762227691752505 -0.13029296669100787 1.804232562664325 0.520956922539748
Ni 6.127246835643876 8.547695042930718 1.964966598905457 0.4851496830331515 -0.5483427707518685 0.8685335602807105
P 7.37974766239495 6.509110514151951 4.5960497616283655 0.11545667300912374 0.8201227730774908 0.37565848357884335
P 5.956004945183135 6.337191443699275 8.115521593660654 -1.2073926156430173 -1.0827704740845419 -0.327074661132869
P 4.613119400063978 4.5603369818036565 3.346589661146637 -1.5700156061941415 0.318717033196793 -0.14812279578357718
P 1.849256289366744 5.923180526129586 12.14010762484438 -0.37354940765564054 -1.221067799137265 0.5694543559195032
P 2.546620007173195 8.530558627023678 9.523492600754732 0.021856176643143006 0.380646423711738 2.5495596307871637
P 1.2097256239271348 2.740810775138423 1.4355707944042906 0.012742387267332893 0.2205356023283492 0.47193472700477435
P 2.4263923427716105 2.517444835853965 6.0772944654331855 -0.45180221792095737 0.982731678292385 0.7195975245672188
P 1.256676770034677 9.353106590561577 3.8861591544988703 -0.8114141895598994 0.46095585939576744 0.2901338222424616
Ni 6.023421975491401 2.5350515156442937 0.08483466401751151 0.9134144799538012 -0.9939753695270042 0.1291179725463002
Ni 7.5584761538776455 4.914690223139343 6.132590914413568 -0.6359505398695241 0.9613362433357443 0.09448495585346309
Ni 5.681323810954217 0.15598276797578925 0.0959770964681535 -0.4209078423349461 0.19927129363293425 -1.9766584539696408
Ni 5.304040502669374 6.173248048707175 5.156859193533215 -0.8825640702318478 -0.8962446530427339 0.1475448117929201
Ni 7.744540761939645 4.738886773010703 13.45876705575204 -0.7255771391894213 -0.18580128417095743 -0.10245614698439776
Ni 3.325141865957607 5.1711345239743265 7.97643446648366 -0.22601796559915913 -0.004147960730102533 -0.6934841153096186
Ni 1.1571971481637893 4.322148324917939 6.114805534347591 0.6594745911333932 0.059238216836027015 0.9497421107402418
Ni 2.3928719331707935 0.8908622573354781 11.445400897978509 -1.0728421592272364 -0.1270127532778393 0.5151662839998999
Ni 1.3519898538996267 0.4062073586903967 1.403097192207674 0.41014469028117106 -1.4090429510310896 3.9789726608341733
Ni 2.084632768230395 7.2606768471462555 2.8112610074939006 -1.9361628078484399 0.41783974493258363 0.09514778624844258
Ni 3.2423472066658015 7.71566655950572 7.678589073891708 -3.3047463653129023 -1.710685545244099 -4.217730185487188
Ni 2.7228843159074585 5.245107032815636 10.318674968396294 0.7334614270335046 1.3530996028962503 0.1705636412855966
Ni 0.740126693769424 3.6979858831842045 12.898591539561862 0.40426354891004573 1.688867420927743 1.721902239895525
Ni 6.575342479474329 2.7949193375496186 8.79724809681999 0.8436637936222244 -1.8771919857411863 1.3570215636584757
Ni 6.947434074487665 5.290666197828645 11.245153131196524 0.9309663727946353 0.2157142696803059 -0.6540007125030156
Ni 3.2590886009108786 1.0036559902700348 0.1181716707038461 -0.7323365694004419 0.04785388625848533 1.5818449947289015
Ni 5.537385441557218 3.846579865025762 7.240568363496831 0.4083960830211805 3.4533970085754913 0.3946244831583849
Ni 7.817290584684405 0.5748637383208159 12.024972918298813 -0.2165377940228658 -0.6198631473893582 0.4372011801783309
Ni 0.35842384550943385 2.035424355483067 5.685347388739635 -1.5327163555230507 -0.8167541137155739 -0.016505453854190926
Ni 0.6140762219649594 2.7375001174000704 10.92112532663859 0.04348841020093801 -0.3636452611680511 -1.92825306608306
Ni 1.7514225910873666 7.938769151015537 12.842358324925968 -1.1284993435802244 0.8757768721066852 -0.501368201774543
Ni 3.354110121168189 3.132220810477258 11.938455650106894 -0.3138455640371046 -0.4640956905763297 0.773691478198145
Ni 8.08312135262983 0.2431076171049166 1.0859333592902225 -0.6182315253232062 2.5841880194943108 -0.9368796529552766
Ni 5.176984606682438 4.30592422094448 12.812198421035133 0.07892232552851569 1.562306924695974 -0.20621507194061905
P 0.13542094994287493 6.1980591711894855 2.8100768830357796 0.013055547632377516 -0.7566995716258388 0.09878435455976536
P 7.172906795969256 9.283817909997822 10.143645572619548 -2.0614776045985654 2.5290306575958765 -2.0520964204939824
P 2.882454256784974 3.2807959817634837 9.93171080781007 -1.1794588653472269 -2.427872403487296 -1.8289231234324697
P 8.038916547600694 2.6283706806440996 3.813862666137602 -1.774568717051305 -0.73815111919969 0.702312769344842
P 1.0624671915141173 6.253409230252563 7.624834149920745 1.3582862893035124 -1.3589653176484078 -1.2667547596514184
P 5.190706906796802 1.7030042216639643 6.456178551976744 -0.9754726827371264 -0.6896611420191026 0.7700574809899835
P 8.354755176895038 2.481102842953416 13.121153327605896 -1.3457984412491466 1.3936520703973159 1.0215463371667375
P 3.6194706252303264 7.986914767386632 5.000110835955432 1.1185090651367318 -1.6278654273230737 -0.39752674440684443
