# total energy = -340895.1743865624 ev
CRYSTAL
PRIMVEC
9.05431710303126 0.00000000000000 0.00000000000000
0.00000000000000 9.05431710303126 0.00000000000000
0.00000000000000 0.00000000000000 13.25190830469102
PRIMCOORD
 96 1
Ni 6.360875197610568 1.9293029817942977 11.450616602187006 -0.3624550975146919 0.08877299307035033 0.6788373119307212
Ni 4.44538004967868 0.42864586726602993 6.137051568848485 -0.027315657095817472 -0.24655516632056249 -0.5865437073016221
Ni 2.6170417599497857 1.5303516535021444 4.904875786804386 1.132181677527818 1.0845059687184095 0.26423895675357073
Ni 3.529988571980511 4.262537166388504 5.054092746554746 0.820053353292136 0.6425755013852095 -0.47650897663901803
Ni 5.2186187459736715 4.484684841020794 2.6871692581997153 -0.008954895200442643 0.001419763165662071 -0.3472223397253375
Ni 7.3521780714414895 6.012754806566658 2.5330493856385385 -0.7702904229363959 0.6792795416744624 -0.5540827585594392
Ni 4.981087786271062 4.921256857639712 11.348126257658773 0.1842552798400762 -1.3344030549280115 -0.3554750666524329
Ni 5.438539058553403 7.7559100792610876 12.40948510063306 0.42948684225320877 -0.059483757187929816 0.9062567858630972
Ni 1.8355998521929293 6.750102189136668 0.17950093477960857 0.0986138904201721 -0.7820231379922918 0.9760892332752028
Ni 2.6168787822386226 1.6910476767087426 -0.05220809890757083 -0.13601804210024315 -1.2222551345771469 2.0407151752402335
Ni 0.6599067122475115 0.061015233332467056 4.7055938850482475 -0.8842543134500772 -0.7479773612614924 0.5433941684973416
Ni 8.688450433900506 2.414324650215025 1.5340277063205958 -0.17511860764613066 -0.9983040788093451 -0.13130443867465774
Ni 6.674815540896706 0.7808551879966699 4.943359351568585 0.7751629205373488 -0.7477552179483573 -0.6319825563607117
Ni 0.8882185660886736 7.467919409318995 2.429300491007436 0.5404772519608627 -0.5084775591258146 0.4488904435908011
Ni 7.757376878661554 3.7819158961691746 3.7057238162005284 0.3540565890383516 -0.0007880431189341268 -0.0467843073433904
Ni 7.732097224796734 3.832991299984163 12.568520562049253 -0.5872137367854532 -0.5490544521069125 0.1502655531581928
Ni 8.04926995935427 8.803458372077777 6.930854430565317 -0.9961458948157618 0.2466605815501752 -0.3208469350556023
Ni 6.962045648186706 0.7213139975184981 0.4628892952448081 -0.6380421322912302 -0.36279216913913653 -0.8705809297280427
Ni 1.9498924993045414 6.445306706310225 9.069990310050091 -0.9740500913579869 0.441406219398614 0.6995303215036985
Ni 9.151198481795639 4.739147374049769 1.4604396480036417 -0.030994648609301456 1.3389235685061842 -0.017458818906395737
Ni 6.266420559674392 2.077386341020347 7.033636324110187 0.8122449129913109 -0.11423411345593229 0.18867732016717184
Ni 3.366223135213678 3.9479177493058533 0.3986959965446649 -0.4491071875872975 1.1252589822660557 0.1642811507109945
Ni 5.940745821184526 5.562709965824943 4.815160178536135 0.255247808998554 0.43430020448145207 0.17167204385842694
Ni 5.140054434875877 2.894031434388385 9.387068879707845 0.9483200335817344 -0.18826542944073382 -0.07867987050040644
P 0.2888951962390475 5.53293031626857 12.55814431443855 -0.8743889906202232 0.1311396309620193 -0.5955947617602969
P 3.8597468075667356 5.91511304894552 12.821433901390451 -0.3488159094647025 0.8030781588903781 -0.18665026243481406
P 2.6454179903267 8.590247308607585 1.4705904431139027 -1.4464689570880314 0.42409575314462444 -0.1138106527652685
P 6.300482901307434 7.78977322591382 5.752454955182867 0.02304891139966353 -0.2183619917157981 0.39121571458715204
P 4.619413082248774 0.9167948968776269 12.69539508846264 1.0192791383991158 1.0962039738816283 -0.2398229898030515
P 4.106295867287024 6.226237499555456 8.203885103071036 -0.09688148111009766 -0.562919640124779 -0.024592087517067325
P 4.739174537001629 1.1624023076000851 3.8764619827099467 -0.8483030921664487 -0.5114399841882482 0.12004172127664488
P 0.1707635185978209 5.6699855170392635 3.5737480874277443 0.7504255656916688 -0.3602066678001474 0.3537187460829586
Ni 1.6835507019952503 1.012127803590624 2.8365573445467955 -0.7022621186125647 1.29769361532212 -1.7140837722923705
Ni 1.9337486515821298 6.421204113692693 4.755168988488808 0.2311077214172407 -0.03840302525823064 -0.11839698658437031
Ni 6.057582731453737 5.761850620231406 9.212488060941897 0.10541934337777974 -0.5980427090801571 0.14882882071166625
Ni 8.40480583625609 2.4043467925649415 10.332923607917541 1.3556493659012976 -0.154880683332701 -0.5703442147236242
Ni 2.4700539731154425 5.317021066246903 7.07678376770883 -0.7494007239715804 -0.04280192565687467 -1.0606720995236056
Ni 0.4912782016659243 -0.02044012127501104 9.02464266735075 0.8212057217290245 0.8465262027716841 0.06407394766177352
Ni 1.0957715866863282 0.6766399960252957 11.34350131238866 0.9602275836525979 1.1615377620924319 0.020598392976641944
Ni 4.060653053844131 6.973408816381673 1.5076959407870467 0.8775383348824821 -0.03320219778358153 0.1582431720470307
Ni 5.530920257830894 7.967799212407404 7.8624630959559205 0.9601111126793916 0.0358594329007705 0.9449588304189854
Ni 5.568939336118279 2.9365957799537563 4.75573850504615 -0.8365030142077271 0.6182178984764514 -0.3009519959038882
Ni 0.6985659307670748 7.283664052532073 6.791762008405087 -0.005370520283293976 -0.7766395050828753 0.44676568393831445
Ni 5.151182190821387 4.4603649447883775 7.19968254340157 0.26425104093842877 0.6333724947297028 -0.1765244868547218
Ni 8.221618888909013 7.23630997312197 9.062449874613623 -0.8334809395519517 -0.5945843182179116 0.5042437235501251
Ni 4.762272100400324 0.27629339743924225 10.61990743777734 -0.4562749089803304 0.21975707229111183 -1.1958272794029212
Ni 8.018177433791307 7.341267619110865 4.5031837166695095 0.21871731817268786 -0.19241107617799122 0.8610688764725494
Ni 7.173635988862557 6.133331149875328 7.096728617828251 0.40757461556114966 -0.3217900156951619 -1.3001233078095351
Ni 2.419440339482082 5.3171387723716315 2.525932692251093 -0.40856320472666413 -0.31865301272807695 -0.3355742139634479
Ni 2.3916345310942377 5.289631756454252 11.143742248111508 -0.1513227907781136 -0.6574156517218355 1.5525652719281777
Ni 1.4381605948876761 3.523786364639035 4.029971594285991 -1.5634173841513335 0.16057644816589764 -0.6644530181845911
Ni 3.5341263949805906 2.8795626353640356 2.8550969646233018 0.0940740935682896 -0.8310592174843365 -0.25563398869337906
Ni 1.1321427792275107 3.1280674276182787 8.388590459427112 -1.110709623696971 0.3157620643335272 -1.072931633617249
Ni 3.6672429677315157 2.6708244046335357 7.15509003076395 -0.3624988062684338 -0.4605177434170843 -0.33329955899665825
Ni 4.148389388353481 7.007335343255413 6.045388376931839 0.022829596300005844 -0.6744610372398965 -0.7090434032004562
Ni 0.6654651576298943 7.198616850256911 11.187619469683469 0.31165292726116 0.3249195624630791 -0.2708549194081916
P 0.1067114672473522 5.505251268322741 8.105569704243758 0.723059000753258 0.44363099496407465 -0.46978939852699736
P 8.419808840000362 1.6116865856897076 7.921513542437147 0.21854454004024942 0.4315966895073599 0.9403596410840773
P 1.7476643227032695 3.165181074176981 10.44488929548644 0.44869066887516923 0.005067901441210627 0.7827571879448391
P 4.04099613101443 6.092939840458794 3.7475339371359078 -0.47266312053036663 0.053772308625449336 0.3667493540146716
P 6.841740934396641 3.964061597028265 10.44767259262041 -0.21263563075498218 0.2668558255511275 -0.12394748408895429
P 6.417039127740752 7.580727148395567 10.367272971408577 -0.6406307189540128 1.1334314907745189 -0.5065412613350503
P 2.3388478613120385 8.357171073010095 5.937067052070889 0.6413439429709535 0.4864989979721943 -0.37849723857921913
P 6.940867600052818 3.952137061161514 1.4281718720568488 0.7785385218778011 -0.08098923535987343 1.1310946151112262
Ni 5.418194007609903 2.9483030122056237 0.3146782701450149 -0.0532316056306309 -0.7744887772884598 -0.26410423094791935
Ni 1.4845005907616544 1.0693963604298025 6.932669821181325 -0.5705614729407529 0.27262306705220785 0.7984144348661217
Ni 6.9118756761004 0.5824479332904386 9.339866007396433 -0.5115821661930673 0.06538701004624223 -1.300652697950444
Ni 2.7880234875942187 1.4921424345517362 9.245034709861125 0.14822538279971248 -0.11090093531764125 0.4471372083451202
Ni 6.4155632740229995 1.8340606182541688 2.475151553747926 0.5683287269554922 1.2384607978027318 1.2151961708478363
Ni 4.1358672675458 6.956513460324455 10.317630866020092 -0.2895784639596239 0.35649605171777954 -0.13007982223893727
Ni 8.290857253201377 7.392659924030892 0.150029132010988 -0.43270920584524836 -0.2840886444896462 0.7412966068072072
Ni 7.709026824349899 3.8247156539840037 8.180655346639954 -0.2556668988138436 -0.1857650316163833 0.12637460547320814
Ni 2.981007206245641 8.401881291772446 12.32862189837614 0.703978329972723 0.23917275781356226 -0.15768601399198007
Ni 9.127385627331286 4.827327370106173 10.219315467192814 -0.07370350033173759 -0.1837811684171351 0.3327542280161495
Ni 8.589287550975182 2.409878980427193 5.800943540549009 0.38899530989706554 0.06581818404638987 0.048868443565928746
Ni 3.68900049217176 2.690924989010291 11.440849710129706 0.3681333788463918 0.4999381541962358 -0.922997495656546
Ni 0.9703240206773458 3.4036174656082725 12.747911939589692 1.088611249136035 -0.1754122276271495 -1.1413659151302473
Ni 3.081573508350424 8.35952519550467 8.116211243350964 0.466905392110983 0.17673634575521177 -0.8018044343842772
Ni 5.50650981842561 7.729118354409368 3.567267912545562 0.9272565280432159 0.5045622832318084 -0.009289395721725937
Ni 3.165090531004113 8.399174050903683 3.8213202850014434 0.4404793367089704 -0.19221412967583673 -0.32736133913535237
Ni 3.2443972961194265 4.208039230639094 9.042413575889604 0.3066554740465686 0.33348853507901277 0.8379888547246342
Ni 7.254889432194538 6.003302099319211 11.575303605543894 0.47608114507298005 -0.055119566681963134 -0.48015197270824406
Ni 0.7318821966556821 9.311822070463943 0.6312968804845968 -0.5536011909373304 -0.4348725320451543 -0.3926755869621302
Ni 4.624184707458931 0.5262649890939509 1.7418840465473595 -0.5560825625982875 -0.6768498491870473 -0.6408801159606575
Ni 5.9835546333166425 5.612110320941868 0.40821298944484835 -0.3896864224268192 0.44310494725727556 -0.03676960341986571
Ni 7.9604833240396475 8.837765180277565 11.352803717969145 -0.6636099534580056 -0.6096406983304016 0.21442820387903072
Ni 0.1715937994930229 4.945966089515462 5.788592546338049 -0.602173443419079 -0.1754263686945366 0.32383661381154555
Ni 8.026199558907436 8.747212953092012 2.5296168939551023 -0.6790548272581659 0.9720191769708871 0.11786939621567441
P 8.486448615231405 1.5929079316368293 3.6659282808614684 -0.18008366496088984 0.02860275133835719 -0.1982078853654264
P 1.6908937533148667 3.272112561334403 1.6654465945802406 1.2648202616328668 -1.1050470260945549 0.12542458285511301
P 4.7973485255694905 1.0429034280485476 8.229302382558615 -0.21145138063889388 -0.427347941533335 1.1294560510665386
P 8.541933471565079 1.5631011191285962 12.447663534904692 -0.702296571394926 0.9159629574072676 0.8053664407039227
P 6.309826956747439 7.882761064449529 1.3976126457820803 0.33723797481911594 -1.2209287024562392 -0.004656010714772626
P 1.8618573723247265 3.420612419155646 6.178132817242275 -0.5878619118924134 -1.3593993198620329 -0.2265481270710163
P 6.98343194561819 4.007766786571777 5.966314307770796 0.5261492653739648 0.652513843544844 0.5652498309198524
P 2.4047270738909887 8.472713215907289 10.169487748299948 -0.12176050373996448 -0.4751537481627042 0.32086827521184097
