# total energy = -340868.09633249126 ev
CRYSTAL
PRIMVEC
9.24080982898401 0.00000000000000 0.00000000000000

0.00000000000000 9.24080982898401 0.00000000000000

0.00000000000000 0.00000000000000 13.52485926009130

PRIMCOORD
 96 1
Ni 1.0390551488666084 6.520574221238036 6.879852290468032 -0.04748261896199564 1.3285651080899956 -0.20019766210194553
Ni 5.572513327639828 2.73999254896247 8.62868480837197 1.482314506031731 2.620221258968784 3.1291343629701207
Ni 6.5118324150550455 6.565623169591183 6.145330804711683 -0.6274075353955194 -2.5027892074008444 0.07231484751432707
Ni 1.18869158387841 7.083136247462234 3.564463154385427 1.0892704799865884 -1.7579177387581852 0.24386939195828325
Ni 3.544830129632381 7.562383131460384 3.666129621028812 1.1741924747419648 -0.5304190963939123 -0.06176046903724847
Ni 3.917521234459218 0.5990789347795091 3.0637461726224138 0.36015653128850234 0.9926548509433677 -2.2713153608934364
Ni 4.783634625699329 2.867109130202657 13.467405750158026 0.6978395640648369 -1.9831396908186103 -0.6292528161343743
Ni 1.5012619793748705 4.457332386663837 4.326629447094244 1.929921712034734 0.5390086378351362 -0.1962517900803201
Ni 6.3585088968857235 0.34601473475383804 13.112729604267487 -0.22042273089956876 -0.08644948714349629 0.9567535090610684
Ni 1.241086976116841 5.704878688913777 13.113662926069265 0.02221973063014883 -1.4699127899332685 -0.9040633777562044
Ni 0.3089489220893635 8.70462116387802 0.3323873123668867 0.10615622154380427 0.7741915577630151 -1.7688079033081279
Ni 5.18187656995108 7.483300280177053 8.403063041561548 0.8949663005509425 0.2528677388021516 1.4035245923160216
Ni 1.1704132618594298 6.759781826790774 10.648459721251081 -0.26201083875400033 0.7201315426938178 1.4670521805560217
Ni 8.306730370403177 0.3888828519661982 7.590178563614526 -0.5457248735130472 -0.8030331645850557 0.7848845187004869
Ni 2.5866875124129867 0.17220341691400132 4.830796023199868 0.4587866196585905 0.19513747397021877 1.3320661792647188
Ni 6.917725749919392 6.02169985697279 2.370313024088103 -0.2327524561095153 2.2579106574517565 2.499514393304315
Ni 5.061284000513421 5.7418881326377464 3.8035959093778247 0.32780048355529995 -0.21472799450763666 0.49618588624265514
Ni 1.248424179192205 1.6701562622570234 12.422705390512148 -0.8058948024035669 0.13537218098612816 -1.3071226219455037
Ni 8.041121770913014 7.219077802174679 4.369747066174406 -0.4648883616809542 -1.3287844231896533 -1.1905616601286078
Ni 4.283494270475236 2.8509746760847907 3.8681364980922646 -0.7482007901262081 0.549519564668789 1.6329212445794263
Ni 8.25055548690804 1.7177371925278666 5.732295247861254 0.6647384106354939 1.5332737706884174 -0.9704901419208706
Ni 4.379589452818701 9.454457443912457 11.88199510750245 -2.147250891610644 -1.3754532880011021 0.3027296566296012
Ni 6.4205886579188425 8.66293587033524 1.9296049378554514 -0.3149418824250769 -0.8448606421438031 1.0176295186108346
Ni 6.835990786189423 4.862754440222336 0.6181575109374394 1.162123973613205 -3.1272659423028144 -1.8409209192242941
P 2.1448289453454694 3.401338833216445 13.510333932634854 -2.420084274901445 -1.9714933648289334 0.998007630614849
P 8.931446084139841 5.555168327422626 3.177300941226071 -0.33518109229008725 -0.5481473669116109 0.9035841241269407
P 8.151521727010461 7.34688744415876 7.212320921962203 0.8622837227162569 -0.7169264054929588 0.5014196238377687
P 6.265093549418651 3.496870326154875 11.978941368439415 1.319504283439308 0.6734955880028336 1.493745373576492
P 3.9727350737228204 4.641307671333136 8.79010327602998 -0.5038202628594614 -0.4158219431716065 0.20406305859462276
P 7.769848554942751 2.9918877865334386 1.701535280497595 0.006014838735512222 2.304767727014611 0.771528409108555
P 0.9214787797863788 3.174125798938042 6.186054129941937 -0.7457461579381286 0.15539978906096463 -0.05085410653738984
P 4.9654013567980835 1.1095440469256477 1.2642601551497008 1.0907560633931797 0.119370149130917 -0.2664732454007282
Ni 2.7112628709255597 3.435308050477198 2.1631257489842866 -1.1532120158355559 -1.0099167233476092 -0.43386363116466575
Ni 6.1751065424313785 1.4174847966528925 6.957512057023901 -0.7023559638779517 -0.2739703251087217 -1.3653442245915584
Ni 6.270453219171436 5.047977234230645 8.09875300605132 -0.8750250815423252 -0.4861164178217951 -0.8541942608399031
Ni 0.5048439274726575 8.568864425363948 5.325575784590184 -1.1730521904899347 -0.1062662647591073 1.1886438742806045
Ni 3.410912312292109 6.567369682665798 11.925355759883468 -0.5885851632116831 1.0754027208655608 -0.6162939419808613
Ni 4.316003439768852 8.190323887858641 0.9585187181830814 0.06017666948989636 -0.7159583851527347 -0.8779903348182363
Ni 2.9529562543464003 1.056954597678926 0.31427070452148204 1.2473694131462711 -0.0791884347057088 0.01940540110980529
Ni 1.8000543272827068 4.500228226305953 7.6948603065343475 0.4176281431424098 -0.4736717643005391 -0.3534505800232365
Ni 5.364946255248356 0.49458570438202565 4.7629278188337425 -0.1339076806254597 2.9706500214465614 -0.24060691915692756
Ni 3.074944186081767 5.730143063231213 1.9743452431573187 -0.4513270780567517 1.5437317327969478 -0.31032315270614297
Ni 8.95308806096919 8.296454589773699 2.454031989707594 -1.0133398900965451 1.8773123133691347 0.9398063396837685
Ni 4.610868443461285 4.266001417299337 10.899508500633509 0.045347317786547714 0.22182269657088893 -0.8046665864234206
Ni 2.2649317518574428 4.6753877783129125 10.461100451989594 0.23796845309281597 -0.5481483953528754 -0.16964961411175947
Ni 5.769592080773694 1.6455757078735618 10.971582197593587 -0.6512825422409042 1.8259036198798557 -0.5213754981344053
Ni 2.2524012136078286 8.620169402031985 1.995539040705615 -2.062217310978068 0.3350795337152165 -0.04321175950078364
Ni 0.3743461338832571 7.976334452573747 8.755696044379084 0.44144504305634946 -0.4127805852421214 -0.06747423159257411
Ni 0.9844512030576332 1.7194282607429694 1.3347573699376667 -0.46418670762823927 0.5671321355442298 1.3405755022873105
Ni 6.645463767287841 8.626175928479071 10.933145048737192 -2.1215588861611785 -0.8089230477069295 -0.38642420673577965
Ni 8.090883532324645 2.7949568863582703 8.075491115243242 -0.4012941818690766 -0.15368512036270307 -0.692081321424821
Ni 2.426793778391545 6.518458075766677 8.842823944777544 1.3256114247783106 -0.843920903938353 -0.6714978408465144
Ni 8.890786520498025 5.12849241105136 5.630993793209653 -1.121958714248229 -0.6931586136493998 -0.614084335924052
Ni 4.309322334197708 0.9515446789375179 8.588975199989786 -0.8730553594104641 -1.624698856669634 0.4315843482121857
Ni 8.71534050338359 5.0171776147719696 8.00322705759884 -0.04313976861226764 0.9569504555632229 1.3410048765152454
Ni 1.3933755235752794 0.9674481128074192 6.802071469302231 0.6692602097652475 1.2714452231485522 0.7570176170868897
P 4.919095658296007 7.205771035891903 10.601595877829922 1.041936213676999 0.5815745362218049 -0.5719426695589956
P 6.897081780561252 3.5760733079671496 6.273072988783357 0.06354455752086476 0.33737372906603186 0.706777489984415
P 7.532535315423325 7.316328085757968 12.830438570631285 1.03322814438004 1.1927355278514749 0.4045291438666065
P 2.088589376180903 1.8493817706281646 3.641703388170991 -0.30243192288352433 1.2261680964783075 -1.3993774029168673
P 2.365980008317274 7.2754744651078616 5.4102003495816975 0.8123932656437169 -0.19277463016499705 0.9592071128078835
P 2.9786826691597676 1.4841664810254707 10.610224946131906 0.31821386830812937 -1.2613546716817696 0.8939329741904217
P 2.3335170430732517 7.297809502681105 0.3232426068714455 -0.31830180003624536 0.8518393874544813 0.053417496389191875
P 8.279950503259089 0.7894054281058581 12.23042169364504 0.6434918425518917 2.324635669583132 2.299750219195362
Ni 5.813005405771251 6.064798994433114 12.426492274416786 -1.384500742915351 0.556005686613765 -1.7888064579172418
Ni 2.591622104909516 2.671536629085522 8.874593849277673 0.016041369733578822 -0.702456751121874 0.2257433717815338
Ni 4.750838991298237 8.096871577151894 6.13791967515697 0.06261304684553087 -0.7491819230925549 -1.1903120060116468
Ni 0.37005470175706173 4.317056892099572 1.521613939139583 0.7604934914506322 -0.4369548684954797 -0.7510963665064484
Ni 7.915289662251511 0.998839144100885 1.409764099965907 0.933102959521664 -0.5823042152989777 -0.588956687618489
Ni 6.99578287130176 4.126040110272304 4.184064079832151 -0.48854199654415215 0.6766246205501186 0.1360563515373463
Ni 8.91272420324477 6.5742725676749885 1.0659459057297185 -1.036089782198551 -0.8213597308083854 -1.0276964159285331
Ni 8.834380616754926 8.540171710566712 10.99464263874544 2.388530925575196 -1.6757375684140041 -0.4712204745465691
Ni 4.092699268086015 5.90222542553528 7.0071074838569976 -0.680182513104706 -0.5850347268562633 -1.1116367634969309
Ni 7.248611430674507 4.091488721986679 10.180189071274238 -0.14875477294062123 -1.0451614054825162 -0.8059894189999023
Ni 4.89520816465644 4.125633514635886 1.9105624008562037 1.1974097933986927 0.06506253682728795 0.84827378159041
Ni 3.562156648229746 4.679730958974652 13.06487884234702 1.0833034637698762 1.7334130687486018 0.3399486888820597
Ni 1.8686396184985157 8.505500191752144 12.024722188938116 0.3325742507948595 0.7660591584638677 0.7563730415243554
Ni 6.257294305847358 2.1371960363527105 3.04000930418452 0.5773134469526057 -0.9115622572364108 -1.131660000696393
Ni 3.104320720812979 8.352712640558103 10.055989813725352 0.367883724729431 1.0693883963506807 -0.36841671441476553
Ni 8.021438845786406 5.377726295365773 12.010832327549478 0.7350858500108051 0.23056753264305455 1.2279611838229882
Ni 7.129488150013905 8.705924118076542 5.79797153211469 0.5573321187346724 1.5176093246782831 -0.3584436623624537
Ni 0.40307211559620015 3.0682538397007044 10.006204950288923 0.7570865226516122 -0.0024492328714409432 -0.18863721095785577
Ni 4.202544775588348 3.287122422622616 6.9576746952784685 -0.49157384139194055 0.7028568147737702 -1.8015763559884006
Ni 3.1508112355134283 8.389315488645655 7.5659685657088 -2.8279106014620847 0.319568839674127 -0.25274689695357117
Ni 7.377548451468657 6.60720681422486 9.653287330525895 0.36603433022551796 0.0500794331548944 0.08525443839413059
Ni 9.121353968776878 3.130980457428124 3.570359715194482 -0.7527552422661101 -2.1143266300787973 -0.3173803166632405
Ni 7.926692821691057 1.5494620439102598 10.223238308361005 1.0628454530258404 -0.25311045094057694 -0.4820797858585762
Ni 8.323280660967379 3.129252425973347 13.16438111130747 0.3519022616995101 -0.928326106958311 -1.2594060325958312
P -0.04047105111947669 5.155226074145854 10.311610021774506 -0.045747895659076054 -0.8646126279597496 -1.4634765473896216
P 0.620770811982418 0.8569012278322644 8.910515649674226 0.737169472012711 1.5065234991777665 1.2593628380627215
P 3.6217598722046804 4.675369296693075 4.91999201685811 -0.11533968781528524 -0.45467156904895245 1.3032551685702976
P 5.848952156354583 7.879361393288016 3.941171239283877 0.4332347393314152 -1.6306774428505721 0.1448757496011892
P 6.486244612390457 0.5662066016560927 8.972431848371784 -0.8584545787781538 -0.36977657087676963 -0.25886689380837996
P 3.794831001170038 1.1886546206387356 6.405414323951518 0.060680348599192274 -0.3868605229422499 0.3996779864218923
P 8.554938524816626 0.5568086979688821 3.979053939545155 -0.6405376450195742 0.09057353661419884 -0.8278851906317289
P 5.056524983405345 6.081099783129516 0.9118923635768289 -0.4448661529227565 0.2802633572062851 0.8248523173426763
