# total energy = -340891.3074195231 ev
CRYSTAL
PRIMVEC
9.04454790413795 0.00000000000000 0.00000000000000

0.00000000000000 9.04454790413795 0.00000000000000

0.00000000000000 0.00000000000000 13.23761009462008

PRIMCOORD
 96 1
Ni 6.594569603204836 1.9122706136106244 11.433733608852823 -2.0018254401535716 -0.04678636422591942 0.501268185861569
Ni 4.858975182748713 0.09244251228593882 6.011370841664063 -0.3203903071341579 1.1974432177397893 0.03005439618321921
Ni 2.8895972954830507 1.618178103289555 4.799030634506157 -0.8874661355191555 -0.9497259127903257 -1.975155129951237
Ni 3.4893502925275954 4.168695308603554 4.6492474992366555 0.23792243034622895 0.9773282478886266 -0.26530236502107857
Ni 4.9139027204280055 4.877127589816445 2.5876351242802498 0.09126387781300412 -0.16844428094974861 0.14728872991805603
Ni 6.9364173249447525 6.164682254959036 2.7490142740497707 0.9098558160682653 -0.8643382912524404 -1.0132828116063648
Ni 5.057620582065407 4.335730013998114 11.472189216411657 0.6080720682917011 1.050921190784429 -0.1646285067480842
Ni 5.667729586131655 7.622536707185998 12.234583077618325 -0.24732109795230955 0.07267917283228129 1.2483708578275918
Ni 1.6411964769753444 6.578343684779568 0.2964287169705937 0.9000876809379079 -0.5302218927814417 -0.4619092244479723
Ni 2.8111810676418747 1.6668377694701233 0.5292281369993818 0.25606439136257836 -0.5906793267365504 -0.004171100658554107
Ni 0.5789767667130614 0.5046631456710503 4.859156073701057 0.4052112575352957 -1.1137633229216304 0.07315122737269338
Ni 8.849230611412409 2.46747921364043 1.3390371346344887 -1.1149043785046089 -0.39133629932541636 1.2012687621334666
Ni 7.102999802958453 0.6075493970905768 4.88110357294897 -0.6889399475823619 0.49550377257396594 -0.2002601399087648
Ni 0.7023923323141221 7.177300761633799 2.47062762066598 0.2288466932972059 1.2720280922352158 -0.8925222098858242
Ni 7.487763903142012 3.947963124005642 3.7324496433828576 0.18425373717817944 -0.3850844048784336 0.23913599103835592
Ni 7.722379468332336 3.610257805074405 12.609207335468234 -0.2175235549749028 0.8393649091365544 0.45714882694485137
Ni 8.163898104813862 9.031668181399072 7.047200370888863 -0.14543110788402694 -0.6404098611924584 -0.38350111955171373
Ni 6.985465906672862 0.64919411213924 0.2694379779713277 -1.578648856389107 -0.23893904453620138 0.48737188749545096
Ni 1.6476633285216464 6.581590677374146 9.10490731018416 0.17549810247273648 -0.7775987836723511 -0.17711275525802403
Ni -0.012470622254603594 5.083560344631555 1.4124128360885957 -0.4315493812091923 -1.3677237805673284 0.746488949641424
Ni 6.658948693144108 1.869833596190694 7.058028503296182 -1.6445973953657742 -0.09567460528619007 0.3672450627041675
Ni 3.238020403340676 4.397232937795114 0.4771586763671269 0.528157039832613 -0.5969265931978429 -0.7545365025362489
Ni 5.923165699936786 5.570310763746728 4.793020532614524 -0.24403651366376677 -0.2401783162599412 0.7137099554381902
Ni 5.208628349082279 2.916106864549081 9.341622114876435 0.7305823057134966 -0.4829205365923167 -0.31596286749042357
P 0.10988401791095881 5.294063145874406 12.508601214503004 1.0462422972515206 1.0764095648635204 -0.5567060551148992
P 3.8746299319253357 6.142143242296959 12.56452998360352 0.10034809950245943 -0.24112936731930085 -0.10939581152702452
P 2.196667368886049 8.565665954517769 1.3402816643866164 1.1771746972987405 -0.24650708669144644 0.35674030651810174
P 6.620943504056609 7.674443365961144 5.839400526634795 0.2285697854867354 0.01665843449228744 0.33882871634500356
P 4.856876847701521 0.9594275221379752 12.622179930115593 -0.1807773485938048 0.2790739648838742 0.19740390140689232
P 3.985036724688569 6.147832262748182 8.170014027912616 0.23122599216265982 0.4973670510349498 1.126231887702286
P 4.629487876057347 0.952924492401204 3.7556950352138387 0.7112275553359686 -0.3009162575699463 -0.2972233820993913
P -0.04595353753350011 5.626567849925749 3.7476860882988032 -0.3643890813126111 -0.8278687355714969 -0.19503565828503186
Ni 1.404808180452049 1.0581939821178645 2.622913382261162 -0.15766133140163172 0.5528877098100736 0.18779260356937336
Ni 1.6035711588877675 6.666265732166428 4.731651468122258 0.7891150118420668 -0.4224669592919499 -0.48832679520955247
Ni 5.768467757492094 5.432688927203323 9.316325419645873 0.33259816205425946 0.6913796673721061 0.23692612787123069
Ni 8.574032161063684 2.3183708016231726 10.303308060554427 2.307392309121652 0.7517375996348731 -0.1514562310321843
Ni 2.525717055747619 5.47769459614654 6.838787764600347 -1.30641556857615 -1.3613034788632812 -0.5244245693733742
Ni 0.5070029701396215 9.266772152160724 9.041075415375728 1.2765545193506593 0.09890751040119095 0.5731986534532838
Ni 1.8873438403776048 1.05387068835684 11.46179793565425 -1.7587744303315258 -0.012943190424229322 -0.19775717098125298
Ni 3.892728071707365 6.855640470175487 1.6831360442763283 0.7617001101642237 1.2810225824243422 -0.7256954099348405
Ni 5.722150629144382 7.7435979770423 8.164348523285199 -0.9858177734168764 1.4006192457437683 -0.026821491068218326
Ni 5.4304549239418725 2.672094014384481 4.899318387395261 -0.3116974073458503 -0.22296323793323536 -1.2828624638465584
Ni 0.8179147212096471 7.320295059461826 6.790761216752983 -0.4923333452657843 1.2682727389578414 0.7800554727429598
Ni 4.792461579571781 4.388224568368377 7.140432472181783 0.5687105357749432 0.1419125532078072 -0.23208885438358737
Ni 8.157304629600919 7.379048440783197 9.001574258112342 0.5400453066297667 -0.07755578419829223 0.3482782917936776
Ni 4.811934490591625 0.13939275896685502 10.632686064494504 -0.5694224742403032 0.5717287537759767 -1.7513292869073902
Ni 8.24593215170192 7.565519879007132 4.252171960836556 -0.24068868023745646 0.3990773767234159 1.6332146074501293
Ni 7.071868470060029 6.078098800619523 7.269102015493679 -0.5206658736618904 -1.1792120394437435 -1.8416097177612025
Ni 2.326465671740572 5.3442242069594315 2.3701671169173877 -0.9911088466124867 -1.018857477480665 2.3009126149345795
Ni 2.121715202782263 5.182950878397031 11.360238519370169 0.34571387350061106 -0.45570798073326674 0.8261083012369643
Ni 0.9851592601089263 3.528413693686308 3.8803406592908396 -0.22777762860274317 0.2507926014406778 0.15869979996847508
Ni 4.007937519255335 2.7456171419647486 2.556222505950932 -1.1144354092879905 -0.6619734462958471 0.11677179227612147
Ni 1.1450939956239794 3.5685081732733823 8.424189331779909 -0.09177244201830648 0.10868001640692251 -1.2528314647021068
Ni 3.897738751087297 2.2787647276074274 6.646326122489536 0.8001177907104736 0.5336789980921067 2.4684500677993424
Ni 4.4685944184948685 6.860542614984012 6.115470871373819 -0.7758900285113605 -0.24905967790997108 -0.027927579648203513
Ni 0.5871503243947306 7.221329619434358 11.256217177224682 0.8756693999945434 -0.5034392253709588 0.11726158742834643
P 0.00598115933925831 5.703943954790947 7.9190956656422795 0.7264808819506133 -1.1322708948075144 2.192663001196856
P 8.729245642722555 1.9269499143933497 7.902072018117174 0.12212971415392516 -0.8585803057227407 0.4027483978170999
P 1.6918007208936117 3.0756617290642114 10.51301855942601 0.7572868115878765 0.5286072399961541 -0.34174768976401143
P 3.6715617488238275 6.34141271539924 4.033605945392965 1.222275703402437 -1.1457607017638332 -0.9054926540035632
P 7.011595604738969 3.8929541853977954 10.367616603022286 -1.1707633944557578 0.20816988167414469 0.31204167805914645
P 6.4321204834522 7.566786115673541 10.179761349012916 -0.5693049748258324 0.44143527286433654 1.1982893677901685
P 2.525301006557228 8.414468252000937 5.987000308109502 0.029134712582427242 1.1169332360091795 -0.6963023014847041
P 6.961506900034883 3.919083883463903 1.5720056877037185 -1.2765419209451692 0.24347292785081293 -0.4416509884195684
Ni 5.181802220849646 2.910797715097781 0.3462677921604455 0.8185469439499388 -0.2507206105521617 0.2703633244837538
Ni 1.6960697473689328 1.3488857425348644 6.87417184378838 -1.1260735077475512 -0.25176807798006967 1.2409439692359017
Ni 7.1255478601681475 0.8156119793863065 9.441539945767994 -1.9234551304737841 -1.3764094812667844 -2.3655565761672097
Ni 3.0287567051213813 1.7844802003271214 9.03732916375268 -0.20347607574290116 -0.32436677528340263 0.35869563047225966
Ni 6.329057863354137 1.8705300263572189 2.613620109584483 0.9959700313595299 0.042257623117630455 -0.426314358062498
Ni 3.8069948048438693 6.792039211331295 10.37518869828741 0.46213856684995896 0.28410201422608494 -0.013600621502570123
Ni 7.781521765201245 7.000923038550666 0.5840218153739389 0.8161074812705106 0.056460654090889864 -1.390911274427385
Ni 7.659085724107127 3.8084419324626224 8.167856903305912 -0.022517978596857995 0.6751143545531793 0.012087784402469505
Ni 3.146498626002169 8.322051064448326 12.524300740256951 0.558215035560258 -0.2113433943061199 0.1299309553658988
Ni -0.03188926598874482 4.835350824372571 10.250768283446078 0.5370075482447074 -0.33036001675236004 -0.8284526330994249
Ni 8.451288605350582 2.554225469837053 5.646938884523983 0.5946604228714856 0.5816082176732177 0.7122536826076379
Ni 3.661585612802049 2.5832765567835185 11.456449894648197 -0.024609571018564067 -0.18823920418848872 0.13394419029034998
Ni 1.15052976874192 3.132570022671672 12.74636156889983 0.20846170188295063 0.8499984775910007 -0.71838010722035
Ni 3.1029672183205563 8.385525699625877 8.22337504994461 0.9819436351734508 0.07910281697043797 -0.801307954363833
Ni 5.707335660147399 7.9669259468063505 3.816071912832497 -1.5407484817989077 0.16694198537260926 -0.4379894804075812
Ni 2.8900947456019965 8.404184601360173 3.6662489815534802 0.677927141411626 0.20274176868003793 -0.24336159908392926
Ni 3.2414754205304486 4.392701619438894 9.294853663602625 0.36824085095853354 -0.12851530596529478 0.2118650711375448
Ni 7.391973099328184 6.046623774911646 11.448626360959313 -1.0217155157547502 -0.34008701423213683 0.19015956113965315
Ni 0.4265716170893322 -0.3881757035447694 0.1334387332704483 0.03069691486322455 0.8467838273084449 0.047181285671492934
Ni 4.573520215402075 0.2506198921989689 1.5520968294887247 -0.271601567766229 0.11078780677854468 0.007327644009664799
Ni 5.844034952833851 5.437509671083293 0.2865041348702336 -0.07172503644912807 0.20476265576480865 0.5780336129480819
Ni 8.116314739799742 8.863303927504782 11.360966605453353 -0.888540599530257 -0.5088531972976785 -0.6431851099447504
Ni 0.12098529565631742 5.0479338715673805 5.948002027693633 0.03723728708490361 -1.4624532483314296 -1.0741210259396599
Ni 8.07537007273665 8.928270913039173 2.2263280583419145 -0.01860295981316796 0.6587492829315945 1.0311085269338758
P 8.377593631365588 1.8091537262268593 3.560255023572682 0.3789021873271216 -0.6696343052752145 -0.7873064978784182
P 1.869345190619365 3.177955562614811 1.9504557891957064 0.9750389376338175 0.12840063476430147 -1.6271869131988104
P 4.986747506936982 0.9219016940741876 8.209065671159427 -0.25019533417631107 0.41679124906341114 0.3549037675299952
P 8.646424720191801 1.5035927295271727 12.4952044305724 0.8064013097263402 1.0230584029358896 0.15760708112492858
P 6.172867570552608 7.85725176240011 1.6005991205407535 -0.02767766842092653 -0.1950837379141479 -0.2922945773392063
P 1.9874579379524577 3.3070393462075747 5.877181410941387 -0.8660750714378891 0.7538525890953468 1.4691232041524376
P 6.63136282291163 3.893442590969124 6.068199543252492 1.5066975628617858 1.3010501904991787 0.5855515185916819
P 2.252843054136515 8.42805316252198 10.207216073304947 -0.07383565503422768 -0.109556762584921 0.7287987314505125
