# total energy = -340859.6905262154 ev
CRYSTAL
PRIMVEC
9.36735052803730 0.00000000000000 0.00000000000000
0.00000000000000 9.36735052803730 0.00000000000000
0.00000000000000 0.00000000000000 13.71006436408633
PRIMCOORD
 96 1
Ni 6.670003172373205 8.841991992750245 10.206868351131783 0.577280022611509 0.1583475588353789 0.6843847241115116
Ni 4.483279509696007 -0.027008881630035703 0.022875069864581276 -1.6839036491645645 1.2927141598296576 -0.12521220973399083
Ni 1.107595520388243 1.0942657806596194 1.667815536069325 -0.9637399676812305 -2.775893327854529 0.9694791841578531
Ni 5.364784658973876 3.9406944680227305 7.564651651105207 0.15445105199445014 0.3332419662858454 1.005361756987075
Ni 8.421988099417636 0.8766416209102643 11.480807407818661 1.7841833573229335 0.7479220825435249 -0.9390308949703247
Ni 8.079958031454714 2.8470094630926788 1.8452921684097492 -0.4059260242141332 0.22292210028265483 0.04703139035718997
Ni 0.9605843220038293 1.1396037569677986 7.636931064119988 -0.7390373784593853 0.2613552074478725 0.07970676910302402
Ni 3.450978752441058 7.242704245829704 9.909182383591443 0.019673567169527405 0.27928222423993837 0.8846515488884958
Ni 8.070562578926387 2.84407748239341 10.20655360815576 0.8716271116043698 0.9645694055610614 -0.18056600391394712
Ni 4.924097655788279 9.223645953230438 8.754603043416228 -0.8909548653987042 -0.276974144932052 -0.09387740417645123
Ni 7.2597809257490855 8.715485924559758 3.545793200498109 0.0023705571147055945 -0.9725714499299316 0.9885817093152587
Ni 3.8935766951239414 5.850013413677115 8.218950777830903 1.928067175324499 -1.6751223034275087 1.1102668797325976
Ni -0.22212236144836078 4.073963763257537 3.8195006242876914 -0.02663354342712833 -1.2896404060003401 0.08973895652804545
Ni 4.537104305536254 8.075546009380094 2.1329841097262903 -1.372465923238004 -0.9125945551556671 0.8314965621320711
Ni 2.841651338619894 6.19052597086278 4.55157686202306 0.7638168993969104 -0.13648829686844238 1.3938317905082898
Ni 5.414347310347136 7.258994068309026 13.142001163835866 0.2560019135557591 -1.2065243541054511 1.808125469960828
Ni 1.1877332037180928 3.3930229550404993 1.428437578307473 -2.3754558375587926 1.918923561152018 -0.6341620805105337
Ni 3.8108255210110378 1.1776539346049522 4.578530476285282 2.6675989769218 -2.4935293793654734 -4.029851964182543
Ni 0.819023048126874 7.050148989426619 11.697687799940148 0.329965866637735 -0.9855781466022446 -0.9150221907605532
Ni 2.812874837954868 8.218163920390845 12.102298326234074 0.05859081306001522 1.516141481883505 0.265393124962672
Ni 0.3318421375842496 2.9597455260821284 6.085650988393542 1.1834607874177683 1.591813418795523 0.26780893349301615
Ni 3.099525129898378 6.033894503538593 12.687102016506723 -0.042309302291172295 -0.23772162718933254 -1.0450439060680454
Ni 6.2754972070387085 4.674944867803787 9.92216553135242 0.06036744534446377 -1.7664478877163838 -2.0808860910321645
Ni 8.086871136106662 8.034947912413225 11.905792858134882 -0.9236261303794803 -1.126061423562693 1.5319329403898068
P 4.895077604010854 0.7844303595507427 2.5788353332297995 0.6419093285561203 0.24196523295703487 -0.3820774997313098
P 4.705744716171822 7.43096925571437 4.4421427900767165 0.5751768602255771 1.0303981311304125 0.635724282791331
P 4.089316850689171 5.843090941674689 0.830045609433038 0.2849149970456835 0.37376846564498206 0.6295744611398512
P 1.009575564997998 7.16783101346787 9.14462673154753 0.959016336953316 0.2735136971872773 0.5848586062897153
P 4.763822289128581 1.7996366389204035 7.72869269265662 -0.611294946104373 0.7426073551988308 0.45854390752016516
P 2.4235209153826647 4.236918192153629 2.8693796327665555 0.71624891980996 0.679392927323875 0.7224604479373107
P 6.860394570816127 2.4790130996077995 11.970764801042636 -1.4279282179713666 -0.06263053034702762 0.3035141002041095
P 4.26902946958843 5.23591801846321 10.773477836573157 -0.21387130293429618 -0.02350965308616596 0.0656916857708546
Ni 6.090173545203788 1.914330478159524 9.57534219015047 -0.9017799810386663 -0.07624092204161063 -0.16460279571647135
Ni 4.555932679994816 5.82902118125839 3.121137480918674 0.4951846986716505 -2.116055439844446 -2.7406419608514025
Ni 2.987304271185158 2.234309803099832 1.3462053554109894 4.221495308956575 -1.458508661861385 1.4713088989498468
Ni 1.1856068151598373 3.386016176883781 8.994076548152945 -1.1491275613535372 -0.19390514422501445 -0.6576179975406288
Ni 4.991289660759058 2.8596272841850583 5.55847149131457 0.23801781827351268 -1.0090458907068816 -0.3833795063721849
Ni 2.8415576651151246 1.6242236338900393 6.2978139828148665 -0.28010574858249826 2.2044926468419326 4.211320682416417
Ni 3.554553546664103 3.585943538112183 9.474147639683606 2.1431109013003415 -0.8552903221175593 -0.9216772341832256
Ni 8.953650810434851 9.180378161377654 9.193256394813291 1.7148767005073111 -1.3793855331759728 1.7798063113011608
Ni 3.1846087742800293 3.844810268541218 13.559295082675508 -0.022104545208523223 0.6882606621271501 -0.3199475631697845
Ni 8.192647257691778 1.201662453877238 6.028438958620849 -0.6475081628001365 -1.227596344284402 0.7110480923353109
Ni 4.304878319863513 7.7232961620468785 6.7274877920447755 -0.509457920761213 -0.1234234932646842 -0.1342403813745301
Ni 0.3861868213759646 9.025170531325955 13.233831174030978 0.15433869478630194 -1.5824857136366939 -0.1924720113229137
Ni 2.1051902441262906 5.845198595531991 7.193121923020443 -1.9097367524464273 -0.06518672110997806 -0.5205797417059873
Ni 6.010981964272105 6.711875229004932 8.518172990849456 0.9290514151601097 0.37205533960861725 -0.5705581305066433
Ni 7.102184621325779 6.583289609008574 2.427175118803702 -0.15247541632531805 -0.7033700069647629 -0.6541848034893636
Ni 2.0538571635128977 7.157498825891853 1.8178448947773949 1.2479219432156314 -1.7213008588661003 -0.8818012239238943
Ni 2.567675071871625 9.106188745600633 8.65942701563077 -0.8732818735989734 -0.5869982783405374 -0.2798524949211116
Ni 5.005134604763912 2.9146511008863483 2.730701629366389 -0.5267853562960669 0.6469957419400921 1.5791677050070545
Ni 2.0668309439233994 4.927207616146609 10.649758555149546 -0.6696399617021693 0.9550128722208778 0.4255697665869896
Ni 6.794654505169267 1.5736305739643213 3.9360220336048544 -0.12447533156796627 1.0777470527280213 -0.0381410298460956
Ni 7.093707169144187 8.837561235974672 8.020607435568145 0.3844945938132346 0.38573669375045183 -2.2342948178050293
Ni 1.024066856185757 5.465286962240499 0.1584056435045107 0.7361819112884611 1.4338798075691113 0.2445625613705659
Ni 1.139126022093477 7.510413755108928 5.592554596024758 -3.011307389956607 -1.2934122143379467 -1.1761231161057744
Ni 5.72959612329661 4.425792079819293 1.0638499936611365 0.7092349503859722 1.5250585818674767 0.10585540247393382
P 8.435907982226304 0.47426333423498407 1.0779647173597242 -2.101813328103135 -1.5404126957260438 1.5949792181180142
P 8.339836435735254 1.6753506327929406 8.411179113702344 -0.4686293167806252 0.3976267603198184 -1.3551965946345952
P 0.6141253707354305 5.322144479603043 5.807405083297904 -1.4245371900119466 -1.0260804775916652 -1.019192235112264
P 6.869321655820609 4.190840195157775 3.1795972417748897 -0.18633941606261456 0.5128116677247941 0.2768756716809748
P 1.4355370932339129 0.6114903350462795 10.443066093406728 -1.7506505156728107 -2.7181257820267577 -0.469358738747482
P 8.584736446603236 4.387367208163064 0.08771118619042045 -1.4767385546058502 -1.8640495348219575 2.0523962111225877
P 3.051910887424313 3.9897044457178534 6.121886710243321 0.8499995060322652 0.44515514491808494 0.29986776170077384
P 2.3294071451412854 8.763933861226267 0.5067717873300057 0.8554541013889332 -0.09997966041944717 0.4532199242040904
Ni 6.642285182312068 0.4375367632202159 12.819636911464142 -0.39283191003433643 0.09258593905853732 -0.6075789307053665
Ni 1.952633574259554 8.782565521324813 3.3728953290707917 0.5576856454193493 -0.1219798188396222 0.3438940466830529
Ni 7.374971234563482 3.479745885755607 5.536631513677685 -0.7296965606744336 1.0753405001690577 -0.2240590421005754
Ni 9.227168077009752 1.894434225746596 13.634069021122288 -0.7632900803591629 2.643050598158474 -2.182590704562519
Ni 6.566503316953976 7.564247918299653 5.853169274052782 -1.9580524088326792 -1.1426257556792774 0.2583855832965873
Ni 8.108968715881662 4.795212280576661 8.3079284298058 0.1784931805453184 -1.3604624710192248 0.012905909428390675
Ni 4.863134938884637 5.194017859780053 5.370712318355656 0.6977503467851403 0.5728137593100393 1.4349424445056707
Ni 5.708847441990285 2.1956507476816802 0.5961550455805522 -0.16637711400807476 -0.9365394960070387 -0.8296579662614356
Ni 8.1063177556967 5.5492184225134915 11.981087621268175 0.3501508262260421 0.23815588651327374 0.5271959614709243
Ni -0.13657128627791265 7.96243525237157 2.2227027191239093 -0.6792556304150624 0.256689426541087 -0.6918679198624343
Ni 0.92943319799291 6.013679761209451 3.5876774346854567 -1.1699239292735981 0.2140965315712248 -1.4835830883315095
Ni 2.022345396508618 1.9893348534280346 3.586758497603673 -0.41174931576412965 2.3283252026195775 -0.7413009776825814
Ni 8.178952191294556 6.767030188612899 9.940701644476103 0.6284696581114466 -0.3172288786870408 -0.3329208355010008
Ni 1.139547552864937 0.6487883144401383 5.171175575642141 -1.5748595645500039 -1.4849563145299522 0.4992257015102435
Ni 0.473077427664609 3.770761363021351 12.244801018833957 1.4468134849116436 -0.9139024753338131 -1.4101963479092423
Ni 2.1472215457161252 1.2428787959755825 13.181253172539206 0.9877874955487373 1.4733917496208044 -2.2740795539021352
Ni 8.092706995453769 5.971208194147203 4.742612734178791 -0.30733835904620616 0.5837594596882656 0.6072022640922382
Ni 4.536748346218133 2.6922608332143487 11.919927253269472 0.20160508397243343 -0.3262426521498768 -0.05309945092814081
Ni 6.055214593224011 6.540181062113896 11.033256946938641 -0.4147526213668276 3.7281471492730303 -0.7639667947112133
Ni 5.588533192465026 0.3990369527601713 6.403093634824707 0.14112939518487952 0.5516643789259338 -1.2422012386817702
Ni 6.421833956188786 8.924143656432626 1.2327133472380545 1.8823771294865517 0.3688363184506873 1.0717334995440897
Ni 5.984238178660565 4.654402268207953 12.120259284038475 -1.011975919869483 -2.367529126512548 3.076644263491205
Ni 3.591741928057382 0.7821213076581878 10.783582397532584 1.0880368646898035 -0.8431662851605157 -0.32589735299531614
Ni 8.772439415459287 7.009569627160704 7.719656946386604 0.38318873051761754 0.3600824835174573 -2.239086839877034
P 9.179881691802379 1.9132907022565886 4.086846680368414 -1.2776796340940382 0.48256932390048507 -0.4278865876456243
P 2.2025076482307684 2.463519501919013 10.760796317497535 0.44399249206855146 3.1863522069420096 1.5358993812367225
P 2.4315581020918415 8.757123797429562 6.372698455997273 2.143953451806295 2.0589635799274606 2.205097370305467
P 6.7733718848857585 5.451235936525154 6.706237020752889 0.05793543886420345 0.17136659680286617 -0.3363558293244788
P 8.354412033077304 6.669010233222654 0.4643639182509999 0.1911692333510901 1.0119185842689864 0.287011474563396
P 5.106095908203902 8.667468886015186 11.582303586970882 -1.4533150334755873 0.27988231971778255 0.051538534198924145
P 9.2025787820079 4.6314054227871715 10.3122988174843 0.5124859089542593 1.607604877301825 -0.7911261287348247
P 8.390954067287677 8.353765685894398 5.515421958727897 1.7676305951705749 0.8374648639003642 -0.3787641190873606
