# total energy = -340891.79063900566 ev
CRYSTAL
PRIMVEC
9.07496378035351 0.00000000000000 0.00000000000000

0.00000000000000 9.07496378035351 0.00000000000000

0.00000000000000 0.00000000000000 13.28212680394589

PRIMCOORD
 96 1
Ni 6.518827724290626 1.7546351496230401 11.44082574962157 -0.6305111140215076 1.3157995808942113 0.28955635247243683
Ni 4.559416019571651 0.43409907191238745 6.069559850612546 -0.20070854030009305 -0.6089076768191191 -0.4302679433936074
Ni 2.673638570028763 1.511652997498349 4.802311959541526 -0.126642257312298 0.4215691300680288 1.7350030389435407
Ni 3.3101746714043028 4.4656897948417225 4.649514981324762 0.8011896836184137 -0.35140706723064646 0.4927028127900611
Ni 5.151221625043451 4.721694519825384 2.684238127589235 0.04926362212181839 -1.0434277106208611 -0.6559912605704831
Ni 7.203923956236444 6.10907496489813 2.6997381655286925 0.05156218834800798 -0.20810406143321583 -0.7765911683434432
Ni 5.203919939044874 4.57222986826633 11.747018653656973 0.07483118617827758 0.02079251126531903 -0.8244445403812962
Ni 5.665263866871687 7.982891612330828 12.576500279998665 0.36117314547847473 -0.13645795785113918 -0.5114798362872481
Ni 1.4085160354480368 6.785513681507742 0.6921846860643848 1.3708697823954779 -1.0526469152262838 -1.7566481280171427
Ni 2.6173828702707436 1.6995954949961027 0.4050546507032344 0.2930270846298566 -1.1949168517735098 0.09675781104803981
Ni 0.4609146820454687 8.993788114806192 4.8642331591154715 0.8001417019698736 0.3530525732538694 0.5244852474079806
Ni 8.686527995043807 2.0256952393265846 1.6928863743587252 -0.5019256169399098 0.5434499614359415 -0.6189995138374823
Ni 6.825588721051444 0.9286410318177271 4.897226097015174 -0.2723212195410729 0.1511728954638106 -0.5169470300494065
Ni 0.4804948236486147 7.545369464124082 2.5875443897409216 0.40802995793101343 -0.250193277293782 1.360632935158818
Ni 7.765491782777174 3.8276563244614925 3.752440303118633 -0.17845024312252492 -0.311174959183477 0.4022696584084685
Ni 7.669514967058379 4.00984529499577 12.61811352588355 0.3236154989396749 -0.7020893404801263 -0.4907423466295806
Ni 8.045817410382465 9.14102940026737 6.977048049624018 -0.11393869370270053 -0.9642405614667329 -0.13747251515858258
Ni 6.668782423887578 0.8328103230139352 0.4285397491713385 0.8666561407523397 0.17226314047520658 0.3986454313923199
Ni 2.19474366247425 6.439993514934615 9.208245841139721 -1.1499744827348646 -0.315525779953005 0.8065733165278304
Ni 0.08778938350042341 4.712102283231704 1.1443883104880237 -0.0699463472821505 0.42427187371117253 0.8678979835792408
Ni 6.172890109388918 2.1248755172190497 7.003187574964072 0.890010242097248 -1.0477988431053633 0.9507178443899498
Ni 3.1506912599593235 4.254406490798135 0.6047029438321977 -0.10739343638501503 0.8692791801974835 -0.6357127128271052
Ni 6.010430109861888 5.653421039289139 4.930869709809642 0.3188687282833089 0.11844069533811215 -0.29665696807296005
Ni 5.470406247061365 3.0656134756019386 9.146603242950283 -0.1584228921580046 -0.6090408599628737 0.9054348041824342
P 0.5206506303689338 5.609706939315857 12.368781621682606 -0.6063021208754719 -0.848445531281584 0.05322517787272769
P 4.06587412066217 6.202728589918739 12.801579343805463 0.5967679561327915 -0.01684226836831938 0.16604878413437857
P 2.2911651514126197 8.544414064053232 1.5436222794966632 0.3302869974225796 0.3377740498282441 -0.407985220736007
P 6.331084875993497 8.099795294260623 5.857802833465655 0.6633317600959544 -1.2788361162959847 -0.38964039968023223
P 4.618348833610781 1.213095767890498 12.962598239102526 1.4273782590051676 0.8809013378174441 -1.4849321461602363
P 4.149563435578843 6.337455500486178 8.089372698491614 0.11136039145256306 -2.312747659896294 1.333157869667001
P 4.481362257090811 1.2356107527428364 3.7712472578175387 1.894092875261583 -0.69421456571774 -0.7140843080584733
P 0.02964064632192964 5.60357226387846 3.6095105328945927 1.5551543728115926 0.002176953046660767 -0.2616148888671624
Ni 1.6178663722310245 1.0413067057160665 2.9186943513508576 -1.6683081087191527 0.36830615697883023 -2.2445848868771274
Ni 1.8823471132775977 6.480495077770563 4.713800208933385 0.013350710275293137 0.6448624976471733 -0.16232351276399143
Ni 6.0358037082686335 5.589315495961079 9.002598997028333 -0.3493118752645145 0.8459453905675496 0.011929404447734293
Ni 8.751441210138035 2.407170411939601 10.561216746484693 0.09997606087502137 0.03878740518084288 -0.7771629816865131
Ni 2.401153711029847 5.331568377953778 7.0187275427436555 -0.6110710030190251 -0.3757032207738497 -0.3936641761276446
Ni 0.7281995868644613 -0.11055211486081044 9.234823687224784 0.39883235059214545 0.6847577911802143 -0.5169388025192904
Ni 1.5119252464082928 0.905986292524951 11.535846064170096 -0.15410935238431522 0.5163808731332914 -0.3814604349726011
Ni 3.839626201535348 6.713884993301572 1.6710111744447544 -0.0015670873768037525 0.5556745285265915 -1.0599079676640715
Ni 5.624145206506534 8.054665499955634 7.899106102799308 0.17582360413295525 -0.6497298530418036 0.5866918028437123
Ni 5.299869529872675 2.924570390323808 4.996975375129421 -0.6503942260986798 0.06464704655642416 -1.544439814607566
Ni 0.8340200156704514 7.422721330194477 6.875360359270973 -0.677019541995692 0.02439025591890638 0.3028623255527236
Ni 5.0949568503217675 4.305643735649527 6.9317031786801735 -0.5044697235180021 1.8399017339311603 0.7589253756325639
Ni 8.076345588150811 7.469393868322479 8.965767349498426 -0.911075033187347 -0.6510544853904981 0.18751132488352867
Ni 4.6341664952785075 0.2404093999257238 10.736195658387295 -0.08114144466702156 -0.22779382655265928 -1.2356107299484462
Ni 8.062097895197095 7.210866303440007 4.713853751219007 -0.41176474238309735 0.19444404744761995 0.4693461403419917
Ni 7.621390434744009 6.103684436481246 6.8840596194400385 -0.9870359620946938 0.17159208255011094 0.3971508491246644
Ni 2.178118329040359 5.2180133576162895 2.546303217366294 -1.0149337169462262 -0.10251193992299763 0.5834779238921047
Ni 2.8579873819152604 5.009488842526797 11.462514912780412 -2.129246227503107 -0.8276116252553681 -0.02738276288832704
Ni 1.1887567153415373 3.29854964294971 3.8638636144912626 -0.6609537467820811 0.27963369404208616 0.19590623381544325
Ni 3.5303695897667122 2.803537599926534 2.5809160362801604 0.2538385873558532 0.09456645982367584 0.22815043856112965
Ni 1.2675818497338835 3.0632358351217643 8.383107492407998 -1.1606144789472141 1.2544697716364783 -0.36918521714967384
Ni 3.5236722665820985 2.4955151832163094 6.906386752544515 1.1950909154575289 0.28512299929143153 1.2666627141582443
Ni 4.176761101682212 6.788953092736697 6.0632645483182825 0.26013650454942294 1.1158708561829362 -1.6634502664062192
Ni 0.6002044843435624 7.265334235356064 10.980865753753637 -0.30104172740421703 -0.17976561949983877 0.612334700222797
P 0.3100760809875661 5.705974153871924 8.203373299545044 -0.11785602647923575 -0.27663270243223326 -0.21495836535088783
P 8.594135789972604 1.6387206387327067 8.33003165991812 0.44517982750843327 0.43689624734340243 0.04630453949349445
P 1.994250490228095 3.158486653747376 10.4220730511016 -0.1038939078721888 -0.6245708372776728 0.7619469360677072
P 4.195346627267697 6.314141918831338 3.741336177578398 -0.8044094761072922 -0.13094037046701965 1.0089996108499786
P 6.916492632081623 4.082962277242966 10.496373408610683 0.46362954957318864 -1.5424736920201305 -1.0547143392782738
P 6.135773507999936 7.716087680586069 10.24705420935887 1.1749761469855249 0.3147714182854837 -0.4016777904607404
P 2.502493830274531 8.366081953076488 5.796970629531484 -0.7985213927576312 1.0871827442196245 -0.0742406037821302
P 7.101286117187696 3.9384797807358805 1.4949296544568782 -1.0033071884508915 0.8503774581969742 0.2849458502836189
Ni 5.236871132111719 3.355867113456509 0.42094128209481174 0.8717332981649311 -1.4674632999515116 0.3562587388959929
Ni 1.5295851256999697 1.133036438439741 7.08395565907705 -0.5345248910321698 -1.2844755739699492 -0.5854000806154821
Ni 6.786312278310243 0.7089806288151739 9.163777611685894 0.09349996623237446 0.21368618350668359 0.7235739927164635
Ni 2.8706378812639746 1.3926529989619876 9.238622467014864 -0.5609409191318533 -0.17104032381169898 0.7563655853251877
Ni 6.313016623336905 2.2269416335569168 2.5145326770722387 -0.8967390761806493 -0.8814497541217464 0.8106433728321459
Ni 4.241719691594762 6.566389608857778 10.482626653651263 0.6574809577421322 1.6004980910537145 0.04254121579632028
Ni 8.147865376793003 7.2346154833507565 -0.16973086041525762 0.28865363815250933 -0.24079203858454012 0.9232191247490487
Ni 7.66688322759559 3.932381405153143 8.239766626329942 1.1615853275009156 -0.6402841342478715 0.0627508579749758
Ni 3.368653737260195 8.462004319013294 12.575463919148145 -1.8718299500983246 -0.7826867397182198 0.8478683186218753
Ni 9.366088499154108 4.7926153608657 10.270257983953368 0.07005536205618902 0.2154103652866419 0.04796624346663352
Ni 8.596486205561785 2.4078419592507956 6.131507367581119 0.8152775291700476 0.25705040942493146 -0.39593934531506647
Ni 3.9480538674022316 2.5183024169785915 11.296090061628236 -0.46397382028648476 0.4099760259137907 0.3722561427655138
Ni 1.1899183106906301 3.361348391510041 12.585280307344348 -0.707255458062098 0.14540771084525927 -0.690583910943688
Ni 3.0273171289365344 8.203612878585794 7.934238009634801 0.4297290401710019 1.619344020115624 -0.025397614137498196
Ni 5.596865865730182 8.16364673860607 3.589906796385918 -0.17010007138561672 -0.41753892586271313 0.6267459905521205
Ni 3.1205533056285635 8.426258037137696 3.612578778109657 0.7776013547755125 -0.9852122786223935 0.2816674366426633
Ni 3.351030157823177 4.25845392459263 9.045566227492003 0.8371833281042034 -0.03937721624604186 0.11660569901190242
Ni 7.233172564128055 6.059135439850804 11.18942112371959 0.3945535207111334 0.843322865343038 0.24936846739964152
Ni 0.5065426918556549 -0.09617827991215318 0.3251160182692188 0.023862151329578262 1.1436562538263204 0.5083829425294794
Ni 4.521963644527071 0.05863969271275879 1.47917733252754 -0.19642508243339074 0.23284398738205708 1.0121031894759667
Ni 6.275255699527722 5.920733168999126 0.2734095977963578 -0.9666913370000707 -1.719863355088625 1.0892722797588015
Ni 7.782153416065723 -0.3101532181787168 11.397140689532016 0.6299030481238636 0.5833707088902792 -0.5762513242366786
Ni 9.338046861429913 4.921806543597619 5.68955845209869 -0.3380391305641727 -0.6811032251467625 0.45948390283593127
Ni 7.703273831891388 8.882719634512855 2.681648132959304 0.46872624736980567 1.10031413939526 0.21555640394620298
P 8.60643236573839 1.599498645773494 3.847859008572043 -0.0066432163481304944 0.3127191637421453 0.0354277446799906
P 1.506997541138313 3.070613780581237 1.6363184958506376 1.248584773610611 0.7916740308184946 0.2669103329381468
P 4.726712974732012 1.0175030760233283 8.363462918562831 0.47797501966158323 0.18532254476232599 -0.4585809314056877
P 8.6039821255489 1.6460350594465256 12.660735907727958 -0.7153161235830455 -0.36162745940707397 -0.8435154409698183
P 6.417042931826367 7.764420937064728 1.4344568190838325 -0.2512733977318382 0.4906644422037937 -0.573631113005012
P 1.8785447035020517 3.3836728021254188 6.019871702058733 -1.0018478302965457 -0.39807413226988214 -0.12758456662090928
P 7.036218627711167 3.915093599371722 5.99345357533417 0.07741205953157636 1.4232123005529358 -0.08754914796557826
P 2.458679905700936 8.256528991715172 10.498033219464972 0.9079210609393976 0.7587955349229191 -0.4948766805129283
