# total energy = -340866.814816858 ev
CRYSTAL
PRIMVEC
9.27546383664548 0.00000000000000 0.00000000000000

0.00000000000000 9.27546383664548 0.00000000000000

0.00000000000000 0.00000000000000 13.57557890318227

PRIMCOORD
 96 1
Ni 4.292953550513194 2.686573108494267 11.20206552747022 1.2173733810048133 -0.522034728984959 0.560084484668829
Ni 5.140870057085089 5.2725167122048715 10.981353088058414 -0.49728451862347267 -1.9501907466964152 -1.3862385515420643
Ni 8.468349875141225 6.540880709083581 9.004327902532832 0.7160152065325992 -0.9192984495384038 -1.3763274630759395
Ni 5.45212678968951 0.5151972787034951 5.769797505385267 0.1388945923170898 -0.9320668049476657 1.8474080696105344
Ni 1.2915897577763307 8.06687070793171 12.717642890861612 -0.90293929145409 0.6250644890846396 0.870815414336352
Ni 0.3512571694538575 2.3194038812049986 1.2726028837517975 -1.1671497089625706 -1.79775235425662 -1.3171234419119573
Ni 1.0286767415450735 4.608105977836864 9.848824545669043 -0.6923214624600851 -0.35590109844625806 0.3042214106837793
Ni 7.122711990867116 3.7164742112368185 1.5625492386955615 2.0759649995814633 -1.6909752112993652 -0.3906744973717014
Ni 5.449140090404752 0.42561577863435207 3.6481381605830117 0.9602183276812173 -0.47909113554389754 -2.7445405245748606
Ni 9.11489606658239 7.2003290704163545 6.494637885219728 -0.5768707029882324 1.1303777915498598 -0.26103690487650527
Ni 6.902262047075679 1.6535925518307846 7.1166439825687045 2.279016071971804 0.6812209816715493 2.0734010955090287
Ni 0.10792465691863792 1.3223286442039328 6.6749899997937465 -2.4889049932195846 0.02651810089518659 -0.7805223850770494
Ni 1.897017819002177 6.965001282982831 10.723010092751382 0.3250347478847047 -0.030715683916301938 -0.5891562052238046
Ni 3.3103202103642033 0.32568286116834605 4.639047069371323 -1.3709412590633614 -0.11652419504168965 -0.31653108128906776
Ni 6.56306761805607 7.194142336183642 7.595482371438899 -0.15847302866964966 0.035882572829222074 -0.7979169264044129
Ni 4.5332158845911 7.530433545091048 11.114638717599368 -1.7313890963400373 -0.3402142838386205 -1.057115749630915
Ni 4.241289218165052 5.24096158497895 4.130451138124232 -0.19293660966415804 1.4105568165724547 0.44909150385801366
Ni 3.133418568255806 5.772056080776069 8.998924944975776 -0.19775151455429815 -1.7033584154550665 0.3081310301508306
Ni 3.819895630569277 2.7903655463714157 4.498064660120767 2.575588450750758 -1.1220222204963128 0.3970032678032066
Ni 8.119249250978381 3.6495517412382825 8.778769960927368 0.6956767520855632 1.4289471461541843 -2.710055603424113
Ni 9.075642304554142 5.383191544086028 4.6978015661085 -0.8985193080095235 0.4733519190672751 0.5801352326721171
Ni 1.6118065882350248 8.71295312619201 6.348972294388817 -1.0603023748890126 -2.0222525976596724 -3.6504214151557774
Ni 8.807071255516355 6.379033144425998 0.03875288699291558 -0.371632907359218 -0.010156114597395412 0.8477081388949272
Ni 1.1287775449025519 5.541542258959904 7.558732984587311 -0.030025085607180545 -0.5253064577576952 -0.7793964990027222
P 4.025950054826725 0.5362804075055289 10.041746768537173 0.17878397231285983 -0.6580851669850344 1.167348455236938
P 5.871210786844586 2.9137199370173668 5.849784465888715 -1.0194935684027666 0.03620704604817635 -0.4077713049529881
P 7.6778763147510265 8.462933004388745 12.899745285420206 -0.402584618545726 0.05951846708060717 0.6899889576721666
P 6.045914144075694 7.597365290553203 3.5270979981095674 -1.9069846436225866 -0.7450115937649492 4.337936200255839
P 2.964781364230387 4.4742517623761735 10.851543902281213 0.6707941299112705 -0.00725668156241331 -0.33866288019110063
P 1.233849996758882 7.43172406127616 8.658015482733335 0.5523840307007778 0.7991361435234946 0.016078136508785215
P 3.138436594072744 7.082502856086291 12.798892241963369 0.21748164599337383 -0.2863113631725779 0.3427157101042355
P 7.477591228863514 1.3410001524654789 9.412885176028679 -1.0592551645714208 -0.6330364515465227 -0.1625939928165587
Ni 4.458910145553224 2.0251026960929313 7.339134528355939 -1.7032486293500797 -0.5446542661566878 -1.7819146158934152
Ni 6.768556239032865 8.160274626557525 9.828936096580913 -0.5813238536635794 -1.6558752822724383 0.6472603084553885
Ni 6.27337633836178 6.169491145848459 5.310902290838544 1.4363969175640101 0.42722478569190936 -0.5655244247374777
Ni 9.250763057648024 3.887560137657194 2.8806158073673624 -0.49312370237756353 0.4752121122044654 -0.38659287110316004
Ni 2.421712244903385 6.264342036798569 1.3780973692027132 -0.3911532367803328 1.4694469060404434 -3.702102131359521
Ni 6.977977656583379 7.619570750452925 1.8445678548856521 3.0815327019317573 1.244238066606141 -4.092503320465179
Ni 4.3996677594297795 7.530934420126381 5.593137952877278 -0.8594040871756167 -0.21065510998984366 -0.05656581221018646
Ni 8.539817322312219 8.873158933789338 8.697302636430605 1.1574597353683163 0.5999805495328183 -1.113846883774372
Ni 0.010121385899154975 2.015289255585869 10.417328841327297 0.621054339483982 0.5395336571006708 -0.29921778682160083
Ni 0.9768083489973511 9.170502470967866 10.452679488265401 0.47952950863289673 -0.13463658837168424 0.9221652295632375
Ni 6.9594823821305605 3.0542988636005712 10.492985087867845 -1.7932706643361827 0.2328113343719087 3.2446378300567797
Ni 3.916453206824962 4.458798839989817 13.02474978104367 0.8970365528164098 0.10094356699461325 -0.07968697160868211
Ni 6.192132552538193 0.7038796871521757 0.4242328070090185 0.8344867551086467 -0.05172133963369156 0.13928334311507626
Ni 2.857510627496766 8.858448048492363 0.9814219646005766 -0.1939290554844144 0.6472068295096338 0.32402404723200323
Ni 4.9585515442242105 7.870824508917285 0.05632247017673097 0.6266899405032046 -0.43536669807275347 -0.5652793986062071
Ni 5.567652689042493 0.35610823692568494 8.54159079095584 -0.2870186736522476 -0.4880576007085659 0.18726989829668392
Ni 6.54044476229357 6.535102095250028 12.192240747086407 1.0559111877998524 0.7651207058099984 0.7727933918639078
Ni 1.9711658751585597 3.8817907992872582 0.6152183130738651 0.5762670079659624 -0.7140699098807702 1.5200953243249307
Ni 3.5732610529863127 7.9793381577756195 8.548161529382307 0.03277642310007258 0.8451519481319767 1.051601504680905
Ni 5.904685935039281 9.143176955151416 11.63642899584201 1.125743892322274 2.5192962039169324 1.3207502400312674
Ni 2.19489005760689 2.56973936877125 2.838653609962875 -1.0345808017531926 -1.4167292639317535 -0.36362109279833504
Ni 7.290310342967401 4.244711864239821 12.747658291127067 0.973916136883284 0.24003407737259305 -0.4472454517882104
Ni 3.014599879318695 7.637054999371462 3.0372236626275555 -0.3202440113642807 0.9930502866095737 2.0360254830740483
Ni 7.3173390439481 1.962001717104706 4.2461152418851125 -0.14201976820963286 0.11568498696984592 1.0057692768381388
P 0.41133898503466426 2.5345760861982143 4.42182405937233 -0.21216948975184105 -1.777884154577783 1.3542915663218225
P 5.871609631780129 2.585674615265704 12.70538443814504 0.4281359846522691 -0.25172256945411486 0.1064542124001973
P 7.953877010146238 5.481168266275153 6.792446123125482 -0.7034072879606016 -1.277530767221 0.07106194894383246
P 0.6800547313048797 2.629130162312571 8.38480670188692 1.6399889500594853 0.04028378722071126 -0.5231685854790862
P 4.097129962625584 4.36428186572993 1.9216098556906205 0.4238646109704249 0.3979972562853597 -0.9605070625662298
P 0.25169527053254187 5.923348167837209 2.112766957832386 -0.001856850703080673 0.5997722901767542 0.055655641691091245
P 7.721304035407041 8.97748007309267 6.606460091950338 -0.5151670553308483 -0.4153264915924266 -1.183122173131427
P 5.167258751076196 6.368347810338913 9.075287981843962 0.8019502159335221 0.6024956026451881 -0.053930945690500665
Ni 4.146883549468572 2.0014317129416814 0.5462135014932534 -1.1136620214570756 0.6372921414990831 -1.5003965603444225
Ni 3.629294128698185 0.33867593060340495 12.455756668452786 -0.7509194746089519 0.18984074434765372 -1.6903424628113728
Ni 8.027162448186216 8.106514039431882 4.316206210255306 -0.0874974687920364 -0.8000332014164673 1.0008299305549926
Ni 5.365920630830688 2.6247057661671374 2.4002163579703835 -0.2107998630978241 -0.49975637720273286 1.2195295081158675
Ni 8.192775851072406 1.7407262570513324 12.530950996905196 -0.14169503788036242 0.06554616133192584 0.6513000257424009
Ni 1.8897829573807134 6.31546839225691 4.96712763788473 0.14643435233756072 2.335851592903609 -0.28737168611629216
Ni 2.3016506438415614 4.81802827042271 2.9486698839272054 -1.3582173837387899 0.6730536153694086 0.3323248537882148
Ni 1.98975390424755 3.9407734724294197 4.968580175487193 -1.9848116792043948 0.11027127215344235 0.6580088052211441
Ni 6.184749283498853 4.102240743078696 4.1912425266717594 -0.2753219540406097 -1.4757759335822647 0.030989249292662755
Ni 5.1169022590980875 3.2477850346566313 8.939600007226138 0.17882562418407266 1.3357901650835253 1.550524330238749
Ni 2.6443975754265825 3.622189123567363 7.835158496216194 0.23059992854288675 1.3713752612769865 -0.5021696146299158
Ni 7.3192034121351695 5.455670016791304 2.9856771286673522 1.3295063889573426 2.7382354082924394 -0.814576646448281
Ni 2.1701245697488036 2.0128034313364433 6.204487470076384 0.932793141590729 -1.000833272989102 -0.3356132947314994
Ni 8.243419882422652 3.360444815751881 5.907331297262924 -0.01907758545674134 1.3612091193772622 0.8436943897498438
Ni 9.000028725146231 0.6025526675044955 3.239146795389876 1.3843035393028804 1.680353469919461 0.2435760290875805
Ni 1.6688043121630922 5.37278447390746 12.429188958013864 -0.4314743049968827 0.27733049983020625 -0.19734039515880855
Ni 8.68138872350247 7.319463125116452 11.361361412086696 0.6976063650081082 -0.04633822094490729 -0.9265263347454108
Ni 0.5827532628670906 8.219099616818193 1.9742555320894692 0.0811185618488861 -1.986753376311798 -0.8323725369791214
Ni 4.875100198059716 6.736324002962884 2.0013120594610188 -2.50482372133237 0.4655607051576305 2.083860086058824
Ni 5.487299347726163 4.698662329132182 7.1122316445259735 -0.3165117980153581 0.6644920989526427 -0.09616002956304086
Ni 2.696275243437922 2.1228382562280084 9.57717682534941 -0.6617469321073378 -0.0037460973059935485 0.14634950593323828
Ni 1.9681791758738014 2.6629021253430176 11.828102741307259 -0.43972060416607495 0.6642732980736173 0.6528120915115532
Ni 1.576179532481126 0.49755720199618847 8.193160782812523 1.046964520129526 0.3182246669414068 2.871287168675507
Ni 5.810410122833442 5.311241772806936 0.8268287400380527 0.7057976425696489 -0.6950103221461579 -2.2463535487417765
P 3.1463485645382674 5.163492912847589 6.170779507744897 1.584225579145936 0.4516610643574028 2.083404229468328
P 3.466203651915888 9.269629350645534 6.924481420170827 2.7576744908536575 1.6176514629045495 -1.1466114797999025
P 1.4087017614078654 0.9491489164906795 12.954889771717545 -0.567030834079675 -0.6936211551081152 0.8454671653795504
P 0.25488046473870923 3.669466161624541 12.930969278594993 -1.3664171459407628 -0.27842296156343666 0.10315831525774494
P 3.747806727335926 1.1199194771480678 2.4763345225990725 -0.9263954655945014 -1.1772945107060564 0.34389456090368514
P 7.332550804280407 1.3919502741150924 2.2509259159578474 -0.40986264026437796 0.2525340096118167 -2.2002801514224815
P 1.2416135598065294 8.544538533293405 4.060971422806417 0.6092925709623636 -0.5459642432173629 1.0147642812478974
P 7.87101001818963 5.330441982494666 10.548197285049591 -0.9574456500320865 -1.3474709438555632 1.7900483007441428
