# total energy = -381165.104821794 ev
CRYSTAL
PRIMVEC
9.30962165638515 0.00000000000000 0.00000000000000

0.00000000000000 9.30962165638515 0.00000000000000

0.00000000000000 0.00000000000000 13.62557232509445

PRIMCOORD
 96 1
Ni 8.1067159762333 1.03417792100248 0.9490535351043067 1.22744439208757 0.1687263309665417 0.044536391849478135
Ni 3.68069849520777 3.0266044902419837 1.5690529133353046 -0.6245494971214341 -0.08066604769249978 1.0500483012611723
Ni 7.993203761565668 6.146705508976301 9.661061549559426 0.44789619799833186 0.5878218026830972 -2.5532159965928285
Ni 7.130490448924415 1.8802363208215893 7.84193916988498 0.622695988852463 -0.12260305424591789 -1.0947273893361018
Ni 4.844708397326857 1.218554974352144 12.29795038938473 -0.19023052358690465 1.1060824093376045 1.4976305675635109
Ni 3.548892874338063 7.5100250972939735 2.8324839870546143 -0.9782795560583023 -0.8777183121037722 -1.4685765876203483
Ni 5.388455458927151 3.6047692224423136 0.38202031730388586 -0.8639657384043702 -0.4836882679962767 -2.4126324466090905
Ni 6.558097682039753 5.729271391574354 5.221359855925025 0.13093342848848416 -2.154875240925121 0.3670074927720647
Ni 7.891915079897183 7.455480025060917 0.8007857105770281 -0.1868603215630911 1.1533750237759814 0.6318396030249441
Ni 3.726576309845848 0.33935432207533195 3.320946792476587 0.7060652944087389 1.2093070590569108 -0.8094256983749608
Ni 4.2343137555735595 5.872183390865982 12.2964524712891 0.14215423690496806 1.7290095403642673 0.6010902376572294
Ni 6.98942175468521 1.9198580698272023 12.52250032133144 0.5129705619001618 0.5884602075980445 0.9950297789334477
Ni 8.354519480704965 6.094571628705758 11.796407565787739 -0.02697987102295353 -0.5659046908950318 1.8636479285081646
Ni 7.224964487671821 0.12303316455204007 10.863778064892948 -2.4855448184981 0.9954830644207824 -0.21670208751487194
Ni 2.3676787917296958 6.729208524784858 4.672535326771238 -0.6041243964978628 0.6980498803034301 -2.8814535676855475
Ni 8.979539537798447 1.8623525379644974 3.301407758920906 -0.09128496085892665 -0.38810236576915097 -1.0940733006918706
Ni 0.04367515819664798 3.182559269222725 5.546315917424209 -0.6574979270229967 -1.228800134784516 -0.5914354881762847
Ni 2.015616836338419 8.770659560721628 7.522051266317811 0.871229361945319 -1.3849056916632534 -1.3760094176148883
Ni 4.13456116144876 5.4724282446486345 1.4181904973024186 -0.7012835567493794 0.3129217666712546 -1.3511730752974986
Ni 6.222057585210191 7.507036708799894 11.570863366267298 0.13944892215866306 -1.4903574309408654 0.4347257220546448
Ni 0.16386888819823878 4.065744439491642 10.733407987654976 -1.0274727299535014 -0.3735440083390018 -0.21212989476315727
Ni 5.508763697272908 4.15263113673539 2.832225179577557 0.004025833329941454 1.437578082356305 0.9443412514396446
Ni 3.6822997501017936 0.11699215117569081 0.900249706436044 0.4475115609654035 0.09318243499195565 0.09411060323317985
Ni 3.7376175209174307 6.450729817546864 7.807602492991793 1.710355672708506 -0.11404770847673906 1.6686181837604037
P 3.7175552866347488 7.851958184518401 6.202592097664177 -0.6856052267821741 1.3120447418374694 -0.2762634920182726
Ni 3.1862179504631394 0.9681075373810427 8.725762049225064 1.8167234960424838 2.026897295520535 0.5040529476955576
P 5.517635766540377 2.0931287447549454 2.2061438256357118 1.2455950948546677 -1.2940202802355907 -1.0002905131117548
Ni 8.606381980140553 8.796102756217948 2.6926851251848563 0.2745511373128562 0.019811121188656203 -0.04810019794133651
P 3.150813459986554 2.5114007280898125 12.953926799813141 0.6962439374429429 0.4761834749787992 0.13377783991581477
P 7.575415878547598 3.9117260617780936 12.06977715275922 0.526679426845822 1.021413154022983 0.20564325859754906
P 0.7566627595873421 1.069601030722019 5.124032418194954 -0.01679161763604205 -0.623813390286358 0.3888143042345111
Ni 2.5729931837808695 8.310931832950201 9.83807189943443 -1.1609584925501941 -1.173544556745321 0.2667031020233471
Ni 0.4740785092780414 3.4881569038228792 13.033295977714308 -0.9901271994255076 -1.0919192304633452 0.39570434648612496
Ni 9.280668554089699 0.32255138627170615 7.570803892067951 -0.881814593660333 2.037916015228542 -0.18829422579614025
Ni 4.622282921001173 3.8006436583159275 11.738852692931205 -1.548156858447837 -2.7681602208763296 0.4487554606748336
Ni 5.09697121048595 1.9094871515019551 4.2295276791722936 -0.49003760725307216 -1.2864414394470685 1.1723392235833099
Ni 1.25428530158042 6.716100577745408 12.660118869851313 -0.2065251469818701 0.15895253940922946 2.7902686227395943
Ni 1.0294393236707466 5.216385725169926 8.884472476162962 -0.15345320685755506 0.6414892102995662 0.027785140533068277
Ni 2.9869548123719403 0.83502370548256 5.412213612936156 0.1574121915053031 -0.9818431050398444 0.6679764579568174
Ni 9.107332711811617 6.062555840446757 5.059052191248459 -0.7256118490820987 -1.7520006019428023 -0.13025799968801438
Ni 6.822490931983224 4.251890320921914 8.488731638726447 1.5104117784885793 0.5439914357617083 -0.5646898446513243
Ni 6.576288682405582 5.5048257273881855 0.03919071353123354 0.748486439687427 -0.05763693378717816 -0.9206346518513241
Ni 0.38034365447589924 3.613911270732612 1.7582300075184492 0.7800883828634243 -0.07718965910812513 1.1907043563540591
Ni 7.8562685392621985 0.5258474523866914 4.897875645581335 -0.2038278026553651 -1.052227311190362 0.7557168959975953
Ni 1.8262870643630533 6.392107131106933 6.752819586774528 -2.025965527734885 -0.13562980552288897 1.4577473582153282
Ni 5.089272153524568 4.652892956417164 6.968717156520623 0.7108506316125242 -2.2212166444648327 0.3344269877328821
Ni 2.566644021933635 0.9288060393542342 11.547659134736168 -1.0787767795441163 0.5543534957223227 -0.6132494987275825
Ni 4.495532424593414 8.93894027853776 10.906139635499207 1.3231079416301663 -0.9575364099736801 -2.1740309879179653
Ni 4.843097832811357 8.641060320141941 8.326736777331504 -0.959460109358954 -1.7517702310995509 -0.7702019769876477
Ni 1.847140616471271 4.490514538617374 5.497209526057949 0.9279905779957631 0.0164638019829781 0.591700311801897
Ni 0.8414482752637569 6.639985112550414 2.377280735320953 0.5567667331495056 0.4282966785998495 1.4031345559664545
Ni 6.080113786552159 5.101774975168023 10.75460971960643 1.280226311775292 1.0847579368282156 -0.32579219487601957
Ni 3.117857399958389 8.100152693092097 12.641274334057806 0.5156365387680991 0.05096749218680255 0.2736533080889352
Ni 7.277694183716886 2.700795667415516 10.143380004806655 -0.6874649056987322 -0.2908395900602346 0.626678884759611
Ni 3.0728081416317528 4.577317449267829 3.28433484409445 -1.48958609999248 1.6060784133549695 -0.3169632837304799
Ni 5.7730452317586565 9.009283778417087 2.409982642682799 1.1935202285362994 0.5506979012476064 -1.1513875610323072
P 5.532205324151699 6.683209685067581 2.630866445691911 0.4198436627364899 -0.20803438453754491 -0.6559079568280575
Ni 6.593101858792832 9.06061703124062 13.487013413860257 -0.4110834000453565 1.08791756550312 -1.3303525390077218
P 7.451011406752013 3.5323682962165956 6.3855149881391515 -1.8903413786389511 0.29890925444224653 -0.148668383874402
Ni 1.8280745116866148 2.0812682869933967 7.04477490206246 -0.44484532698715007 -0.05747109763327522 -0.2942912960542609
P 1.246595554240515 1.039977815182578 9.537096491897548 -0.9354267225588342 0.6024256686392012 -0.3838551604570228
P 1.9300241764799584 5.062590778371822 0.45350517677627816 -0.149711994647568 0.3272656940977525 1.1393015764020509
P 0.8964700001164296 0.9045460967476254 13.073109504922343 -0.9649193327013126 0.9852336187786322 -0.6517916206668388
Ni 7.26307807799818 7.223968358173795 3.8175992719117744 1.5873461270527889 1.1372660340292606 -1.442886896163728
Ni 7.9261279388247265 4.858300444683106 2.9963314631234566 0.5398601872021541 0.992453019345207 0.27326969949727137
Ni 4.867191133193529 3.617728215538134 9.39235235909927 -0.9711465445579468 -1.2482590148400758 -0.7860661977134139
Ni 9.03402875230264 8.722882583302265 9.844039366801114 2.916292015520971 -1.1161760461281809 0.2153154915799905
Ni 0.008551818288664543 2.9192273161276177 8.52223696642175 0.2747074603850624 -0.6063509718355364 0.2181362488582372
Ni 7.278857886401497 3.2979147889427796 1.3068464934767527 1.9260653144031215 -0.7507742072803393 0.436339603508984
Ni 2.912691961850846 5.629807395715337 10.053382963027481 1.6908168313446301 0.5779040293487531 -0.3844830238490088
Ni 8.910853150542005 8.375000647954108 12.35644553401043 -0.872459120587362 0.9834711275615706 0.025404299005717536
Ni 1.8984738692948024 2.466416637113515 3.7318669677311602 0.942036514565868 0.3589180308957109 0.006613648661775706
Ni 7.076634288680648 2.8777622620695813 4.06757378011185 1.0763838538319075 0.7583067682119585 1.2567603674428678
Ni 1.5652173492868289 0.014233480276006117 3.191967572687262 -0.9881659619340788 -0.5006313236085185 -0.4382584177982517
Ni 0.673010224844664 8.015221016358495 5.098661837746152 -0.8157827509412401 3.800674627018796 0.2789392390782228
Ni 2.8824263824295 4.0895677608509855 7.572466590463721 0.407529364145511 0.60478671267221 0.35401493716713867
Ni 5.199805289319597 8.03085187081818 4.522545222270737 -0.701710874094785 0.5512871980921732 1.446290265418322
Ni 2.5129926733623593 3.2105626106251877 9.686174253493316 -1.2607661461681512 -0.5424194632888981 0.8699129571267405
Ni 9.037948102944409 5.633261265283261 0.6837954213256326 -0.015235586002831826 -1.6339964799214761 -1.1066657926449006
Ni 4.199700582922509 5.845539254199143 5.364319334286185 0.8303331379515894 0.20496423025265342 -0.5962545068314828
Ni 9.006388486137777 7.408717796382534 7.263165588440063 -0.5379454866779445 -0.9820228251508183 0.07936969747857943
Ni 4.532640575800269 2.1773063421489196 6.835213460693533 0.14657781989396046 -0.16055716489218802 0.975175977432314
Ni 5.205139702425852 7.431945301967358 0.33648044192541826 -0.9566622348988426 -0.18230818341603441 0.9242791905824469
Ni 7.267919081166158 8.49197604181114 8.471018221942382 -1.0695076955373646 0.685703185812619 -0.8032655923108359
Ni 9.045377180882962 1.5460116001800195 11.370117205474832 1.8333701034602297 0.030638807931779494 -0.38000544769362943
Ni 2.097494957227603 4.751435299749969 11.963647467922756 1.1838168852056064 -1.8544264099098964 -0.3536413558778038
Ni 6.467114751346177 6.388727738510824 7.453719575639639 0.43984607400034575 1.2752743670866553 1.4556138568120929
Ni 1.9329660168666534 1.833846477002282 1.1357775440282927 -2.1438948306542174 -1.2908848199304026 -0.08492430874822149
P 4.846384129192696 6.689316796756416 9.768948890930725 0.22247267145006203 1.0776012711787764 0.42970050092591155
Ni 8.830725238490475 4.96054801736371 7.233366421054709 -0.28821680772540686 0.6377971061599597 -0.5994778988647869
P 5.787586860505547 0.9874156923240978 9.151574825956207 -0.33820445249744335 0.4515065410574095 1.6226926248728826
Ni 1.1672868888789503 8.561928537588438 0.5649432077788606 0.36121891111474563 -0.9324105614403296 2.063730919409117
P 1.1263897217310042 6.870416863346216 10.680513511309771 -1.1646999618704974 -0.2819330315992241 -2.5282842663481557
P 6.857243748956428 8.016915367467288 6.046470676459 0.9287307985958974 0.07515257407343831 0.10680182554760316
P 0.7901485370775418 4.650742433856004 3.7228059131477105 -0.591922198004716 -0.11333551290106288 -1.6309600070879975
Ni 3.9223576495046935 3.5778457971311686 5.047048365316167 0.30061518138975973 -0.8727774231587291 1.1358807236459598
