# total energy = -340886.81638783077 ev
CRYSTAL
PRIMVEC
9.09142269967550 0.00000000000000 0.00000000000000

0.00000000000000 9.09142269967550 0.00000000000000

0.00000000000000 0.00000000000000 13.30621609606514

PRIMCOORD
 96 1
Ni 6.473792975956475 1.7595266680256325 11.173828479992144 0.15049592400144404 1.7920288215092814 0.6934856579715154
Ni 4.849864876956933 0.3365281013120841 6.178421745042052 -0.2689731290044464 -0.43827050198310974 -1.6703873598456846
Ni 2.876853421947013 1.487174919295189 4.707659571081279 -0.8014797040550068 0.20994034331100617 0.6959076371494467
Ni 3.4485675361411565 4.71355717696309 4.945322087496875 0.26835092203941524 -0.3521100068349419 -1.2003472787604617
Ni 3.74593888004155 2.557080812603758 2.385738406233855 -0.9868747539264809 0.7372522615345044 -0.35094169755845367
Ni 4.779242705706872 4.595941441965402 2.3379557069990367 1.3325294920543824 1.1646855636927942 0.15579033963116395
Ni 5.160136949616831 4.145879654431541 11.618854528512692 -0.5309382021221759 0.07120541650023221 0.7167680255382236
Ni 5.6868667044719805 7.88942749031259 12.355513414948435 0.8610421369996719 0.102492656649288 0.8095007745872704
Ni 1.8992618343636145 6.468174476750432 0.08587939676394556 0.1000609072793438 1.299743812982929 1.9540713126977447
Ni 2.846542618786907 1.910053353065188 0.2210788523351076 -0.27502576295642955 -0.9327347775489678 -0.038252615723295406
Ni 8.123413435403068 -0.03806669583433724 6.8341524234963895 -0.021229341692421504 0.39119668842375854 -0.11982497728014849
Ni 8.808833972849595 2.361297025545304 1.4324409182918587 0.28497670352155435 0.8631653539902617 -0.1040088361834983
Ni 6.841904679601556 0.9707184720497936 4.777676253581951 -0.10897903570458006 0.08775380777721661 -1.0489085312297741
Ni 1.0115389598089046 7.501651039446361 2.2393164985268696 -0.8518877241939136 0.12167437178406139 0.273453019152671
Ni 8.02375326016579 3.952786928481482 3.749012690044079 -0.5977835418814995 -1.3554089677557173 0.743907562067493
Ni 7.637313248431096 3.6398965260944958 12.740009680517671 -0.12208009186291233 0.032079397033047984 -0.41504701267879485
Ni 8.565592959487676 7.582355598430243 9.028587295760364 -0.9218957779519349 -1.6298942848276448 -0.6346076526883845
Ni 6.842477439229357 1.1097717816880128 0.3894647280548405 1.2136704782319292 -1.2588409041209803 -1.2956719569064008
Ni 1.911971643247186 6.693396290393298 9.153731637865695 -0.1545122442496887 0.2519354567958694 -0.7862965685566652
Ni 9.11260567830509 5.037330012278285 1.0249378985303697 -0.16438836571282012 -0.29569511838032303 0.7294595049629631
Ni 6.8039116242907935 2.0151229247872475 6.9107031114653195 -0.5300861385345258 0.5991994483924197 0.43641853637603545
Ni 3.3640173053706146 4.461761134874818 0.37284560742596407 0.3569922746279077 -0.715281156580052 -0.2949201878875114
Ni 6.226633559426588 5.617562789508127 4.503129835420538 -0.30393550401224434 1.2992925843781236 0.14599957879298725
Ni 5.441398292557505 2.995514670551004 8.842379504193373 -0.11801209244112579 -0.9713532612521143 0.433440427584318
P 0.205766169142976 5.777371817087115 12.093714080503513 -0.5032350797799526 -0.8293041824664427 0.48240271641563376
P 4.156934824390356 6.01657623878644 12.568679092997233 0.49753391563011734 1.7605940000387679 -1.474740293228899
P 2.633503311513132 8.509026127675384 1.1498249533743246 -0.8879644153118128 0.7288820351929383 -0.40370330553120154
P 6.642511597745693 7.973877715433834 5.4453030585914775 -0.4894845629630796 0.5920085870709352 -1.3125795312950168
P 4.817344858089596 1.0684330828370823 12.589183887672489 1.2833648574042735 -0.3289765061412721 0.932045464791427
P 4.0542199311381415 6.198950177416233 8.030594555720073 0.0780520071084204 -0.07325458571977707 1.4196276685254712
P 4.717911968418906 1.359422248027699 3.6933531822136043 1.781498868512235 -2.0499150965719473 1.577800649456199
P 0.20582526339028873 5.567405410673603 3.4503549098368005 2.387615355739462 1.773850607938358 -0.08044801814442273
Ni 0.589978782325113 0.3711646033754831 5.002924432350539 0.517346065260038 -0.2306150980515383 -0.9844669158159367
Ni 1.8967435102858252 6.682913880062284 4.627329578711132 0.06383534928840619 0.31000742123793706 0.13385394456938882
Ni 6.050841810805169 5.865158594325862 8.871333867092085 0.6154477919304819 -0.3412481244197736 0.5201241422258074
Ni 8.743775752269594 2.375452370632372 10.200798059159021 0.2908269916547443 1.3849314026948665 0.16583101169661765
Ni 2.36965204297306 5.653464817606285 6.797001233924267 -1.0685103646211018 -0.4583608449750816 1.2611564396280344
Ni 0.6835104295449258 0.36148041995432384 9.293434075082088 0.717186601132881 0.3769851728100669 -0.5548921418346121
Ni 1.5638428866164773 0.9628816657138572 11.439433483964004 -0.24862927524077183 1.2133249219670523 0.7110113255601044
Ni 4.216365454341649 6.940446609851223 1.4670765112129913 0.29548788746552335 0.3988176953041261 -1.2076913778303588
Ni 6.076988742385392 7.823169201941009 7.483908218976277 -1.4333113366601509 1.2497862501178798 2.051116830189532
Ni 5.398914074450973 3.4531587045862238 4.4569972293991444 1.0865610514752255 -1.2374688662031075 -0.4761017138982704
Ni 0.9539993457716185 7.78666713994706 6.858875638287509 -0.923895581990783 -1.8200548744085625 0.89677687139712
Ni 4.991009213807757 4.682309957268643 6.860618464012102 1.7538790499124375 0.6229844666271593 0.2569557928285962
Ni 0.8388419314621404 7.717854161807034 11.278441662296494 0.480449706454321 -0.10041006308864642 -0.10071088215851688
Ni 4.832682088122919 0.24302281921799546 10.469516875393131 0.08794304096988725 -0.7640112747959036 -1.9282075575571047
Ni 8.670198868653895 7.4532846708765454 4.512097614735813 -0.7037081070304719 -0.2417567164906546 0.6188989837038761
Ni 7.505105780058491 6.384506113978251 6.519487375405489 1.0295465817633946 -1.9835955474091065 1.00246052417988
Ni 2.4095361141978304 5.437707174956124 2.66104395818767 -0.7647337547842249 0.25998866611764904 -1.5784961328613267
Ni 2.2588457835503326 5.738842367839206 11.299000096365464 0.9116033948869913 -1.5340013928830614 -1.1659675157290115
Ni 1.540214279114043 3.5300539574740997 3.6232955883109463 -1.1750334825860216 -1.0764630438092753 1.3910850810010882
Ni 1.7249792619043358 1.0945527401493151 2.4563805786137762 -0.763484455758156 0.0471162367615124 -0.08787619228769382
Ni 1.2324787133772606 3.7621307038052416 8.18945716619979 -0.49196670595498493 -0.3183395952527163 -0.8690845476881742
Ni 4.409540003095679 2.6411037408598173 6.319694270952431 -1.4180464400812804 -1.4497501989424646 1.222315555501437
Ni 4.285187523904337 6.824385508128993 5.917366998113273 0.6189794592328244 1.2917181144649754 -1.676526897084519
Ni 0.5331646638163742 0.2600665092852573 0.28968000032707303 0.2731876813064263 -0.6936432665953022 0.30102604367493313
P 0.10492047239037815 5.695576287383613 7.87464483706174 0.9098416750008782 1.2003159113018942 -0.2646541899141184
P 8.793205817291039 1.8517500595241678 7.999777360317609 0.200310533530726 0.17342836442790133 -0.6493688701579591
P 2.0199504702215654 3.615113307913797 10.431221984849941 -0.33260793224627233 -0.04645494902842967 -0.35211309215873554
P 4.158243989253899 6.3176841574015326 3.547476759866429 0.5630805911826754 0.35152173843163975 1.2195907003711062
P 6.8983715057645485 4.091731141047739 10.480215661583538 0.5474608823675474 -1.2672545821059724 -1.3656471005439577
P 6.653266750756612 7.9388302810660445 9.990174342886938 -1.803855124720248 -1.0798317031711917 -0.12673070326104624
P 2.513560172313588 8.520535868767373 5.711999033282957 1.262085379200207 0.8656886346327478 -1.5586168774388964
P 6.932537072133979 4.225811442489024 1.9685484756244076 -0.5972451528795262 0.509570020859045 -2.3301882239702447
Ni 5.397468538247476 2.9752498894340644 0.6148492781633813 -0.8013033263781425 0.8782731561659777 -2.290974786995577
Ni 1.7602539818387126 1.0425225282461097 7.117468427959014 -0.3961020961451759 1.2507689257461234 -0.4283630130614106
Ni 7.137975950061068 0.7338205442801974 9.009958061580587 -1.0971455118592912 -0.1020799945919016 0.2891835425140504
Ni 2.867416525222301 2.2143159953445135 8.9448643844522 0.8986990281204973 -0.930253662998327 0.18742467870699334
Ni 6.311565629948997 2.1411664085939996 2.4327883368019956 1.360732693961476 -0.21029952642263783 2.1363291024918176
Ni 4.210683315176962 6.928455023358067 10.174771134357957 0.3986724279755134 0.31596955235864294 0.14946285475123938
Ni 8.11754946778511 7.166386645884503 13.19731824105661 0.05885126581025349 0.8349480110157814 0.7807319299846941
Ni 7.602356728289941 4.014199488573419 8.365125271472987 0.4573218621876059 -0.49787175858551036 -1.1104211459222746
Ni 3.374590629928264 8.223546364618846 12.124624008417145 -1.4724057315584513 0.06777505066244456 1.2059597398512327
Ni 9.09433191875146 5.03102965637248 9.95277041176477 0.3108384017796647 0.030387096932289602 1.5403437901613213
Ni 8.93655027842643 2.5006594435540825 5.63345277803939 0.30480710798392024 0.7588333301393899 1.263645010377843
Ni 3.7169826988583052 2.168440676584497 11.263659009045647 -0.953799311528751 1.8698725692616378 -1.037489490759555
Ni 1.148428510853211 3.5963395201136716 12.454964487464451 -0.32679286822639203 -0.16671984205947415 -0.16066900787970395
Ni 3.3276788889846087 8.231410445222773 7.704737966330404 -0.03970837433321548 0.2310401014040989 1.5288010796290443
Ni 5.651628350228258 8.087229573202341 3.2782260954065046 0.36863063019778447 0.18066704826818564 1.642415557223107
Ni 3.2352009376514954 8.416148153745075 3.404781426309212 0.030349301715818705 0.03849944162677886 0.27692812218546503
Ni 3.831934647015588 4.536347166406165 9.651770681079375 -0.448348455044402 0.2663338916093865 -0.6600888276786245
Ni 7.005895761605753 6.090189488092793 11.188678409770704 0.8090212638476907 0.38227804577789004 0.04425717004616249
Ni 7.8921821913796295 0.11514377717548294 2.5876861778581612 0.9915456770395891 -0.15973286921867977 0.018149160105201
Ni 4.784561187965018 0.412774226621786 1.3702474049931277 -1.130368535578479 -0.7719906934569544 0.34680299279973176
Ni 6.168375722998885 5.592197720276964 0.07620248648091707 -0.14154771366922075 -0.060993508964236894 1.9778393616516194
Ni 7.903519195441014 8.87242847438077 11.443000049074895 0.2382394473660155 0.2188841827678553 0.305864345603841
Ni 0.21779957618038345 5.018183476148956 5.718319390318622 0.17907502119071741 -0.7836838135241665 -0.19889257013727682
Ni 7.552999394649805 6.632120101641314 2.6452094273346534 0.06524354248984247 -1.578622888247178 -1.280662885092078
P 8.884892814852428 1.8535410697888772 3.5783739597883306 -0.024471502778803014 -0.8824599405538157 -0.3665932880527816
P 1.8761605293756631 3.4885516130152254 1.5020193942201503 -1.3821286431387485 -0.7143822989148664 -0.5759646462341952
P 4.599914393669351 0.9004990508237253 8.20066052634802 1.0025852226832022 1.6651417951760292 0.5492881653842734
P 8.56412924043885 1.6850133678755939 12.292655318653 0.2815892751065602 0.241131681312146 0.6908543909962553
P 6.584990166553733 7.968731970206293 1.3140551397945721 -0.8439157617320305 0.5550988585287795 -1.7866886402432907
P 2.2584093952624844 3.367926617115919 6.102297444796041 -0.8302791447852023 -0.7635919278702978 0.5784056515755199
P 7.140839748200071 4.002626107522785 6.050695438900287 -0.630655610019172 0.7144735730770921 -0.9484419038715796
P 2.6114838858221368 8.785405376645757 10.040085344167283 0.30531927173364837 -1.138559556029704 -0.11169180665005281
