# total energy = -340896.7320174683 ev
CRYSTAL
PRIMVEC
8.98537922251524 0.00000000000000 0.00000000000000

0.00000000000000 8.98537922251524 0.00000000000000

0.00000000000000 0.00000000000000 13.15101074820761

PRIMCOORD
 96 1
Ni 6.39378022888791 1.908943822764169 11.428372688133368 -0.21362653391334177 0.5336743701064164 0.0372722540878971
Ni 4.72477298837496 0.33516902282522915 5.786970611647464 -0.8276831019232519 -0.09747103506498053 0.7690100135620755
Ni 2.858635512382495 1.5997030103177035 4.766518161856626 -0.6272432419035133 -0.6004065813266434 0.4001281865854335
Ni 3.3830671726113994 4.323593775389436 4.6937006483726025 -0.5896912517916683 -0.15583790503964776 0.23329650153844336
Ni 5.183728189971327 4.720361167160664 2.5312541177577352 -0.6703686123380778 -0.29994772300908984 -0.41231135891518667
Ni 7.259054280403768 6.211628620626788 2.5111852731912783 -0.25236817345791374 -0.7640704101686131 -0.30213367491681514
Ni 5.143922959870856 4.453342651834315 11.506871656920447 0.1195814938107747 -0.44942446171740014 -0.21912689490628065
Ni 5.68750246329256 7.8398602100797055 12.322036943943912 -0.9352721992588409 0.5089817524557427 -0.32451075706043464
Ni 1.6369384219511924 6.556604286371128 0.4757982950102126 -0.0636682275829226 -0.6516021303638521 -0.8591282078064107
Ni 2.5833953750376515 1.6189496926823108 0.4039610864029297 0.15674061935957523 0.2468084199819491 1.0405493606318015
Ni 0.5791193739897402 8.889693951497074 4.767530814098687 -0.1111305348299441 0.3373385049527223 0.09416845305430878
Ni 8.710732152871545 2.1573266615152633 1.4704016057597324 0.027885156446042298 1.5978963917648095 -0.5382280509153697
Ni 6.949750570302515 0.6126456210666884 4.627853992114752 -0.9652242655362409 0.44055389870064765 0.7435617486923001
Ni 0.5163187612993974 7.396054357907581 2.570404313710504 0.5572601278461564 -0.2277390620553239 0.14584582682394237
Ni 7.607318594955504 3.8589957556208123 3.709387393946122 -0.6101078677748073 -0.5522793868021134 -0.681871984991987
Ni 7.588629006104718 3.8081654651742274 12.590948678679329 0.3951585012849839 -0.3910604199562104 -0.4788239979254399
Ni 7.820910045230519 8.783594593251845 6.852715662649915 0.6561943777202247 -0.18748921339634161 0.5116538999712672
Ni 6.997525831802337 0.7682678970768745 0.31855595512031654 -1.2203833714757304 -0.8704688296302105 0.22449844363083918
Ni 1.81721208594798 6.297600729340404 9.08921609493432 0.25914097340537307 0.8708827772391775 -0.11401402702532625
Ni -0.03844933637086447 4.856570531290022 1.4609723487693407 0.4121817753158579 -0.3689103662217324 -0.27483318732964923
Ni 6.401974894768639 1.9379486269999082 6.883988376609664 -0.26513935708065306 -0.1142575104947 0.2978317051073516
Ni 3.495761799229937 4.508369114393072 0.4113416769231391 -0.4822610486314469 -0.5900671470738482 0.5866419234423832
Ni 5.771147358779083 5.476004606384002 4.754524477626805 0.8455841505733889 -0.15765696052625752 0.3613094139460229
Ni 5.10903273222297 2.814589183273575 9.576973929733185 0.06090532012580479 -0.14530075295374975 -0.620120771926119
P 0.17063954035937764 5.456811836294927 12.116946560982226 0.48981623527088547 0.10356712066038937 1.3770530283880544
P 4.14385923414796 6.1640779936083465 12.368341298859658 -0.4806515380524819 0.5152652714716094 0.24017523093614765
P 2.2560669941504976 8.345287793183893 1.6510571483748655 0.017654222746653465 1.0768199129280616 -0.9536972387332479
P 6.2035417792971215 7.745936040725252 5.860129569543185 0.1403837752681066 -0.3904274143579018 -0.3342873768312243
P 4.538730710896344 1.1697975398533509 12.45200865779432 -0.1133116016416629 -0.8762180734091619 -0.28760874182776275
P 3.946100022120581 6.1923549821244155 8.084833995941382 0.45934454904458955 -0.5899905281996419 -0.09431731992734724
P 4.876158658066326 0.935899132461616 3.5636211804409488 -0.751969513140021 -0.10444643794154916 0.5021081652643611
P 0.03587412667632829 5.511496854441986 3.693632429960079 1.1457051659355493 0.6065764575827811 -0.4584986561045265
Ni 1.5311805081176584 1.2612058030163533 2.735804479426183 1.0600804886861936 -1.0824660554702457 -0.5310932396428014
Ni 1.658242756165237 6.493985178341739 4.804564054698933 0.48159590424362214 0.2535457387057827 0.7784094524991045
Ni 5.962607819948576 5.355420816779413 8.93170599074262 -0.5500774940547882 0.6033587219764318 1.5650536342031756
Ni 8.56177253557908 2.218714772586691 10.057564127500187 0.3577816032984225 0.9002339767077852 1.537465697282578
Ni 2.533652315480944 5.001333976470316 6.999059636041197 -1.2146760366783083 0.38077343620790555 -0.7537263479301277
Ni 0.3924589024183667 -0.06593111882284945 9.239505548356554 0.3072892509758256 0.20619681710817392 -0.11486300528918283
Ni 1.480071670914163 0.9354588488781119 11.45074268832708 -0.042642517260874944 1.2866180742342486 -1.4378030538829172
Ni 3.895314658570272 6.828420994219744 1.4809225863296291 1.0698488809268671 -0.1107402413700609 -0.09533162012447453
Ni 5.743625142120449 7.64177752439914 8.065777803616985 -0.8886704402399018 0.776379052332637 0.05387978073759108
Ni 5.037131727422975 2.698381273366261 4.907115985214217 1.1884160745405143 0.288389071637213 0.1404094862997195
Ni 0.9805295112221226 7.598818426180098 7.163658305927314 -0.5682019715696408 -0.5411017729187391 -0.2038763965051134
Ni 5.077476080278759 4.5085488219781755 6.962907861145883 0.09042544107210879 -0.23836157476617653 -0.7079265159871937
Ni 8.017887529262696 6.976940327928706 9.032298210042349 0.43858751900289633 -0.25186783678272756 -0.10035581281194329
Ni 4.530985313978373 0.27603534340892755 10.283919309007196 0.22321237782956396 0.06785115531601862 0.8280479414618386
Ni 7.878227779499348 7.154051138427669 4.5962128776055415 0.7980537090925933 0.291236311278021 0.7837162094239986
Ni 7.173935782719395 6.051715826022251 6.842537025029641 0.41250933385860566 -0.6023107403278917 -0.2567012536156289
Ni 2.2453833782160815 5.458725722076282 2.653176728871348 -1.0253600544858728 -1.0751659222644063 -0.543004903478723
Ni 2.3515546194953543 5.330441462449997 11.260684844859322 -0.4666104865783835 -0.066616254467653 1.0494924287577023
Ni 0.9913029809490902 3.383058187232144 3.7698293445819786 0.7860320020413688 0.19462299622764545 0.36856069619179754
Ni 3.8053979683636303 2.7355088604486872 2.732516729156711 -0.7528637428195163 -0.13743446283179556 -0.922333893930618
Ni 1.0264088576991 3.2775338932592453 8.075694068163008 0.16536718468632167 0.3101706862886787 -0.42368489085945094
Ni 3.5582371411912415 2.7795012772820757 7.303361185511087 -0.12086884516363056 -0.11955192612441992 -0.9072548881103085
Ni 4.1011966534443385 6.848359550787002 5.920453811710798 -0.33472549280990743 0.4129888445981855 0.2163873844879306
Ni 0.6691322077544123 7.353149171964071 11.229030252281227 0.10753561838983415 -0.20978607712132905 0.09212468315140264
P 0.24195200281815776 5.632943240455074 7.653164695529237 0.16177098269463105 -0.4645698019992709 1.0148686680362458
P 8.519379516253114 1.5864405905370496 8.049444181206908 -0.9161007685367126 -0.5422477135977242 -1.3686817736052235
P 1.6635351445465416 3.1634914597524304 10.231802312251268 0.781857558948705 0.018196211293052534 0.6051119572221128
P 3.9350569910159576 6.1658930402178935 3.7289952885567876 0.2338634297855069 0.13938104503520513 0.03631914614600842
P 6.9296233207709 3.8525622240740995 10.252212601229422 0.03816005600948912 0.02029243170044892 0.1776020361896167
P 6.3885237820236265 7.74489373673165 10.230684531071923 -0.586583302290306 0.20578415505078754 -0.6133073485487115
P 2.425010094906496 8.437891111787836 5.82537142697035 0.6493513866564623 0.6109733010988961 -0.22969412889916568
P 6.915219757824837 3.886823475174122 1.5563296861149973 0.022429018427477503 0.1190580172071369 -0.1668838784411642
Ni 5.281120715718283 2.7711987868502845 0.5249294502396417 -0.4612919025789475 0.5775836698948569 -0.4504729575865726
Ni 1.5206945705268569 1.0024268804670098 7.204136540933999 0.11258397944701902 0.6672012703536897 -1.0869945394682183
Ni 6.716247519598009 0.8606304075167778 9.192714185885176 -0.1777231351485133 -0.6676802668726372 -0.5637393078125968
Ni 2.7606499516046967 1.5649385779793905 9.248159367117223 -0.7820053973804789 -0.16453954657870373 0.6363079232089428
Ni 6.4017862018042795 1.8525515825586247 2.4142366251795284 0.021134982206402312 1.1977502074572468 0.8073780718173128
Ni 4.118825967543013 6.886628281034837 10.131999009250144 0.33957587892367325 -0.27377080750340593 0.8898755162915964
Ni 8.174583558093879 7.243042334571027 0.21791611331053642 -0.8400783902638113 -1.180898683117547 -0.2637923561344554
Ni 7.559282757457282 3.8126401840433104 8.069999134791072 0.47127858147801416 -0.1860761350988989 -0.6233014836469459
Ni 3.0113600035828836 8.316058354466774 12.484609410807982 0.8172382524408442 -0.5414686693398546 -0.47571296310028394
Ni 0.17427592334395126 4.687232073846795 9.908865984744049 -0.9832358716223131 0.7112126429376332 0.4513666730454356
Ni 8.70301371209134 2.1947327953546005 5.854750921521031 -0.10805189590462036 0.06328796142536842 -0.2920963452854711
Ni 3.358069847523473 2.836252932657828 11.55290016069306 0.13622321613251379 0.016223918058030123 -0.27549498928336424
Ni 1.1472082964058146 3.4486424704157432 12.652074416676504 -0.36733376576323185 0.15947858711602858 -0.30653411797735597
Ni 3.235491303724232 8.409281664239325 8.070091684197399 0.45812558903582395 -0.6242504778237765 -0.4048325340396382
Ni 5.708591148404481 7.6571964352010395 3.613753306919406 -1.1681984619420591 0.8326867257854305 -0.5273741389200015
Ni 3.2508203607335786 8.293540994053279 3.6831375069900227 -0.2502105036849626 0.14853237251717002 -0.04613176136105603
Ni 3.4099065004466387 4.36419870424362 9.333324588773722 -0.06786863881751538 0.03252034122520851 -0.3719396399663594
Ni 7.186398503746338 5.883105184298695 11.2234799835153 0.22490313526842556 0.3859277267153354 -0.23034564644023556
Ni 0.5806477870010471 8.982548860720163 0.2141772970024537 0.6533959890394813 0.32161003847387193 1.4158347771419422
Ni 4.435704352356386 0.2105795511486774 1.4030157540354684 0.6520716138011028 0.5181698467129141 0.20924408857492993
Ni 6.178310834348561 5.646717826853274 0.33412492175577657 -0.846541886500968 0.14817756028091253 0.15583250572300902
Ni 7.866510844950587 8.933219128609194 11.279254029628088 0.47401269257972556 -0.2015140669205239 -0.006765600858607702
Ni 0.03486686566182199 4.6395197100017604 5.756894750204507 -0.0565958941171735 -0.05263408125594806 0.15401165046418638
Ni 7.815968086640168 8.963221309942258 2.4548990604609453 0.28924576321055345 -1.5223473535839007 -0.4260071112347244
P 8.551259641850512 1.5947880078651169 3.6265224293789493 0.36041467004589545 0.5868789791538538 0.5193926633764216
P 1.7844603785628286 3.471465333723915 1.6751496457717945 1.1459051977614974 -1.0237073493737983 -0.43158614798439865
P 4.669189432302383 1.1837518338366542 8.172340807431784 1.0559518112298008 -1.0273061224686502 -0.49378833254475607
P 8.575070896876753 1.7481864025096447 12.410964343894557 0.1549483033458428 0.0728897461811906 -0.48832345277544287
P 6.2689463548956175 7.721819282804334 1.2820806361020007 -0.037180979925671445 0.2466526111303752 0.5281626962595678
P 1.8220552053665249 3.0895507738615082 5.946058548436375 0.301085693268275 0.21191752164203503 -0.12870273938575255
P 6.865800171921317 3.766365480879104 5.724582427864935 -0.6039302782091858 0.21665863587144624 1.348932101782122
P 2.297552490171689 8.308636431201991 10.125199772767747 0.611928980143946 0.45371203334916055 0.2950785678422466
