# total energy = -340864.1357363863 ev
CRYSTAL
PRIMVEC
9.29203693849332 0.00000000000000 0.00000000000000
0.00000000000000 9.29203693849332 0.00000000000000
0.00000000000000 0.00000000000000 13.59983531297298
PRIMCOORD
 96 1
Ni 0.5800163780666507 7.0381511513217685 2.078313658560821 -1.6825263092010638 -0.5019400151176129 0.36132689744751967
Ni 6.460390879818869 7.442484845782465 6.244636287002964 -0.6543606669455956 0.5867936185288991 -0.5409349083235715
Ni 7.665177802565225 9.060470066209529 8.164347884220957 -0.4718187702522003 0.02509216708193743 0.821381070964624
Ni 0.8609583266788403 1.6769896548579455 7.609910625382863 1.1417145567189175 0.21803391895241805 0.8617515043618708
Ni 3.8833280688747127 8.102414599753443 12.735212348750766 1.6189051328059925 -0.8655677927841673 -0.4596409972390858
Ni 5.881060254076784 2.7881500136160233 8.102523316585385 2.5135521023443035 -1.1173032177540885 -0.7591770866320539
Ni 1.584348046783001 8.256327899267323 12.233732266717157 -1.376802860050461 -0.24827394878388206 1.0880726030237455
Ni 2.7377592974083576 0.7197491000395907 11.66218558030149 0.994550525304184 1.903374300563509 -0.5993488294860903
Ni 4.002944460123334 4.031090039948712 8.297136667004889 -1.038981244813733 0.6866907465368689 1.9340704440957852
Ni 8.055833618682259 5.710690757180685 5.157030312628956 2.1671450594314097 2.3518801071213815 1.4912226071546382
Ni 2.4660694299556694 6.380739539355636 9.100887639192837 -0.1394113840525083 0.25610655745442346 0.07390867436400819
Ni 4.52229498755812 9.163565215817503 4.7649202927342165 0.2699421777859351 -0.09002949118527076 0.5449797678169066
Ni 4.245178570545174 7.3754892596018875 7.454450201722095 0.7135446335049195 1.1261938353754992 0.5419070424288539
Ni 6.034908509332237 2.160630884415899 5.566535025634659 -0.18912726322039686 0.011256546750425776 -0.9298062910482632
Ni 3.9166121451158813 4.181611745987431 10.816329601225881 -0.1100290742356492 0.05048181079963564 -0.19942890225672108
Ni 3.9546072840746023 4.984174266653533 4.025823313423448 -1.9943288746662104 0.3059088256885312 -1.3546204104161508
Ni 1.9807928019001038 3.229670439823553 5.919437295752846 -1.6276412271274097 1.4737735584402554 1.583837085458266
Ni 3.068119085962872 5.512565946009776 6.939329409492496 -1.579081058830519 0.581670695480037 -1.151752400570894
Ni 3.482255879372322 2.2584109889066353 4.611214205643614 1.571508902910216 -1.4272844137397804 -1.8024924400447666
Ni 8.288469054967546 4.6123069491852 3.035306115993459 0.7912073755947212 0.6480087565856388 -0.10346196254109277
Ni 0.3178499192514755 7.182335688182241 10.65919754012352 0.6531267945384945 0.15843266235001743 -1.0798152481109597
Ni 6.370007236715058 4.934350364697882 8.990796514989112 0.04970328076239827 0.009137186414577812 0.47470946153643406
Ni 8.109876105398797 0.8770818691393862 1.6420032774533537 0.3571632529881333 -0.06346742442602617 -0.73183263318083
Ni 7.463661397919155 5.64076817937086 12.144013933456694 0.604618562525462 0.7387910667765341 0.6694260459191503
P 6.47789707737285 4.503590117241684 6.373100555805143 0.7259985429975562 -0.7824489126758009 0.8310571606018075
P 2.126538400962843 1.0296041507266045 5.844828743725147 -0.545106523202758 -1.165903238149979 0.12651833013992403
P 3.2647757553006986 5.9622912408161195 1.5061685649676193 0.6878793675283315 -0.5038300330514742 -0.5678474164436994
P 6.0938014393201 6.977975920239187 8.370793714452159 0.7533825914374638 0.6181376800578193 0.6298703951137151
P 6.435859902354691 8.640795218796802 12.628249853377415 1.0350086333192303 -1.0905159223579155 0.7244211712081072
P 3.856093108667324 0.5212934923543912 2.6662886662479526 0.48727649956816727 -0.19819143030519415 -0.050739435336396486
P 5.673596945803034 0.4860357874717863 6.927538743846929 0.095132616739791 -0.24691357810124573 0.7182908899406533
P 8.191794702870082 1.7665834748237046 9.309617452098545 0.5998013436424767 -0.11661444076265078 -1.1326689015768816
Ni 1.1430877976091822 1.7108870055357188 0.870226204301102 -1.023648985332037 0.2246012877572906 -1.0045564874769604
Ni 6.089759403260662 5.525621257879916 4.408440588402504 -0.7153850291477679 -0.8939070060484927 -0.57806163797254
Ni 3.8704678897798557 1.875133050102692 7.298297521310916 -0.5851748519785536 -0.67541980160874 -1.110497764796481
Ni 5.68662438156242 4.988569400115866 1.5179861775202486 -1.2523984909297463 0.2997392065427096 0.2928203679356893
Ni 7.4289556400294945 3.4281762245081113 1.1437335941750004 1.2863097989652106 -0.4846521745714428 -2.082206095395169
Ni 6.129668701824542 3.8535470905517237 11.729367936424126 0.4481839044420797 0.1396911200764562 -0.6487201808303665
Ni 1.9247525272461425 3.7187568030156006 3.55446615667142 -1.597813602243016 1.2986480088155892 0.0991471372158228
Ni 4.328184336335894 3.961371886951088 5.983233633622469 2.084133651435185 -0.7180247807634601 0.5010000198018468
Ni 6.875958646913728 1.5409356503009406 11.105271993624683 1.0623122062301897 0.4719938623774839 -3.1686686736193175
Ni 0.6497187346015135 5.328091137071774 6.612103824990507 0.22187000486905661 0.01854536710235516 0.4284643145259653
Ni 1.5782153024169565 4.456525950250752 1.162073287440549 -0.5728518116368264 -0.08684929368507623 0.38627842518653477
Ni 5.0324835665915115 0.15829542412452638 9.087110336054149 0.41487731987015003 0.1958643248339143 -1.5521343550383462
Ni 8.792050995752064 7.968321214986188 6.162752070068277 -0.3236934033654619 -0.14180688086787838 1.1895959537812286
Ni 2.433928274255445 7.9813114825979 0.939015153606901 0.4942547306582133 -0.05294569895909591 0.8002599727152927
Ni 0.6132512065121527 0.5904838576550585 10.147286217445485 -0.30974182628137625 -1.043825460279912 -1.0650414322358948
Ni 8.624812915297413 5.58477436490149 0.6926163522383029 -0.22723846826982155 0.27480002009886867 0.23216238793400015
Ni 7.201951178116665 7.491017154606481 10.38045501664988 -0.7425088819477534 0.7420723086309671 0.1086692177736451
Ni 6.653460822906251 6.964465298560052 0.3755971410873189 -0.8558191980378358 -0.3448088451878384 0.5418062551849314
Ni 1.3048064081343915 1.350421017366077 3.2282199528606146 3.6239303108437846 -1.1395561156150182 -0.2579929758438589
Ni 8.478612006425681 3.6522072346070997 10.556844824265314 -1.6022353854597955 -3.422747144900118 0.6561079886540054
Ni 8.98530677957781 0.8732647003733696 12.517125454668381 0.2781216282729339 0.6191833477135144 0.11695768303468243
Ni 5.048131356761843 2.165657876388672 12.732831728892311 -0.942080737540242 -0.2407046210770564 -2.0322066235485905
Ni 4.756482194008755 6.873449796945801 10.057213857578436 0.06722123504150358 0.07981115589137222 0.303834973878638
Ni 1.264042242174032 4.555049417694948 10.399155240947856 1.1414903565232533 1.1690906347390253 0.32215125568932257
P 9.167858136873734 2.642125653445737 2.5692128981556195 -0.32227106909663855 1.734795293808109 -0.8226607090079963
P 0.45513326029276485 8.865058529818747 0.9797347177900528 -0.1529965789361107 0.4763081734821216 -0.4133595976740429
P 8.336824815090116 5.584978789713691 10.256003049389 -0.38869397660656285 1.299967241847645 -2.4819954105839446
P 5.281008386007005 3.3994359543199666 3.4140894965400452 -2.31089440873764 0.8018725686180512 0.14537942871048512
P 7.206717993055728 2.0350025452811695 13.008378720869764 0.65472499226355 1.6175661022795949 2.804081874473603
P 6.895787853697272 6.522405934211264 2.5531646211941106 1.4028085400856036 0.29930263322592326 0.05281303003597356
P 4.609556506257398 2.3438233922591825 9.75547447193582 0.49156638519277274 -0.29706345948275936 1.056966111426928
P 2.6730960124942613 2.6170092776557095 13.040188150852007 -0.6810739145707239 0.06960130523790593 -0.03775047927589628
Ni 3.5523828819943484 0.849086820312085 0.2523772979217997 -0.34607331372255884 -1.317981933257511 1.0205073543792618
Ni 0.20434397148029398 4.043773670342122 12.70270880361073 -0.1906061617587685 0.390675782923282 0.7070929643423048
Ni 5.218333596993414 2.4755565996492015 1.2319624139174685 1.582469772797094 0.03384548779453526 2.3481412089042397
Ni 4.853649024062887 8.37581420199909 1.277189545209663 -0.19640502782873273 0.2302651709112873 -1.0935552234048713
Ni 2.2112353174726844 7.810849065332619 6.462220481888071 -1.4996074887842237 0.3793351610994822 -0.28088222173720656
Ni 8.817158079505173 1.4590542209773285 4.416342536597783 -2.2573938657163386 -0.9448865824201534 1.8618327296762969
Ni 3.427404985443897 4.560894108916528 13.266570975495005 1.2079315188656228 0.5192908476912347 0.512775158059904
Ni 5.20832607323246 0.16782254957680728 11.292854059708146 -2.4040120519299304 -0.6908852442341908 0.0001370397984965382
Ni 8.153576555025323 8.11962345212604 3.4972653066063697 0.12852841859141736 -0.4356124955349724 -0.5573904827764337
Ni 3.10002794074014 2.3932756127381047 1.9083836750109548 -0.49473012763273505 1.3732552519085188 1.0934739765449748
Ni 4.910479121854899 7.142928159611947 3.206432913898396 -0.6526711950583146 0.32584773070430334 0.29548763035520725
Ni 6.152174015240542 0.18325104767586828 2.8453573681069164 -0.20286595296272805 0.21314882294597484 1.104473155868956
Ni 8.430860228702798 3.7532395520192234 8.072617824967693 0.27943314799550584 -0.12389400514319954 -0.4119110381529745
Ni 8.534615112931968 7.978440243190161 12.971618493617479 -0.12041196013187003 -1.2649339043925958 -0.45500658379086806
Ni 2.7554977958852955 9.372505957961254 8.360770394228444 -1.1138481693259528 -0.7782675276046016 0.8692737808808448
Ni 2.9137318925661617 6.30004749075756 11.553903615685748 -0.6999201007429494 -0.5441901820360757 -0.0035897742337873658
Ni 8.077762825809327 1.678383460395683 6.798421244849398 -1.3789978108192507 -1.3884651268797379 0.27456604971119164
Ni 2.438184027164003 6.767808629222226 3.222549022729407 -0.03547428164720987 0.35257203407302506 2.601328535829339
Ni 2.488509699113241 2.271995946881116 9.591936480582019 0.17221094708103246 0.2882805710838067 -1.4361045831345718
Ni 6.993502913929581 2.431131371143052 3.1828106976448223 1.0954264722856553 -0.9824889661539595 0.7841748942279722
Ni 8.174372133648365 6.497261682310481 8.089698447230818 0.7548491486806612 -0.016561246792790835 0.43331264375720213
Ni 8.326417733741676 3.498860749345233 5.548066173055947 0.14863521664362142 0.4226009137666528 -0.2523928560482621
Ni 1.2087824986212041 2.4116924299100746 11.417442619911725 -0.8741084832653269 0.48503475472184204 1.1471035889449728
Ni 0.8622601410510871 8.78941205726728 4.693956077585856 1.8646072070976405 0.208744266120376 -1.014619528139917
P 1.0058908725112325 7.982231394252807 8.46638740265603 -1.2266758893526615 -0.11412587001284215 -0.29538967132476224
P 3.134139008267033 8.36800889098776 10.478006537032428 0.6551577089255942 -1.2261914935170752 -0.9806053759780017
P 1.5446710491420768 4.105705096402253 8.347007958348824 0.5112430376860937 -0.2858261960060432 -1.0869325758820312
P 0.879811869585968 5.7123354477152155 4.4968264435688905 -0.004590190473843707 -0.4804090830243727 -0.8541970890533805
P 3.9158037379039934 6.994710878728953 5.3047792748512705 0.3259166362690258 -0.5281356996763743 -0.7537186346206438
P 5.299536707621995 5.5897641887265905 12.801225766629083 -0.18565833083518996 0.12159801002017122 -0.5522217940913006
P 7.109346738189394 9.266093551173464 4.9704406360883615 0.0693447091424096 0.7936640646653299 0.10127883884684492
P 0.9547382092762705 6.178907205454345 12.75585646717204 -0.3989349376082807 -0.6379246328767595 0.07773010499262742
