# total energy = -381173.92701081536 ev
CRYSTAL
PRIMVEC
9.19355892494686 0.00000000000000 0.00000000000000

0.00000000000000 9.19355892494686 0.00000000000000

0.00000000000000 0.00000000000000 13.45570278583559

PRIMCOORD
 96 1
Ni 4.873955912707779 5.730538157131157 5.769980362354027 0.9919634813032981 0.4689663884050698 -0.20154620571003995
Ni 6.4641197806798045 0.873806376511636 2.027249548366595 0.11474833408818948 1.027351630994605 -1.1526296609695248
Ni 7.067428678479523 0.12560791410143435 8.960528577424054 0.994786809684706 -0.6471515507916661 -0.5634428596181006
Ni 5.208803705031528 1.8892671043528064 3.6946668894838743 -0.8518679266995716 -0.0016969280864486905 0.6314950752013317
Ni 5.085223889963277 6.403745681174285 8.01600626730704 -0.9787099587275014 1.4476544927557005 -0.30688070268349726
Ni 1.6980594720220912 3.6041048208697317 6.250603978339931 -1.2677304933011264 -0.04980381089600455 0.5055107631880068
Ni 7.148699736744909 3.131326068460508 2.925390355208848 -1.8300888616057964 1.4608445090834132 -0.009673004313389794
Ni 6.718928451594224 2.637218260035934 10.009091632458704 -0.1895908331203767 0.266672763006044 0.7585931891041258
Ni 8.639619139335164 8.252818547208507 5.2548689498895085 -0.7674555245907622 -0.21068544900714684 0.6616510299594218
Ni 5.529456642834715 8.486647517335415 5.545242902353663 1.5600641514083842 0.9277512082914474 -0.344540164907484
Ni 8.72112923012486 0.4819897787979219 11.235107836761754 -0.21548389883705468 0.2650750795016209 -0.9408502075672507
Ni 0.19911593146192416 7.375183053528599 11.64179317684341 -0.41788782456169965 0.6709766782357218 0.8288876637543143
Ni 0.6474554469721797 1.252640750087731 6.174176086759409 0.1120075381182587 -0.3375171966224316 -0.24441626560068874
Ni 2.8245186299500435 1.722974015902091 0.0871117260613149 2.8710087182031394 0.4995578880386816 -0.752147176368466
Ni 5.43179346953684 5.083320823327425 9.901647432137237 -0.568248251426544 -0.8302110105514282 -0.20783435271159692
Ni 4.971214569426053 8.899557815963622 7.914308041127641 0.0011222865299012929 -0.7720084340687672 -0.6558945870916187
Ni 6.585511528794757 8.389416441293024 3.4801021021046252 0.32502780590616925 0.7493634429757418 0.2893959156351726
Ni 2.070986984180142 2.0369983979349904 8.405023426418738 0.188473688796798 0.4585012272076877 0.03572393576417074
Ni 5.16695462616003 4.646286626861167 3.455572768331109 0.37460278862081936 -0.668775556819345 1.1116007680526725
Ni 6.961454528182564 6.450439765442373 4.5336967917759985 -1.2060145043485682 -0.9346119399670226 1.831354615692098
Ni 8.952650617036314 4.611332716960149 1.9383340461026026 -1.3251170016403953 -1.4105629872200418 -0.3628739302196654
Ni 7.168953146400866 6.377130328948233 2.2406706570526076 -1.9434583130685883 -1.0022640918983579 0.5094509787826775
Ni 2.3429232548172334 1.9750705870214558 4.2776212484827365 -0.5522120238992877 1.762574006583274 0.25616903526124274
Ni 2.7908426246982208 7.6885271122230785 2.260477259759276 0.9217772500961995 -0.06701451834733621 0.8559865768536356
P 6.749009775422771 4.263908136434247 0.9608491508832461 1.5070883705423013 1.3108386373445102 1.2098475049414132
Ni 1.9433711968745038 5.44083993122611 2.3163860478395137 0.6255347438528388 0.18052512337368265 -0.6090686278770157
P 4.525409718029345 6.180139948240941 11.823297008043005 -0.2782761515729272 -0.048192757655142804 0.3996661593473504
Ni 2.3190567766207466 6.393154701635628 4.547018258226966 0.8355799881728255 -0.10831851930244571 0.7700194286631964
P 0.41910583778714716 1.2213458765203802 3.7693728275335023 0.8779826215087524 0.8463251425044714 -1.0640906382868514
P 2.0639539118302523 8.795027054371149 12.799831289300299 -0.6262798495489795 -0.479358273162355 0.07916015257093463
P 1.4197704523735313 7.998506328459963 6.4144809995833905 -0.3586447226296662 -0.2623625656664643 -0.01993170592692051
Ni 3.7630522559772293 4.091170363385789 11.359532539867855 -0.8694031073698576 -0.5538526448265042 -0.25045887225034286
Ni 5.191758847336502 2.904741622531918 1.3231047801867195 0.37310357836747354 -0.6253889623035939 -0.9571394316455774
Ni 0.022699815606681856 6.020107673215422 4.074198134803919 0.6668053204668516 0.1946592487822196 -0.24566659306802205
Ni 1.3871149321293395 8.632402195812729 3.9947961270074632 -0.29995569342888984 -2.227041735787042 1.0683136752292635
Ni 9.232815122644844 5.452763976765727 7.097115598642957 -0.08907406925053693 1.5582268410893292 -0.3339022255776637
Ni 4.862574287127175 7.595736524997676 10.17680328700561 0.7741406499204215 -0.04728001603288632 -0.23396987345638415
Ni 0.8617793631153938 5.077197913281639 11.44672516924509 1.138266193159001 -0.35392237745333244 -1.4801419238604443
Ni 3.950426174360358 3.72683882854427 7.764155164203024 -0.16622824713503628 0.7389635877986563 1.9199525166371645
Ni 5.734610903603054 1.915248101033574 8.046752285424342 -0.7171102393689908 0.8321786758007604 -1.445534103978588
Ni 2.769697439855417 7.704983582165956 8.51815935888637 0.8292190789518041 0.6196263487882038 -0.21291690944082683
Ni 8.794594957115665 1.7205744971003643 8.593161329523797 0.2632053732827338 0.4591368039091577 0.14311994325234706
Ni 8.867564231940595 8.269458888323932 7.954849795962336 0.8188822158021705 -0.8365297536806044 -1.3482767275863101
Ni 8.397267740360745 3.238458607144507 6.694790763418233 0.4694196738924044 -1.6478737521242008 1.4561910694718017
Ni 7.739422652783845 1.3663650703075092 4.3638724574565355 -2.34576165292847 -0.7415012666188455 0.35706786506084953
Ni 3.2504102333600056 3.2722909028929945 2.397092621605185 0.21522550296934545 1.1122700262055554 1.0445785363958524
Ni 5.239933094543587 2.365144086019433 12.05195000466274 -3.5635502670938304 -1.482616353542866 0.2693865623927812
Ni 2.6905592871915642 7.3762862805638765 11.151709389030009 -0.8303776180362796 1.1759377395678456 0.7965347013449056
Ni 6.287502325890625 7.994976001947077 12.583974806933911 -1.2861419059287784 0.050855649199286604 -1.7152261134269298
Ni 3.59267722749599 7.628713819793823 6.215942423603261 -0.5443776154565334 -0.5956017037388324 -0.06560272560147412
Ni 4.775612416071485 5.944214846747009 1.7057121902234609 -0.8743367972260491 -0.9478508072548 -1.1587224041308237
Ni 7.638238346531713 6.2581380996350084 8.960528577424054 -0.21368875460984488 1.3334442905591681 -0.20693266683293396
Ni 3.5068185834755767 4.410885558208991 0.21746719383789015 -1.0381708330972959 0.18803737259032777 0.34537911586901165
Ni 0.7069423680701649 1.2945449903109927 13.23560780694634 -1.9730851347960858 -0.901041303100429 -1.470231863835584
Ni 7.555827286996539 0.906863655267841 6.657100850469728 -1.1554689301905328 -0.5695276323595998 0.24952196225837023
Ni 2.874117878744361 0.5850854258886714 6.710466700233653 0.3264005178839798 0.9546858278987621 1.0610227979948048
P 7.420213103685145 7.9002639609685685 10.654763529057185 0.2076734016537004 -0.4987911850759861 0.09138857631632646
Ni 6.441356529518594 4.717665416043573 7.482124366193151 0.9247396751586332 -1.624168952308093 -0.5015988297281103
P 6.797321926009266 7.788323191122487 7.13929932304849 0.36405380946037946 -0.08785073836639708 0.5054248883424198
Ni 3.957247794861819 0.2587940785793572 11.8956751370482 -0.6966565995003292 -0.5996504198869091 0.2044024442119125
P 8.021885548049202 4.747553675140946 5.402908227685708 -1.1769088452318635 1.3652267251770875 -0.6703290173493939
P 4.6722124621901715 1.657497491358416 5.810280326596824 0.2650154299082791 -0.09691747655435566 0.6259515196752833
P -0.05781001600436441 6.694988424928719 1.894886207385816 2.4874271231224774 1.7984596647362896 -0.8922224192572182
Ni 3.7874887348086093 0.998466434718595 1.997216031042911 2.14727968796605 -1.2950754609729824 1.0957496599530288
Ni 0.9586123580692224 4.104767636595575 8.707453811666742 0.4588498687963582 0.3158818777408431 0.49041144565272315
Ni 8.763704600127916 8.83700484306343 2.3719574323181294 -1.184944056831514 -0.7012223644941408 0.5367501808182628
Ni 7.710279071935284 6.4067335877281595 13.405472592923765 0.39271646750239464 -0.4081672548398261 -0.14222031425621312
Ni 4.622466116457817 7.0872040230868585 3.7800428716763537 -0.2706690286496306 0.03820762141797291 -0.055761314031020096
Ni 5.958979701902463 0.5367061623241978 10.767790977533014 -0.10032187425021431 -0.21320461588457476 0.9572826420916609
Ni 5.870795087549341 4.423057829831545 12.492502576015665 -0.6076087555020374 1.589017601217941 1.1832828670790072
Ni 0.9552107413771191 6.707896181241457 9.541815224887921 -1.1104190890397456 -0.6072225758072124 -0.8186045366607516
Ni 3.66991231352399 0.6256713098047776 9.565860977477643 -0.18957977737678317 0.24766331178307668 0.22730043185600857
Ni 0.9534915459138128 5.879758807210965 13.525671936484754 0.1821066089281896 0.09296260567166571 1.1352250923398322
Ni 7.381149673077721 5.065549674500842 11.017771191456372 2.5076326515360745 0.6744389257527095 -0.613886103870317
Ni 7.919211885299447 9.290458735238055 0.28600333469273276 -0.43508799049007 -0.5311050667173434 -0.9737508149500131
Ni 2.5219586155253952 5.804325658673918 7.14299973039598 -0.3763279988420422 -1.170953398979377 0.26846147947535054
Ni -0.033933424893387354 3.0708232591342055 10.68408362623139 -0.38354328564355883 -1.1140610566677072 0.607124102556135
Ni 8.354710757474944 4.068489854252225 12.886028256278196 1.2405295074063023 -0.03517269124639104 1.044439696825143
Ni 3.413044285477053 9.30801843221621 4.505668389588931 3.1421207479274598 -1.2270651543712803 -0.9731777160553627
Ni 8.271214858021748 2.29539255671406 1.2482857613659757 -0.6645823446736038 -0.7499324281053342 -1.3095330311592093
Ni -0.08371930292783887 3.4179720329012895 4.08963228102744 1.7888257411909516 -0.27858828349670733 0.35859535744896953
Ni 6.340714643225473 3.2520007190025293 5.256430016144425 -0.19581804497701114 0.40100339010153524 0.9573500049944867
Ni 1.678182998269855 0.47802183889437655 1.9617206205387445 -0.7774563445572159 -0.24347369918176134 -0.7718150871110385
Ni 3.0517833992170544 5.640165475824737 9.815288658527498 0.05565204214666544 -0.7715389506315163 -1.776543838499805
Ni 5.643732576572131 7.95346708474479 1.348812728176256 -0.8123238458583621 1.251721776577696 0.00036483953858646844
Ni 1.261742373128764 0.04255146675062424 9.380306464346855 -0.23361634677170737 0.32474781277190523 1.254596784132646
Ni 2.2309273236193885 2.102235889954356 10.993416535296776 -0.1312368186615159 0.05433897976219673 0.13574010584850815
Ni 7.294693447746533 2.150630782568496 12.294973452772814 2.703760514444021 -1.0931798423433239 0.8142480594642687
P 1.5467426905752577 3.3567980937951933 12.929019175131206 -0.38112233490689196 1.6487070466587737 -1.1647184738132588
Ni 3.1449233416702937 6.9524724214036855 13.626455403580735 0.49692353573962805 -0.07658107898984876 -1.2098408200731938
P 4.416061531716165 2.726837069534915 9.65839506441734 -0.5628741315988242 0.07229659268188193 0.6064072789947685
Ni 1.2210241019684245 2.6671340998091884 1.6196632395394626 0.3215038519133108 1.9471699575922208 0.6223332061964055
P 5.119166508415292 0.7088380798591154 13.642871421865653 0.7177329605546542 0.05792155490713251 0.6300848251173665
P 7.958348864375889 4.042150308784993 9.070569958057732 0.7637413089639686 0.6618479764615763 -1.1981459002337689
P 2.1435609359840972 4.226619062641892 4.094947077269887 -0.1442481433195193 0.06395619113698664 0.3883152531109054
Ni 3.8366466927888156 3.814159248386425 5.595365264633873 0.43442130344034857 -1.3820844201643747 -2.5541215391262333
