# total energy = -340873.3547291542 ev
CRYSTAL
PRIMVEC
9.18919802310632 0.00000000000000 0.00000000000000
0.00000000000000 9.18919802310632 0.00000000000000
0.00000000000000 0.00000000000000 13.44932016518459
PRIMCOORD
 96 1
Ni 4.880226951426288 5.873037114920597 10.469004490088341 -0.017650366091911535 0.8748546174027322 -1.1578150618252059
Ni 0.8740701010215025 8.746324799517776 4.754321152191579 -0.161336980481006 0.49369860104442714 -0.29283528033402473
Ni 2.538295463957005 3.409918481495954 7.111059194731978 1.7079462919360648 -1.1773402763423273 -0.45440803097492066
Ni 2.1756253783170174 1.0596064452617864 1.1094394671389407 0.3642062758778437 -0.9092462075087244 -1.1514161002773977
Ni 9.453663331510022 3.435344992935026 3.3749728796341376 -0.2714406167083325 -1.77280314051045 0.005040133527068739
Ni 2.4498402420153695 7.606496653907923 8.500871207287855 -0.3089324430062034 0.41953024526112903 1.7363145586661128
Ni 0.25830376700274205 5.612633616127531 2.670496782883405 2.3404163294561564 2.118926076524022 0.38101871944949217
Ni 4.452157342146304 9.326209152377414 1.386355955110183 -0.22883306645045107 0.264965293396634 0.9712115934679275
Ni 4.992960035031107 8.111801474118664 11.74069211645129 -0.6333380419473416 -0.5407191927683398 -0.40836445845229674
Ni 0.4166704089040657 0.8364991452319149 2.6486154641126363 -2.127091385943633 0.7311152953988311 0.7626737869314026
Ni 8.372122270127866 1.1570395138517675 5.694940345548789 -0.3467528562880867 0.17457687621004772 -0.43216927418137835
Ni 5.722444534702487 1.0423307526324208 5.3800237662316865 1.3343524041957342 0.07607277189486253 0.6722216063864165
Ni 4.091747799265265 3.0281899987744216 4.816833429754904 0.3929460670146975 -0.10342493865557029 1.3190152596180316
Ni 8.66050687746158 3.849511345327654 12.542069227215812 -0.5168004771692132 1.1313938915191997 -0.22007357509026615
Ni 5.973419916135059 5.409157200227507 2.179031814092393 -0.8901449679028993 -1.0498549543034434 1.406334808071307
Ni 9.25269556672054 7.248310896993005 8.347239759222655 -0.09481508549937219 -2.730953272808729 1.37329767511068
Ni 5.638923912198071 8.772468068417002 8.485714543765049 0.02437560063088705 0.14591473238866484 0.2203168014493238
Ni 8.52463539277126 7.880785031191932 3.0523640224978643 2.307990090606651 -0.8165458543595099 0.18782679924141846
Ni 0.2047601468895569 -0.008946603374441725 7.4863892387419 1.0822138302501232 2.353981983955733 -1.2455668127198936
Ni 8.473763991496703 2.532827891023775 10.48316688236514 -0.09637111713258241 0.07647977752529408 -0.035906741198938164
Ni 2.417531021119173 8.351373060576213 6.401392119914049 1.0727331444531978 0.2156466496671641 -0.8473103892358762
Ni 8.730997216908317 9.309301027676332 0.33049318919797294 -0.916389246311409 -2.7826147057387627 -0.00973033991388647
Ni 6.847625098370207 3.891974630242707 4.043094670437904 -0.3632932771452711 -1.235186240816518 -0.41079620782224097
Ni 1.4742690143575987 5.6567785243144835 13.200360413777611 -0.16223918058030123 -0.4768005397375079 0.33390402534987657
P 7.9764445845279415 8.72336099319821 9.111470455154757 -1.1871222954297556 1.2307071219992418 0.6015450658064608
P 5.465817796372543 3.1481090353771997 9.981319038519914 0.3302327471458764 0.5715742304759833 0.49040013279881356
P 4.50064874108522 3.728480415741816 2.746862695663767 2.108453202017156 1.8406771786446041 -0.5863290201876548
P 4.970299472252375 4.669132690212571 5.995249775395869 0.013700380305228018 -0.34548555953988885 -1.658655416120737
P 7.034919336227511 7.728363800530608 12.53503581490809 0.5178895964683339 0.14679070723571494 0.25624616835608127
P 1.2724190865402334 3.967969299415502 1.393753259666906 0.15945133342251896 0.09292686733772383 -0.5036323152183714
P 7.750206524668908 1.7101557323340972 12.483040574692803 0.4313935723576184 -0.5411953610738098 -0.4295531767147699
P 7.031307981332118 8.37760822145751 6.36953133189036 1.7799646912558957 1.654162670456706 1.785640144374118
Ni 1.6910330108651026 8.205705890597114 12.803308943045725 0.3528947075197664 0.8142519161190106 -0.5341142858573125
Ni 3.7456366487944894 4.631668329122186 0.4569154213719221 0.13531098873088954 0.5603701342300479 -0.2813722739997476
Ni 8.78296213276952 6.9544954735188895 6.015638768377803 0.7590331048550218 1.312091793025321 -0.705537704040043
Ni 7.8542466267698 6.727669304974601 0.9118184083364872 1.043399428486087 -0.12687031416270408 -0.11962880210894238
Ni 1.2470477102904043 5.289219785228314 7.226817362386577 -1.5030298842022114 0.36794980208067596 0.4415383741011041
Ni 2.1677778030481463 7.5085673686147585 3.0142747959293956 -0.8099807995474825 1.2851597445211673 0.7007677934552253
Ni 4.6744624251726945 2.2768995317575706 11.774463338782237 -0.24798649945045032 0.0619810696884868 -0.42042550338188883
Ni 2.6801399274819455 2.8513071224857724 2.867758544035961 -2.0028865344282343 -0.3467518278468222 -1.3664479991786982
Ni 5.209926193899167 7.47343706386898 6.495846969365107 -2.974336469159213 -0.03925637439746143 -1.5320458118185871
Ni -0.04503993609232608 8.132082034561753 10.85809352057377 -0.07866418677112258 -0.5779971032831916 0.28286968448088057
Ni 6.6288946134463815 6.654265989696211 8.021819926354826 1.6792610081862305 -1.2348489120817572 0.838206112941763
Ni 4.019456376969935 0.5581574126187501 10.313113418184013 -0.2744441794213467 -0.03950397163189325 -0.7419118717937029
Ni 5.152245596753142 1.7361795416566312 3.0106845761898784 0.9197098260442096 -0.41437415498148633 0.33695541058169065
Ni 6.667250326762856 2.9304261190489846 6.413913321391057 -0.3239659403005582 1.1453891773570275 -0.8220634417436293
Ni 4.812925263757419 4.4455594978335995 8.027253499254691 -0.8103420395416432 0.12526440312816492 1.1353703596684446
Ni 0.9001692617693346 0.9660236507205842 11.83425837043572 -0.32650053379695376 1.4120963931454327 -0.22899350328771528
Ni 2.4457326704167914 2.721959968522501 12.905510286585375 -1.468556275905374 0.6355435342390926 -1.1873999745711743
Ni 4.128008375390519 8.953908787016378 4.346873941527989 -1.1567902201051175 -0.9472728232641429 -0.45482120725293934
Ni 4.544223918983333 6.259442899529547 4.374431428031289 -0.01668620240642933 -0.052002618319536245 0.2747833079283203
Ni 1.972240854399065 6.6796281767478325 10.955736102882872 0.12665511282810446 0.3849941591574724 -0.14178811181480097
Ni 1.0305410113326994 2.510994356083683 8.739435657621906 -1.4806006086644177 0.4687023361104056 0.4683562656248966
Ni 6.72799092691185 8.526776475953517 2.0493400651963545 -1.583587431341305 1.4760548982752644 -1.3549299712367697
Ni 3.221365323484276 7.4353202697058896 0.9442149266156514 0.36986758792867913 -1.3892598548668913 -0.24703904793551648
Ni 6.60639026703717 8.0094797520825 4.435370514861556 -0.6275412327599064 -0.7243244977292429 -1.4883393720695721
P 0.8793823765050324 7.291178506629171 1.1033020016564123 -0.7968584032329116 0.6043493680244753 1.3955390030073835
P 1.3950673150105228 3.3030756739418927 10.852229893197812 -0.2742665161929018 -0.14090776609237665 0.4788453380816786
P 7.5021533082661955 5.98302262826149 3.5811509198070515 0.40808806486245847 -0.0323205665095766 1.0437244159256736
P 7.543054429486039 1.5679069440880435 3.7229871130536063 -0.5409421074124232 0.6648767359855711 -0.9675986793056885
P 4.872691808896459 7.505020338106814 2.5520085044414738 -0.48441923262503017 -0.5306049871524733 0.16067466430665875
P 3.776843165905833 1.0898572857595907 6.368952412403312 -0.35170197276324594 0.2541900571580009 -0.49111721347049614
P 3.521502915324884 0.5922327974103532 12.791460390877479 0.24340376517577433 -0.011622414730276759 -0.326922708936037
P 4.419195688177402 6.738852559192653 8.521919984701059 0.3118629863894371 0.18311345292614917 -0.4860827363703822
Ni 8.06132520836701 4.257622016101798 1.6474615086462727 -0.038662963787836645 -1.1020650606480957 -0.4412128724408853
Ni 0.20366019986416592 2.2013367549005096 0.5341359295855453 0.45631938906502056 1.5685382503176664 1.121432923651746
Ni 2.1452275106478997 4.574520705472173 4.730273939403395 0.41971125092368355 0.1784142476782669 -0.22306248251526098
Ni 1.6677659610047015 2.2266713743575104 4.940284794148494 -0.13324716422332536 -1.6612892541991584 0.6199181689970098
Ni 6.989285777931006 1.8249655747337223 1.3839888176520316 0.47853012083410496 0.3171735999690731 0.30998608108169834
Ni 9.045488336348429 4.482674669392114 5.4785264574929755 -0.45711257439027725 -0.5486032235021068 -0.21173188799379022
Ni 7.3160720445722305 4.965842711121927 10.424420338227089 0.437879180081962 0.5170804703034773 1.4116616196008591
Ni 6.976090089305597 3.9012924772247155 8.518436359660745 1.0869168921527474 -0.7629208699452023 -0.25621094424277163
Ni 5.667015291117204 4.446515174447138 12.056333723506933 0.09708588381141989 -0.6174329406813108 0.7460400350294636
Ni 2.794802742710257 5.259639756199629 9.123871278135253 0.10711652857454455 0.03827781253427601 -0.446674923996721
Ni 4.372771858835086 2.4055483066571024 0.613567358887799 1.820434112124852 -0.018035003124839907 1.993396078439296
Ni 3.0690635523996446 5.456702111751091 2.515345441434749 0.07799672839045277 -1.0794573505509086 0.3513044802145111
Ni 5.913506343824706 0.46818505405312105 13.124936393813478 1.7237408357661603 1.0062048217136605 -0.2802546154555367
Ni 0.47184603061883346 5.261854352967543 9.536792494170816 -0.6354422327745379 -1.5452846791063644 1.00983033428139
Ni 7.46148191700153 1.424647344039208 8.166776771312517 0.8496380089277883 0.07454785060990388 0.2883476768763163
Ni 6.7847985502282 7.309244470304349 10.277822302469609 0.6645558623110426 0.7191686645599162 1.261733395177427
Ni 6.960238722398333 5.532191375022494 5.837435404306793 -1.6101618393957238 0.08823434695806094 -0.6609707160629454
Ni 5.146575861459355 1.8759288679903512 8.249974852959864 -0.9645359812199648 0.04884787474063845 -0.6371790129599865
Ni 3.258057791925264 4.585097472608556 11.497783932124738 -1.1243647525865603 -0.3898026362897093 0.31316859257473806
Ni 3.19585610926134 5.919222025109528 6.612614110982845 2.239456564511627 0.5605130875658153 -0.5082492451650924
Ni 3.2096490957702115 3.007100788889106 9.665892458702318 0.8300947966885383 -0.6820712454869866 -0.4950003505749862
Ni 5.544973549728584 6.408004666943885 0.3254896707742018 -0.199612736132753 1.5668950582872885 -1.843462197588909
Ni 2.5590171059140365 0.9218327965425951 8.135655713744498 0.6792723425856108 -0.40530818812447617 0.8190002294372734
Ni 6.502423678521935 0.7838432016655366 10.544334780230763 0.5585703620171476 0.4027162590275839 0.08804974175108062
P 8.859884910961233 5.9891885802584595 11.818307760187817 0.3872335900109525 0.08333331011201776 -1.094506017353915
P 0.4582258010362559 2.7338783585971216 6.689301645700457 -0.32408498237692573 -0.7231744432851998 -0.15704709485640048
P 1.7258141260790119 6.633360563775036 4.9643595745313 -0.21995119057978893 0.8128344669461937 0.9641778265495976
P 2.448379159500439 0.6664861135229008 3.171241922943777 0.8496529213261237 -0.5634042930706813 1.6881228294522348
P 6.532711275812567 3.815373473988243 0.41517256959630683 -1.472724805460767 -0.35359790423437815 -0.6782703836836577
P 8.357557390969598 5.289642488345841 7.546144756843091 -0.4646207098418643 -0.25603456656590745 0.6590889256592004
P 3.8219988858955682 6.516795584517854 12.51552071467565 -1.6395091822095895 -1.58336528802817 -1.2667971828535796
P 1.9829554595085546 -0.08597321950589497 10.271541485495051 -0.34128823362908967 -0.9712185354464627 -0.7621243421858358
