# total energy = -340872.3128704373 ev
CRYSTAL
PRIMVEC
9.16452502382730 0.00000000000000 0.00000000000000
0.00000000000000 9.16452502382730 0.00000000000000
0.00000000000000 0.00000000000000 13.41320873675505
PRIMCOORD
 96 1
Ni 8.150066883422852 5.357324585886369 6.219007115439622 -0.7965629834796798 0.31594306999608174 0.5113309694142097
Ni 2.871648855983486 1.2521123640395213 5.084008213699085 0.2877565802595367 -0.7762132161787341 -1.27300074056113
Ni 5.040351166954138 7.501172705624934 0.8748675313694787 -0.6206038822101246 0.8112861486224673 0.47478196664558237
Ni 6.875758040340514 6.437235529110653 0.06336535730711619 1.789288796870299 -1.103481481379648 -0.23358266532029448
Ni 3.4524781081616713 4.643197320629012 7.027836914073048 0.8147437681537646 0.33848675962455255 0.08276638186495423
Ni 6.05158316139772 4.268652356962279 11.811885649113638 0.08354799722598513 0.5965553259013533 -0.21897828514355838
Ni 6.2741803040364275 2.766302643515622 3.1825251165725352 0.7860160612017688 -0.41342438947370735 0.5965316717522694
Ni 1.1024831677835139 4.371835741579561 8.047723885728866 -0.6419877472025396 -0.27252819334555645 0.5792407458823057
Ni 5.303812925634098 1.6829091808709133 6.589023887407324 0.5501389434203429 -0.31102686364138693 -0.7514522071839704
Ni 2.1321541861057685 1.9317260289355058 11.60529526547418 0.19768800830621439 0.16438810860250397 -0.23078916173555736
Ni 3.4038328105732054 5.911860816440344 2.099287450849266 -1.648323952287742 0.5678510159881253 -1.213061898113653
Ni 1.019809989647577 5.852593834619581 0.8478734235987878 0.7678910694662839 -0.5991032891341876 0.7762073026414632
Ni 5.798834732197964 4.123248006634734 7.456415915905116 -0.1168610095558181 0.5357901308978386 -0.1435331195303657
Ni 7.499669723559276 2.329970453710713 11.82368955704392 -0.5575174952726011 -0.022177564538303742 1.1993406918728184
Ni 3.5879481136162132 7.907848493207485 5.620080676157452 -0.1854305310951 0.13619596243900417 -0.37630228781042935
Ni 3.9309579474785172 5.07765078285185 10.912530507503694 1.1811079709148755 -0.027117939262714587 0.6059087420917951
Ni 2.415374660234246 1.060876225234223 9.223431606589214 -0.6850781506341105 -0.16571145539961785 0.9201237736531767
Ni 5.155695875968538 0.5454019486951912 4.164707400334897 0.11419580401882913 -0.07775144514886609 1.12739916853751
Ni 7.6293569138709545 1.252634741952585 5.9770059244617935 1.1606263060217559 1.160580283275169 -1.4445591416598282
Ni 9.127600920211425 3.1065172973167963 5.002000380062945 -2.015611952414703 2.5624642546639738 -1.3733616955793961
Ni 1.7018797471874403 4.545320195865481 12.31344634411559 1.3259549241606585 -0.18999115388258891 -0.35464640010355053
Ni 0.8734580274566854 1.7355135531689156 6.37081838504827 0.4795755313794837 -0.942898605455847 3.1986222825586137
Ni 6.038248777827408 7.6927662608970655 11.815131723794464 -0.2554167304762504 0.2136154781697482 -1.0709714245670847
Ni 6.613423518209798 7.094771853786099 2.7447980860944967 -0.3066302772355881 0.7974279025831363 -0.05569060869408473
P 8.541437914605114 1.7646475774782098 3.2372244992376666 -1.6092084743435189 2.013152692240933 -0.7268909729048385
P 0.26687004544958104 1.9687965317134533 8.514745319700033 -0.7331796341270277 0.7468640735926557 0.820823141578625
P 5.047444509142057 5.77326570803221 3.5453660656292034 -1.292285042712039 1.1744459855136675 2.62205651240531
P 1.9504124949835244 7.703727032546614 1.6019800118026262 1.2701180196966964 0.26134775124870474 0.8104561965220042
P 0.26682605573058615 1.8147958571323333 12.759944741270706 1.0475489318780864 0.8984684001669301 0.9166137036173891
P 4.437554548852901 6.389140103009622 7.815661621886434 -1.525966695504043 -2.0899677416184588 0.9089934680679699
P 8.236543339346884 6.760422495850905 11.541837346466679 -0.5847051114309866 0.9477217378761034 0.2694667808114133
P 4.300352448212938 6.6233761921323815 12.561161616300353 -0.45847860149986847 -1.218229044136889 -1.018478753985007
Ni 2.193895589619992 6.949734084450179 12.121918773421953 2.076819377161959 -1.1338657500984601 -1.7233304877016193
Ni 8.053665247150606 5.424390578303926 1.9070762066062485 -0.35238100110814147 -0.9238611292084219 -0.5727029447637878
Ni 3.906800260130515 3.4566204733670194 2.4442355817047807 1.3115963414461411 -0.2633619534652561 1.5453911227772417
Ni 9.160858980676485 7.48627118831543 2.5459343133059877 -1.1898782609083378 0.7449115778519751 -0.4909940576290705
Ni 0.6885160842775663 -0.18514997789186569 8.592045336951246 0.002108818812886691 -1.1177562461311072 -1.9644526559320683
Ni 0.728572389232289 5.3529256139868835 3.527271627882657 0.358548306261118 -2.330969325110644 -1.3452844777272057
Ni 3.729622502353986 9.147597913304496 11.41312434514024 0.3042370944130632 -0.6769547501960277 0.44245317260588957
Ni 5.982088569910656 6.397800578936732 9.754568055995371 -0.33683019785773605 -2.1547474570980047 0.017779692580924218
Ni 3.171411297358983 5.36260335216575 4.437747003873505 -0.18443345728915334 -0.3566606023201018 0.5192044586250155
Ni 3.628546958438539 2.91593183977163 9.419721064364047 1.4761518288644448 2.9080068926940434 0.9469938585711433
Ni 3.363078168829439 0.25853491015253693 0.8036729205337592 -0.9644552485807003 -0.29148493695371736 -0.1300109166742148
Ni 5.312739172780135 6.233453155867033 5.710338415010084 -0.16591585810094006 -1.359567212898465 -1.0113418858299097
Ni 1.330716493168435 2.5364655262923477 3.2690134863787956 2.5003795695180875 0.9000272600136177 -0.9827437624772429
Ni 5.3392888010984825 2.747304583624724 0.8892888275799553 2.108961252001826 -0.7428644655149593 -1.2516137902449218
Ni 5.977451320366615 0.5361650241587528 13.059206799592637 -1.4342857847582784 0.8295443235017067 -0.8811957291294115
Ni 8.315239113723704 7.959371451580198 6.609666979498134 1.359181547424272 0.23762212549699074 -0.7040824596507552
Ni 5.465960862754055 8.500628285712605 9.46195852621893 -1.4375212609764403 1.464643314004213 1.836051764057451
Ni 0.20335164057846192 3.671794350925346 0.7843760971346871 -0.6106593694029032 -1.5811636523911607 0.402402584441907
Ni 6.954316346845475 5.099269896832858 4.105340525193916 1.3215835345658402 -0.8069548682369649 0.26244098431288354
Ni 8.031083858066586 3.170320718908903 7.164691679223447 0.2582665412202197 0.19564963771994692 1.2513685070033351
Ni 0.7770765531389799 7.883351718442232 13.289029253576247 -2.1635683978237448 1.858170193223045 0.5875456662035753
Ni 5.531074811391217 5.200629541016815 1.742214653695797 2.276598463669247 -2.2958118033729042 -2.8167445575429357
Ni 3.7381363458844463 8.355031480364458 7.983849897295871 -1.2093150294767108 1.8509587630762703 -0.9057579918498077
Ni 3.6641694662995725 8.079023487246175 2.975451762476613 1.3234601827632626 0.9686888270460736 -0.08707580787358551
P 1.8527003316662247 3.8002260013407123 6.006797045198573 -0.27349955611989024 -1.8857977251323264 -1.3961560677660922
P 6.890879506244993 0.2704817846695536 10.727616057898947 0.7313945172021469 1.4045057252823683 0.16338537836960249
P 6.362709613513553 3.3516133483164077 5.436440095498598 2.052000518346066 -0.05472310257449285 0.2598595967389525
P 7.392398960885389 8.52776444361755 1.1971252152959648 -0.7085811188520571 -1.080923393573474 0.43116500128658003
P 1.6252093327893415 8.842932451166034 6.101922979619967 0.628072422673028 -1.1287181444592496 0.9763802821530604
P 2.133739648894541 4.464049190022505 10.083217995963295 -1.5649911563963563 -0.23419227387983538 -0.09022386658426397
P 8.837974443254323 6.779008152126227 4.658098837938516 -1.5280091798553683 0.8773650425294116 -0.4587154001010229
P 3.9913430013237328 1.8519030180094431 12.732836993392612 0.4411236551611886 -0.06372427763183865 0.27619021557817597
Ni 7.556480612736161 -0.09192018364964501 3.47664954229686 -0.9365610932735935 0.4010193309411352 0.6238288169053255
Ni 8.197960689978489 9.185786488106897 12.65499993498867 -0.5774774833342957 -1.457123094367768 -0.10980615959156574
Ni 6.070407095317598 7.4655135396647365 7.422789441543473 1.8900940385148353 0.423431122977432 -0.3682673333210948
Ni 4.357154172865032 3.2094807333391056 4.860772303682474 -0.8133443167030766 -0.050397735726261585 0.07417478354120129
Ni 6.879662127901307 0.30526023979737393 8.048716403763686 0.9168528162113887 1.7607318111682129 -0.7250392644080803
Ni -0.02018669875623859 0.8588140332937974 10.757808584821555 0.7715952577907486 -0.4850833485715904 -2.3145754571336528
Ni 5.313435676664221 1.882640834157091 10.983016700573103 -0.4967690124396348 0.20622972722863836 -0.8748353341290225
Ni 3.076998362966297 2.1346011142248567 7.190110405182636 -0.7235886480044829 1.2377493735580039 -0.7173390675503453
Ni 1.7814919740433193 7.448944078843346 4.050748367468834 -0.2935184224439784 0.7777751613492153 1.0161071684290373
Ni 8.550235858404083 4.7741125572626295 12.267197569759865 -0.9032074575138123 1.8636700399953516 0.25078797345498743
Ni 4.143052544707205 4.449111014613839 13.329778396605137 -1.4475015121176038 0.7246281450125908 -0.17425420276330636
Ni 7.145543321125983 2.250834782143944 9.324017764880844 0.7771321284485777 0.8103052727664367 0.4335846664716661
Ni 5.389602042198836 0.49908810621345184 1.8091605908385977 1.178107750635971 0.38018439647365493 2.0875352209175664
Ni 3.0810857410229016 7.035358239568687 9.792782291467184 1.217318873617794 -0.430467203888607 0.5205113503618971
Ni 0.5124463175482199 0.5291990688654233 4.434246155403498 0.5616145481601102 -1.791789966025598 0.05326837240583729
Ni 7.911294354528748 4.929762846306056 9.303656023701105 0.4003978953070524 -0.460417213283478 -0.2536807216217502
Ni 2.051744645593108 6.727219422534588 7.74520200593892 -0.5317061906364521 0.4465893062614502 -0.48453107561254616
Ni 0.18762256668036761 3.3180895166324196 10.883383652859694 1.5896308093219076 -0.34519142533823777 -2.806596156255025
Ni 0.6100915798345482 6.499746752707286 10.011417610038917 1.6185775742632447 -1.2741988746342894 0.5655637626158454
Ni 0.9666282522877674 0.58889128463647 1.826731734219601 0.8045927957626916 -0.46357169975205964 -0.11170929015154955
Ni 1.3042218519988313 5.788671274205196 5.769423022787515 -0.05388235184075236 0.39187700232023476 1.0622384155694609
Ni 8.017199603008839 7.823003322696178 9.297351747097657 -1.9380068030357138 -0.3173206670698987 0.8047573463650141
Ni 8.029544217901767 1.4201989132237822 1.1418466346640677 -1.25544859060998 1.5248744908811287 0.3609988246841396
Ni 2.2949344754362766 2.5102824789656246 0.6596001756582881 0.13947977539659848 -0.8851210323257466 -0.644753997093767
P 3.4761225821214006 1.412014992585783 2.924924071496159 -0.12885186336910714 -1.0764854124067784 -0.3372590578650385
P 4.4429432894297705 1.1906275672194346 8.505154644506678 1.9366060660334454 -0.6950542880102158 0.9273318613658417
P 6.4847902482490385 8.787175482340068 5.693062369327338 -1.9833196680399003 -1.3446180477878005 -0.590376450784151
P 7.136516264207249 4.101573905504982 0.28679738815424577 -0.5655015419193422 -0.548457699063178 1.8034100667630297
P 5.872260904820193 4.116466258289695 9.625814730759854 -1.1356395541694315 -0.4247778668133136 0.6645769453569652
P 1.7940382084816406 8.56811584627053 10.545988006884107 -0.8137664918421598 0.23749099923576522 0.6917540199923893
P 2.1297989032345863 4.183009872794189 1.9707494919463286 -3.380000755071527 1.8345713228571823 -0.6301077079355019
P 9.03337127631455 6.391926118545962 7.951228771303756 -0.05241862281103231 -0.7600062674015685 0.16115186105339344
