# total energy = -381176.4214355164 ev
CRYSTAL
PRIMVEC
9.13098338413652 0.00000000000000 0.00000000000000

0.00000000000000 9.13098338413652 0.00000000000000

0.00000000000000 0.00000000000000 13.36411715663433

PRIMCOORD
 96 1
Ni 3.2053586825726135 8.234804792458336 8.568203477062758 -0.11434081423712567 0.015246898856741483 -0.7946783648624571
Ni 0.5454374685414809 2.8494694727004326 8.377737554559506 -0.4962403936296744 0.12719761559513576 -2.0903986585082905
Ni 0.29405966872561684 0.17545002026508583 2.6855865822348663 0.34929901974870814 0.19611423606119127 -0.6684387423052166
Ni 3.456561167506767 1.104456361825467 3.0672790381604598 -0.25405224602855603 -0.5371718417367136 -0.09762093037928349
Ni 8.34608408742735 8.61335710318496 8.021397274106256 -0.45263602667616243 -0.383741517697294 0.18175616756730634
Ni 8.25607998383257 4.731027309674243 11.907227886661127 0.9768507940315757 -0.3179179343342654 1.0062608717625767
Ni 7.774110154863636 7.38682862398518 3.8289400203414936 -1.523661444409634 0.5345040650965633 1.5314675707176142
Ni 3.996795801694154 6.662997306123225 13.082923268049962 -0.9157590689265778 0.9707428813616249 0.20873038216330503
Ni 2.5099521161046474 5.061861101035308 1.105116531926908 -0.2587761338667866 1.0338966312019742 -0.096708188757027
Ni 5.803296954935686 7.793020421531464 0.6810544867246087 0.41659455967157283 -0.36317114974511 0.33705568360498084
Ni 5.897528703855044 3.368027152242998 1.783053700911103 -0.37416724374529753 -1.1903672847296143 0.5953939586034004
Ni 4.598737621850245 6.395121645459736 5.853322873812089 0.0203623657064359 1.0983179349008374 -1.6047483816896364
Ni 7.032729086863793 2.576398282469587 13.133292511903049 -0.6870555860754555 -0.5906060502964539 -1.1253422860084812
Ni 9.213984061728222 5.609482700811431 0.8296146739090142 0.6340471521992243 -1.2483600591943147 -0.7788172294604845
Ni 8.321859588407673 6.158693091703056 7.510794507321302 -0.8542441402412321 0.9351161332969509 0.5261631493310358
Ni 5.325682605059244 0.9502340518208197 1.1968984379940313 -1.9742596147201612 0.6894953058651996 -1.2559263015773465
Ni 8.113161831304877 0.6641128600826534 4.544000115527873 -0.18066139184123078 -0.31455544561993565 -0.12104033774448833
Ni 6.8371525529390125 4.509920546100381 8.77006851927056 -1.0037967264928003 -0.4041635329970717 1.0527081074815225
Ni 5.872765476813445 -0.22728935244918202 3.0872448465119198 0.7728820949229721 -0.03070077151796648 0.21787759588021186
Ni 9.05351615906264 1.1346251310531374 9.815088570704477 0.47627989134734744 -0.8611136136675557 1.10496500790371
Ni 5.864164090429527 8.800149631057373 8.315888838347753 -0.9807447297693432 1.2968785756199923 -1.3046852161486047
Ni 0.2489425665371051 3.0900526239143136 5.265662824827003 0.04618215498301723 -0.4417767153641553 -0.566716902383682
Ni 3.2607015730958917 6.036246604008425 7.685623620713664 -0.6318478305550602 -0.0014377608877910724 0.653457695515352
Ni -0.039795565049926276 7.785971302329357 5.781584389455516 0.12595628698886696 1.1426656077782773 -0.37218132366352036
P 6.1717595289805365 1.9140823999244652 3.6330356841118485 -1.758700896781113 0.01658335827997789 -0.7451524902181876
Ni 2.224380609568511 2.680573672335959 6.511947099759527 0.8379500310668988 -1.0345527767287346 0.4158846780887418
P 0.09455863812588086 6.399230587999824 2.7368643589384836 2.1245480506964896 0.2918389778590264 0.9576567376016283
Ni 7.452690407411085 1.1924333871004689 1.6496135091758797 0.6812919441188009 -0.8753048175662732 0.7084559061281025
P 5.322806345281182 6.858290779561912 3.4013954180618837 0.15873271008893952 -1.3553634592297625 -0.07555726571102472
P 0.2016029829835767 4.849319199911674 9.20132851870475 0.6183713933351802 2.7121099148499805 -0.6194643692890429
P 4.020618537443244 3.7715435716465135 0.14702800816612394 0.6630288841435549 -0.411640300990091 0.7507682937430683
Ni 7.039559062463763 4.893330540007732 0.372237322591679 -1.9235433193122162 0.6041673339206564 -0.22238088306720413
Ni 1.2357416414729996 4.3985134173634535 3.1983141288622177 -0.6867339410699785 -0.41221545676727067 -0.06514198391497167
Ni 7.396553121330056 5.226556649025469 2.57209850237597 -0.32788687262151917 -0.1930847052062481 1.0893465846401624
Ni 5.768836623499478 3.9746988218119017 11.735044932264584 -0.6467525155810345 0.8995513488184638 -0.16525765569165088
Ni 3.2300762546971002 3.839395909458505 8.410118761070427 -0.8128493793445292 -0.7217150851308539 -1.1811655636256884
Ni 2.3402619201824235 5.904933931410625 9.952539090358828 -1.0296275715129752 -0.2920513509801486 -0.776197018228818
Ni 7.100490114841561 0.2491717542210078 12.563967477630179 0.20367996422359114 -0.16152518523241213 0.819753305553214
Ni 3.975347121634893 8.287006624684302 4.49027614836539 0.188715629604275 -0.01196668544357294 -0.3036094881313932
Ni 4.289352510548441 1.5366075452416867 7.499768844838732 0.06472649364410789 0.5883753611937221 0.13324973532648665
Ni 8.689874744264825 3.1049178649260107 1.1600065256724341 1.522390033896378 1.631431290297461 0.835960768551012
Ni 3.1252434340243145 5.792303250895093 3.626072396153912 0.14866067056491816 -0.0005990670365796135 0.7070227732260017
Ni 1.0384484826648042 8.130090674570042 9.694998789831171 -0.28316150468968654 -0.5622159291895349 -0.8474605416604953
Ni 4.855080850451221 5.5410551110438275 1.5586835238620682 1.0172973320823966 -0.362377450199221 0.4930265146780671
Ni 7.14760598930124 1.728330804162207 8.496999155236397 -0.14713703483154014 0.4337232489320595 -0.16934056751177287
Ni 0.5769950603477012 0.9942727848671438 6.8132805098794424 0.4361704249209714 -0.21074432726954026 1.0121582110836183
Ni 5.843126304624275 6.442913212692674 11.385639633720663 -0.29048837736840294 0.47395330009669995 1.436638858371487
Ni 7.1276182665895655 8.680944642477701 10.118507497438074 0.8214654031483143 -0.22342912182606034 1.9640165968359145
Ni 1.3546544385831547 1.0565186988577704 4.566277888881889 0.45584476342144714 0.33387342922225727 -0.4366602200731964
Ni 3.587736875353231 3.2732475443182945 10.512067492517783 2.6722801844475526 -2.8201178448905435 0.7309139780213025
Ni 6.510336394283812 7.802662740025538 6.185594795062184 1.5681147896270027 -1.270005148267916 -0.13282910284930027
Ni 7.840072379107188 6.297721445292799 10.319089636475024 1.4213495363125845 0.4149989330496789 -1.638386895679688
Ni 0.21438270738159354 8.825150263667956 11.82101588048168 -0.3335499844445675 -0.4508982180494493 0.016327276405113816
Ni 8.07673833843285 3.826356865131291 7.045001128583524 -1.1187808307408798 -0.6010493571169649 -0.7844615722304554
Ni 2.1055773842594245 6.6552724941478605 5.681286928248646 0.7845615881434296 -1.2136931039397485 -0.8309910832505624
Ni 7.827891647221681 6.960539531926153 12.808076101543456 0.0018419383047452147 0.7763481990947017 -1.3567107172862765
P 4.53181664434734 8.652519891083712 6.576482151294154 0.24124918072661677 -0.5456117449739507 0.5688774003701106
Ni 2.095788970030592 1.3187696737330503 11.681093603614881 -0.09398179096479943 -0.011770253162050697 0.0891584014342271
P 5.281205584808643 2.864846048783785 9.090285716206377 -0.2159058168658217 0.43103207525314147 -0.06690884600740735
Ni 4.446113233944521 1.8871003439112186 12.33226055540123 0.046695090063693774 2.0835171008971085 0.6677548288643145
P 1.2449091488291073 7.2827262819861875 7.448009865308753 -0.20417207336866128 0.8316989079508643 2.307286122561091
P 1.2669513428108254 2.2066756327124417 2.7628036566448904 0.4068269387618478 0.16873044473159973 -1.3458197814053854
P 2.8379553026047626 4.29565288910991 5.3298508989915785 0.002521480870273077 1.6743242330062453 -0.6530504327746044
Ni 5.052200520574389 4.556013750416749 6.958468624885948 0.19742087068775677 -1.910244545320781 0.9308424456222614
Ni 2.9154499589108283 1.8815852299240778 0.8702548549255144 -0.6936800333705085 -0.062162075351041325 -0.0753952862118637
Ni 7.9756492209632555 2.856326841250669 3.3848500761004616 0.8699034440450437 1.2118190268454871 0.026766469460566805
Ni 4.1290033106673505 2.575247778558362 4.862654088101774 0.23047651559114501 -0.46374704898765934 0.5013977694608978
Ni 4.677191031415664 5.243165907870848 9.751929558371607 -0.5906754700818085 -0.6514746036470521 0.7127509339590306
Ni 3.6381307728615577 3.6580819716395423 2.7252378777467183 -1.1462296709804518 -1.44711790352594 -0.9479863043913997
Ni 2.2032515139290347 1.6469463489181912 8.974392535314015 1.183747722530568 -1.6997077060763566 -0.26301871119322445
Ni 1.7054302977387814 7.828366458359647 3.7505194823163954 -0.6205272633359185 -0.2954675757505492 -0.8260221692810613
Ni 5.720679816929643 6.520070022612111 8.319737547860303 0.7888579015259382 0.7590719285127572 -1.3878462623488161
Ni 1.033645585384612 6.513760513067219 11.948656984645327 -0.07546907687259262 -0.6806175437595955 -0.12312704507018794
Ni 7.997654891011284 7.877801602608621 1.557173259204 -0.31308066084662206 0.2813913001631412 -0.6316156599395961
Ni 3.6324969560899256 7.5415166141443715 2.179660705158874 -0.3943570884296112 1.4696767626630625 -1.6226355463827022
Ni 1.1609132323262803 7.69373923877951 0.6556959195638681 0.7063018358995771 0.6788918193177405 0.45448130741501724
Ni 3.234221721170878 4.916797167403346 11.881021051140445 -0.6760296672785969 0.9741249104599805 0.8649844094768716
Ni 0.9937431878286435 4.76246528559763 7.012205375425223 2.7157305423217037 0.5643538014681442 0.37977481974006205
Ni 0.4892928776737145 1.0175659235777332 0.42413874546304764 0.4104586219771641 0.14142507204842739 -0.3175970606597369
Ni 5.977625690436499 0.8568049163442919 5.540495381760033 -1.6001679614078055 -0.1934235766029056 0.18637258329339515
Ni 2.9306530463091547 7.9765075334049635 11.196844681183713 -1.088468038689951 -0.703904025091362 -0.5302110941481643
Ni 4.004767150221926 0.6979248916958688 10.053384410571043 1.1687990716405356 1.370516255710801 0.35225475994292244
Ni 9.031903121301776 5.4849634798799105 5.045208013469501 -1.3604573288129023 0.363984903895657 -0.5124766529828787
Ni 4.780654204575088 8.889751971381566 12.142476717359632 1.9454156939052754 -1.3937294606024706 0.4535901630593156
Ni 8.381603612940557 3.3318684578902213 10.165669939913206 -3.9017904579252156 -1.3781655447259427 0.7615034207723853
Ni 6.312175792050487 1.8571963732027983 10.836909532557057 0.2566796563490741 -0.6286750892540334 -0.6483885085225608
Ni 1.3765870607638038 3.6007485267301766 12.969701812907 -0.013230639757661086 -0.26931431439394904 -0.6336211204053991
Ni 2.5551961389627307 9.15262385312957 6.124841796861124 -0.2715177498031711 -0.47447420559717635 1.185573977106029
P -0.2160144141191797 2.365573006229367 12.022466376042102 0.9394091042453498 -0.9648599402182866 0.4213634418151259
Ni 1.4815933701216157 3.4394588355565774 10.399982844810914 -0.5209736347102963 0.9202518145906087 1.05559854165544
P 7.784610785799417 1.5500483528394868 6.46124366191318 -0.7159925808247798 1.2366247730352573 0.19771037690371757
Ni 5.23629940833719 4.596518792878597 4.06981444992655 0.8976816425995766 1.6719130524615917 -0.330209864327741
P 6.7062142506615325 5.423557616364147 5.645256980762125 0.8862245498025706 0.42381678845162496 0.4626075360665775
P 4.955567323014935 7.8270424657633955 10.037414320565233 -0.16551682289030847 -0.36139554590192596 0.2626443585729412
P 2.9374738909257014 8.808148372535411 13.313307110781 -0.44729250297606193 0.36830615697883023 0.3291857939386008
Ni 6.391505776024459 3.216261076778981 5.536847553882778 1.0670970292133428 -0.8371069663403131 -0.515496413645809
