# total energy = -340887.94911705935 ev
CRYSTAL
PRIMVEC
9.08547075766998 0.00000000000000 0.00000000000000

0.00000000000000 9.08547075766998 0.00000000000000

0.00000000000000 0.00000000000000 13.29750482731047

PRIMCOORD
 96 1
Ni 6.450075313042256 2.205343505599382 11.322944750205323 0.7109496190842336 0.4567348793358844 1.0614532006640043
Ni 4.558216880824743 0.47114524259110685 5.698725075431145 -0.3675263413900122 -0.4708996008720407 0.5177695259507019
Ni 2.6424545757789284 2.0217170617632774 4.5049151511699375 0.7701253581134415 0.8752685650116991 1.7944636562030194
Ni 3.6990311941071696 4.3963501387840696 4.877897336525737 -2.159069995732759 0.5809785545090188 0.4800051627177346
Ni 3.597201240986836 3.0194198313923963 2.398856758409928 0.13397375797670477 -0.43255365410399055 1.6805766416738606
Ni 5.521921819924214 4.647309004334557 3.293871906505566 -0.3806235408936025 -0.1231679256104524 -0.940658917492051
Ni 5.4330386622354006 2.8993553390221964 0.7704524392916512 -0.6631204154160967 0.5405546421660175 -0.448996373041046
Ni 5.6415502097114585 7.946252420461087 12.579731521633637 -0.6867169717891141 0.9998878783566972 0.4667580678998413
Ni 2.3987368301996153 5.964011727925847 11.482780889594105 -1.093950144850445 -0.9926162843959486 0.6942135372764754
Ni 0.9788685893276868 8.279162229725474 11.252201642873404 0.14991948267268373 -1.8106978586736946 0.14857171039553765
Ni 0.6303844665694668 0.5600329430151595 4.713792843106269 0.35496213157175643 0.4816462978655834 0.7282649704342297
Ni 8.842697621610002 2.8961209115319355 1.42469444278998 -1.3936682683472321 -0.28499110169925757 0.900549451065675
Ni 1.4126725482531466 1.7097583474217566 2.4495863913723386 0.8073618738673966 -1.3353605337452743 -0.030655777212643977
Ni 1.8657922174153865 7.144950266160505 0.413873162337302 -0.17360165678097197 -1.882255516307023 -0.37035995418406537
Ni 7.959317327008824 4.433237148925804 3.878256636043605 0.6029784558188777 -2.053369630779451 0.045165026572412545
Ni 7.579599173840443 4.050802440084424 12.944801170749919 -0.28690811621631235 0.3078368959491795 -0.888350852116954
Ni 8.123092017849931 0.0007241119971172883 6.9793148709654504 1.4628245156279194 0.8992309893645675 0.9542004036219114
Ni 6.881889553932978 0.911745133434305 0.5687904280091539 0.5040987133318287 0.5406595431749979 0.18240100024015685
Ni 2.0700426792371402 6.870723510715196 9.227298306613399 -0.43281153575106746 -0.3097551960178149 0.9266348352988171
Ni 9.048538040765452 5.570837992979164 1.6341972150952153 0.04071239011769763 -0.9514529227837614 -1.1118799898559883
Ni 6.918131495670754 2.307945723710367 7.260131318148641 -0.6571683115977198 -0.7967658435191053 0.018476718647948826
Ni 3.750663922835119 4.753927000396932 0.9477853777274652 -0.1047490567836325 -0.034238352357579736 -0.3140108859703753
Ni 6.562371728153544 5.877645245559511 5.2096033209517545 -0.6618225225402796 0.6790638261192306 0.31145623786932164
Ni 5.330927059530241 2.7947724883469505 9.152140569176092 0.9891861756684771 -0.18618566409356968 0.04523907434345757
P 0.00360965742101253 6.26227863825663 12.75571072496819 0.12526877400353909 0.3626556435612722 -0.4356312645880498
P 4.009990506696082 6.3154922388477965 12.889044546971888 0.7490392268671036 1.3128579817673842 -0.35572652054160675
P 2.272621414490894 8.740522420611496 1.738515678579544 0.07941109223947614 1.5705737926904562 -1.0866577249540899
P 6.64654861213462 7.966721985448605 6.125296091308863 -1.5768825085173035 -0.7116913823462646 -1.4151313233170144
P 4.936163367249863 1.0974430645394524 12.796747069477345 0.0521946797256843 0.6887448008524203 -0.9599154517288178
P 4.113719323146372 6.317272991061536 8.534896418559333 0.08598334614035515 0.7916601468614237 -1.0078914653874642
P 4.7165402893788935 1.4046137359389304 3.8084048133656014 -0.3781637664992003 0.9538985561107766 0.14047736342317743
P 0.4593804668688085 6.031971047103228 3.7378888427956376 -0.8586754365397083 0.06836460461732743 0.9162300950257254
Ni 0.6015735311358579 8.05492373285155 2.903044948583417 1.286606504270023 -1.5370394083784367 -1.011104058787491
Ni 2.1857279748368197 6.615576243274233 5.077851279358321 -0.32090864153147314 -0.006958947816336402 -1.3687434800810943
Ni 5.968890625572672 6.268865604353369 9.657804239755253 0.7748777851967623 -1.6182572148093484 -1.6065838922364784
Ni 8.795489517004967 2.968895530062795 10.785286595336975 0.1658225270561854 -0.9871156662926935 0.24526704363675825
Ni 2.4895461076298195 5.625750576549764 7.16986807749418 0.28989856630320393 -1.3861938143470578 0.5366411660442242
Ni 1.0352348481748093 0.19743726751010668 9.00650592869188 -0.5632135172161139 -0.3732737853967507 -0.21162904386733875
Ni 1.6747247732575878 1.5385699126703898 11.20281484244768 -0.24988088825968574 0.16299611335098382 0.8929430994733266
Ni 3.946246845820612 7.366690258652908 1.915545162301384 1.5553765161247277 0.26991415276147707 -0.5017291846583875
Ni 5.85301453509295 8.198701303170008 8.151875696872105 -0.570953566172849 0.7627095252653444 0.26687742281768234
Ni 7.123690265241377 1.017236531157377 4.929079425917965 -1.0257498337251236 -0.5454137700305317 1.1745058922173257
Ni 0.7322725667008609 7.375739387249255 7.264187072170136 0.09203957963676407 0.5808194032233353 -0.5076820598077127
Ni 5.2103265244018235 4.869185278884133 7.123858346445226 0.6292111642631616 0.20142870629556925 0.7487872587572976
Ni 8.470057049944186 7.468692835712329 9.526013130638763 -0.22013965244151118 0.29468673172046667 0.19815157820619422
Ni 4.995982104878724 0.5175438317765307 10.599773099282535 -1.2338742068733137 -0.07505152971919977 -0.8519293760651264
Ni 8.551462865429391 7.700190623498382 4.96280196669212 -0.760947034048283 -1.5036400069823848 0.6269210826774042
Ni 7.422375107214161 6.359738480076921 7.513515095769774 0.06212685123773171 -0.8145352516873843 -0.3224222499625221
Ni 2.3455868279017964 5.8809796132250325 2.5422563731564902 -1.0104011191831954 -0.43637019963660334 0.8165003458335551
Ni 3.727259750883122 4.5120899472066185 9.707045672653324 -0.06586806344771882 0.3359161706838989 -0.0384269365176306
Ni 1.4171062578465374 3.967288795448262 3.7668769449035726 -0.8190364819918475 -0.24349786755147737 0.289846630019346
Ni 0.8468149101143752 0.20162930358877565 0.09418634680697355 -0.04269393932410066 1.0261514400389165 1.0642251069821866
Ni 1.402705787138496 3.77514018030355 8.409235276374526 -0.745893225038954 -0.6353134205061575 0.8364765318451659
Ni 5.355603197349194 3.114217630362557 5.331927369829898 1.9279365632839056 -1.8720207259528923 0.06509467561680403
Ni 4.200558249977576 7.069586288543342 6.313775084927405 1.3147528847972518 0.22912077289419894 -0.6937358263091085
Ni 7.94566186488 7.769712643598026 0.7421484731107292 0.6979442079635012 -0.6304710048121915 0.08172637063621409
P 0.16524108577629823 5.6318923545930675 8.54090736582775 0.6857659207297544 0.3584588318711053 -0.4984345730675158
P 9.022798902900542 1.7674965123110962 8.048008781270546 -1.3241998891427647 1.7693023264460432 0.6354766855568991
P 2.141863323367782 3.7427141361666414 10.976066030080613 -0.8101872591313337 -0.24448594249635958 -0.5173846318074574
P 4.101590220057894 6.237093714090895 3.9844239927702594 0.061499759176694084 0.6051703212638739 -0.41727075980299105
P 6.676103647600398 4.313645101020473 10.65030376044147 -0.08810476335873213 0.1019306134982309 1.0055905851684295
P 6.591599686682105 8.256657519350826 10.461678490748229 0.20673366344825042 -1.5881251713106586 0.17054410090157082
P 2.0883135603689205 8.577974268284954 5.915221842910546 0.9723379937628868 0.43216233220284284 0.9439668988193614
P 7.005479208848742 4.025063302219515 1.7183831845467685 -0.6092509190911508 2.223846625888512 0.5370443150199137
Ni 2.9631898546024478 2.0631922344965328 0.2579546778187459 -0.6863870992535211 0.14608185409414842 0.17248271268518037
Ni 1.7313545107485797 1.4751805851435729 6.997120576008744 0.6456328001542945 0.06528185192694563 -0.9227951498377528
Ni 7.511721623897365 0.7863383844228882 9.349156270856009 -0.03025648489169628 0.8098836118479859 0.19066324024894907
Ni 3.09582863811456 1.8581513367431703 9.165198207347448 -0.3238078174561391 -1.0274411053846175 0.4690790027235341
Ni 6.5253756923660715 2.2811435857995015 2.95346840119071 0.19442424995327806 0.03189710581891281 -0.3794650018091271
Ni 4.156266581396061 7.252049792158229 10.6981215001156 -0.04243451501512692 0.36262273344080775 0.1052365379430123
Ni 7.146967240606679 6.323378427222927 11.620928193857186 0.7288336984535061 -0.033363663062110284 1.474984548029221
Ni 7.659115211466171 4.004193976530952 8.876456504266072 0.6597530416057605 -0.05313390371050204 -1.6707329161105615
Ni 3.1391299904139447 8.857697733369609 12.566620279186461 0.687636655389906 -0.2525628059672231 -0.3342138432808115
Ni 0.07704751529678469 5.2902059808466815 10.700768097665916 0.534519234605215 0.3770155118273701 -0.06072534290451477
Ni 8.80642842346079 2.8126799506596 5.773443984644352 1.0495075982663538 -0.231792149078775 0.29986339082539976
Ni 3.9729581290266953 2.5929660180838487 11.37778374146505 0.011910635394656907 0.10534735248926375 -0.12892848224331344
Ni 0.916605860140174 4.0718262187711165 12.818422276397328 0.4538624428840957 0.24689249505532318 -0.7827206782799487
Ni 3.3467148199012193 8.554588267273912 8.017756890219085 -0.30450628891404974 0.6101320361445234 -0.29443142117655097
Ni 5.548269684311167 7.812368927493453 4.174738251425411 -0.09644516490362745 1.1680393106563753 -0.7907139808980704
Ni 2.8607693459010277 8.913355325519428 3.767010501319603 1.1229827846373692 -0.7272385860522443 0.4739399303602612
Ni 3.6786252274129985 3.1558109142120294 7.283415561890324 0.28777817752609147 -0.4375477648844722 -0.2148609205410751
Ni 5.197652293084652 4.421525977479328 12.222879680564938 -0.12220787569002825 1.134707015052833 -0.3675150285361026
Ni 7.848783493170318 0.13804009571143688 2.8497877377339553 -1.4883301160981917 0.35879898881934336 -0.7487677183732717
Ni 4.786989027467319 0.7279896759174095 1.6680124276682498 -1.8558153198376233 -0.2648452228790019 1.0256233354495883
Ni 6.097431861899089 6.098985477350872 0.7793125901020499 -0.39360478364461887 -1.0511870428513057 0.18602908391104736
Ni 7.9694385411216055 -0.020723958160910095 11.979522628163613 -0.321830124904478 0.07901257124947683 -1.0938084770662582
Ni 0.2962217709261274 5.320933042004156 5.954809054878417 -0.7919478533051715 -0.8661725162477019 0.056265507360948264
Ni 7.299848452344352 6.431250218211302 3.01785531337604 -0.21915826236484834 1.9648516911426996 -0.8948549717840588
P 8.641281826577465 2.072105081035705 3.6979691026082606 -0.17632445502877375 1.2207615807507557 -0.8989828779095034
P 1.624890967684334 3.887363911651012 1.5153038398696625 3.013595928880468 0.05410423804357133 0.778646251100259
P 4.794193805556578 1.146104844421011 7.705452019452343 0.4764956069025794 1.4623172369741977 1.2459959298375123
P 8.745192352437321 1.91197366385638 12.813262637712725 -0.6470111685590599 0.13875523852574811 -1.6787771265712765
P 6.043191603143879 8.103458316146412 1.8661320140112736 1.893345455572597 -0.8357553374084251 0.11575003587982646
P 1.9394753829940719 3.640738815518656 6.177275885009082 -0.6687488173464676 0.08386270025292654 -1.315279446724683
P 7.247107296218056 4.2506191923127865 6.330675877111065 0.008911957777649169 0.09646316262575645 0.3318085762734285
P 2.776955880739083 8.879693657397475 10.229224911467862 0.39446687453459806 0.672744568769422 0.4146559478879633
