# total energy = -340893.2062972374 ev
CRYSTAL
PRIMVEC
9.06201903607210 0.00000000000000 0.00000000000000
0.00000000000000 9.06201903607210 0.00000000000000
0.00000000000000 0.00000000000000 13.26318086221839
PRIMCOORD
 96 1
Ni 6.11985324529149 2.0504902097816493 11.301782093918213 1.240137414174206 -0.0014405891012684868 0.7160627719410829
Ni 4.563333687488635 0.3450807747255052 5.917367869469165 0.22212120164791424 0.1116072173560465 0.48116884400853266
Ni 2.7393033308155905 1.6621736365300752 4.675257777114848 0.14043751132417748 -0.8973939361558287 0.09334852825617472
Ni 3.2066860192481403 4.4338283749326095 5.0748511267253 0.3932479145258324 -0.029043695530517725 -0.7904090480631419
Ni 5.320492555307093 4.4044311855174705 2.787509646725816 -1.1020048968341214 0.18562233539093193 -0.5076131542429902
Ni 7.13006899178373 6.15956301225115 2.702810580576761 0.685257099414136 -0.6927960881036584 -0.5247444146066382
Ni 4.931296966219123 4.647347665006437 11.385512430243448 0.1296329645095058 -1.259241996214141 -0.48308765829780026
Ni 5.718514550834751 7.764573433358693 12.402572719634966 -0.8460225236623883 0.4552156144778805 0.9849376848047682
Ni 1.7319330582679722 6.577222402804272 0.35197062771944165 1.215878027406209 0.180629767272347 0.10615570732317202
Ni 2.660889680997713 1.5687351593230792 0.3582415448203282 0.6982221442152362 -0.6772146887256336 0.7951010542221726
Ni 0.2374158339972928 9.18798099507062 4.741149529172603 2.4150402847196344 0.1562971040642534 -0.3245770915219958
Ni 8.723552524809875 2.3480325393922112 1.2808891899696686 0.3884026706183892 -0.030301479197018782 -0.32959177112776783
Ni 7.027423503341907 0.5537953823616305 5.0434838543943625 -1.6947423916512814 0.42023858418206333 -1.2135493792730325
Ni 0.921081728277905 7.6689781956459 2.6304730144527335 -0.8695964543275863 -1.2160826872178474 0.5389073363705815
Ni 7.533356020310832 4.0300157493074575 3.782725033280054 1.292364746910039 -1.2227768114085715 0.6624187613633817
Ni 7.814677336033262 3.943890321378518 12.672610915585265 -0.3921369408498408 -1.0909553238881793 -0.010173598098892156
Ni 8.186002623787491 8.704313858617416 6.967480060511063 -1.0016033183859072 0.03385448665559976 0.5323553941846767
Ni 6.872209243076034 0.49037031185714364 0.28724696990201104 0.43107449845530277 0.7811525624618805 -0.17016512029559727
Ni 1.8647913178288067 6.3876630907864325 9.278417225405471 0.5859045310557264 1.096361325395099 -0.18174125516897088
Ni 0.07755547662502503 5.009112522787494 1.4019052031902743 -0.29183563542491675 -0.6555642003353936 0.616311682592674
Ni 6.264818362145366 2.1012375158003844 6.952997141854072 1.3224870202167158 -0.12482191627410762 0.7340718069239939
Ni 3.4838659923186848 4.3354964075023785 0.5985327574247182 0.7933046244433821 0.4635848123781823 -0.7861613285303815
Ni 5.914897563108323 5.516105295971453 4.793671178498207 -0.46647987453779016 1.7179465976818862 0.6139915190999297
Ni 5.498035630221211 3.009713975743993 9.167391181855411 -0.4982353125725161 0.167371359600544 -0.06528750835390047
P 0.25149186800423945 5.46304717512508 12.421008490950056 0.5065392044525211 0.8088099191678327 0.15586335896094447
P 4.041035164328668 6.208751651013595 12.496038382898757 -0.6008148725086556 -0.02255140293795471 1.9202394517499637
P 2.4676693133313794 8.419077750716395 1.3978463249106687 0.660753714956133 0.6652600874669188 -0.7013244372896439
P 6.299507770616744 7.810291318870215 5.914847722004199 -0.2618316328636588 -0.5333833212285588 0.06592411349663485
P 4.730971975710167 1.0610536727002946 12.757667931482132 0.19869768051765133 -0.6367907763826324 -0.19237096696867514
P 4.009807447089282 6.24914106939315 8.114997174446456 0.1615231283498831 0.29431495020334475 0.2581660110866134
P 4.846703019489679 1.275062311796446 3.951141748927838 0.6977806858024435 -0.349284878681321 -1.1618537506709539
P 0.08396594881746311 5.664541166076254 3.75570843623833 1.0207102144186875 -0.3242379630150222 -1.3987621379303716
Ni 1.6860792424724722 1.0047151010005668 2.579423037001672 -1.115714018890098 1.2000022367162173 0.16271020667944883
Ni 1.9017915411278237 6.513498285675031 4.7521707565976 -0.45923861959434453 0.7352753403137918 0.1588234700305329
Ni 5.925998536299923 5.769678709724355 9.167802597514921 -0.3226940155666701 -1.1955575706813022 0.8469666327432123
Ni 8.659257500487925 2.2897365716031897 10.177196418890036 0.8712987817306737 0.6614247728812287 0.4826374581342591
Ni 2.307851547448091 5.267017581589852 7.172223691451222 0.7925440921282738 -0.42515016255106775 -0.9512791162100585
Ni 0.5169129653087284 8.889106548677066 9.116646594442356 0.2993185740655232 -0.06723151945414874 0.3459069633480236
Ni 1.363471368496228 0.8573576111486649 11.588293227882954 -0.3852343001927366 0.8105271589692558 -0.8212571437922502
Ni 4.1186785425373325 6.8343118799027565 1.7502628039615604 0.6236647805236356 0.5628684751718694 -1.5927955802031344
Ni 5.617509287819605 7.991350457129916 8.072674827428724 -0.41463589328330525 0.5476092350199536 -0.04209718628036621
Ni 5.203012541873722 3.096056892127298 5.126590723817079 -0.1944175650850587 -0.7696075379367584 -1.5667546760546824
Ni 0.9865185669852775 7.297716342024195 7.061184961074656 0.030500739692018435 0.6313323243712223 -0.7185436293814077
Ni 5.091567833049007 4.610718984483629 6.927398750775193 -0.969231329813105 -0.027646300962358837 1.2895995254600758
Ni 8.077104342282647 6.980301004895939 9.069097274904694 0.01359625062719594 0.7097519992317067 0.358808244790724
Ni 4.675566791960426 0.291004989153077 10.489252478021957 -0.3488012541766832 0.3197850694499912 -0.7961140688677192
Ni 8.053207798359182 7.20678804406134 4.684064247112885 -0.12878604312817818 0.35545809737156847 0.8873195826389622
Ni 6.947152139642987 6.088045558840461 7.067312698276419 1.6728201376568934 -0.16015632990934353 -0.9114321594164496
Ni 2.3028221269408777 5.377030491423324 2.577752000710627 -0.2148274961999784 -0.2815478803456635 0.08194517151523951
Ni 2.3066462989301466 5.33205569146422 11.409862981315403 0.06023554775228981 -0.7941304627787872 0.4735133843458039
Ni 0.990288366860955 3.5334714839519985 3.511095546805309 0.33020060835636034 -0.14921628595807204 0.6936743769435537
Ni 3.7483772629224092 2.67061322731166 2.6075143894887223 -0.5339841880373514 0.010540751630323782 -0.39828959071479797
Ni 1.176920646763785 3.272421904580266 8.036917006925274 -0.7511326190610225 0.037385896847625937 0.2702003165433282
Ni 3.5597966489492174 2.7425565956121485 7.3560648695230215 -0.11806094340119021 -0.1675917031414662 -0.7520854698925951
Ni 3.9861374536391154 7.024550843340489 6.004255413190278 0.6293448616275483 -0.6388224621006804 -0.38455167230341514
Ni 0.8400826844587516 7.386641933803095 11.28694031931152 0.7344952676146577 -1.313763524300789 0.6937543382518697
P 0.29159492658554476 5.496640079305696 7.994634532790842 -0.6240838703389251 -0.21239163306497613 0.039643582533551075
P 8.52403405398586 1.556102704931987 8.036824574332167 -0.13881540233972223 0.28541996170656003 -0.15373088599897394
P 1.7917876933132837 3.3446733815244403 10.323794511555445 -0.13393442009833706 0.2580749940347039 0.6377955634980629
P 4.034963611644284 6.1333647155189785 3.744607463046732 -0.24207630461360244 -0.11352191788025609 1.0094690942872293
P 6.934564995346554 3.970650463284469 10.616751459586455 -0.19219073263706898 0.8086417690210848 -1.3355669933291257
P 6.256997839807121 7.682634658176299 10.331115716650539 1.4547826191600493 0.8795458522308143 -1.0895455880248461
P 2.3739952236321535 8.611029435732261 5.584303331847382 -0.8811936722468825 -0.2409211079632367 0.7549815604934674
P 7.04030063224416 3.948086036143996 1.622365093564057 0.06185225742010638 -0.06235567941908615 -1.1402688254113265
Ni 5.581578382754554 2.922990454565548 0.26188237891157545 -0.395330508086474 0.34912958405037936 0.7926482218063059
Ni 1.4243228256240505 0.8702438020698509 7.156945127532009 -0.2911607208450792 1.2756564330164224 -1.8154343449174155
Ni 6.960618299775815 0.7637252067365259 9.345448979444862 -1.0856297979102079 -0.6137413507623366 -0.8960844733157858
Ni 2.3953272161978862 1.5635607465129546 9.30538126273739 0.8092953434446836 -1.1574643633540065 0.10025811089181443
Ni 6.592636897007462 1.772195608382479 2.5039953224218614 0.1513634142080619 1.6857206477686453 0.9802227958276022
Ni 4.163145869436249 6.992244745848206 10.477342266539738 -0.7427346248053144 -0.5888165624961987 -0.9451447211775464
Ni 8.200855272816904 7.060690174840974 0.24151458516019883 -0.366348261921511 0.36867948115784893 0.46906923253152116
Ni 7.861020500851086 3.9231020499487004 8.39531441847123 -1.0212627444880478 -0.23872178631907273 -0.6866740343663207
Ni 3.1266683920793135 8.501668991261887 12.388076207949577 0.47480484946371776 -0.8736587973224178 0.5386237436918917
Ni 9.116481665697796 5.035428625765782 10.250409376042887 -0.17043225791405486 -1.2894563150139922 0.28408633049680104
Ni 8.423934992863904 2.146701664781812 5.7991529263004145 1.3534652137657852 2.0096688474573905 0.423916804364599
Ni 3.478537525186718 2.3347929297326804 11.44441374089712 0.31608808021437823 1.110825323339229 -0.2842560233054459
Ni 1.25059486068027 3.304818622261869 12.725080005201063 -0.75583413830175 0.16707208319257033 -1.5838342572447885
Ni 3.0456811288847714 8.432417042584179 7.980681742241369 1.0423110805179145 -0.3311650291521587 0.4212405430840165
Ni 5.683136428924547 8.104725375987128 3.7145396842306315 -0.25652590438002915 -0.6087127871994936 -0.035594609275158055
Ni 3.2903647020654616 8.426889211035709 3.562623092654082 -0.163358381786409 -0.2583891828410131 0.3375290236969735
Ni 3.3930917486776724 4.45226958345906 9.222830801277095 0.7575053553565857 -0.7519887964137307 0.6140948774470134
Ni 7.186679424051415 6.064321193276703 11.526460354104804 0.39906837786235144 -0.6775175646780331 -0.9525199305956948
Ni 0.46403880344667253 8.969586338811421 0.4349125683975981 0.2498443785947955 0.6909767755067326 0.0835503112188303
Ni 4.8425435527999285 0.47120142321045966 1.7296775217558178 -1.1293341807766937 -0.8487147257825706 -0.6245263571929826
Ni 5.94173020116573 5.5346008766114965 0.33969793547994653 -0.22342783627447974 0.2755752077019964 0.715235133833465
Ni 8.240139124886765 8.735324087402434 11.15896376934931 -2.5634271327978753 0.8970437519052615 0.6613265567404675
Ni 0.37417710511210417 4.707030121692042 5.7776270065295385 -1.0028862988633889 -0.006559398385072575 0.22420662342203324
Ni 7.867780766974295 -0.2453958478687389 2.5783754676131427 1.0269428255919604 0.26054299595922226 0.4362192758810358
P 8.689551829777322 1.8592634862803374 3.4817047008034225 -1.113133145536799 -1.6110326720364512 0.2904894058096675
P 1.8289329089152113 3.3288782825261087 1.4975856238810263 0.3054912785351384 -0.2377841049961518 1.018633791505633
P 4.804428701172285 1.0975282989012605 8.113087807057502 -0.6488201967433407 -0.5873561759005885 1.4150035394898985
P 8.407360560237427 1.5749063942157147 12.300578790354345 0.19166391359932153 -0.1685288702437549 0.8948873676838912
P 6.420757583925793 7.703712914211939 1.5026648854923659 -1.4396910149342494 0.3272731502969202 -1.404227017699685
P 1.7633963879995878 3.0068594397804396 5.911200259384102 -0.2896478837449786 0.5243422940722131 0.8023752192860827
P 7.056684762473067 4.030949137257444 6.011337380985571 0.010933873303684396 -0.08626462482619983 0.6795510501682942
P 2.432798664481363 8.404098233421937 10.181998382722059 -0.009606669851828616 1.0249491922006992 0.07807926080193005
