# total energy = -340859.6186300657 ev
CRYSTAL
PRIMVEC
9.33740750698450 0.00000000000000 0.00000000000000

0.00000000000000 9.33740750698450 0.00000000000000

0.00000000000000 0.00000000000000 13.66623972608763

PRIMCOORD
 96 1
Ni 6.370492963286023 9.244481634162302 13.279922413450038 0.9991882811865114 -0.4333887484107762 -0.22538367444926988
Ni 7.022729552935722 4.0927817988296065 11.743399717582202 -1.3769910648018673 -1.6095447746370148 -2.33232969579328
Ni 4.877217404058823 0.08620201242608737 11.345302149456193 -0.1822235941220281 -0.6429917629870217 0.47405357311998997
Ni 1.6169401843391606 2.537365792598472 5.833734893580989 -3.9111582722933607 2.3933612570843037 0.14339222307712723
Ni 7.727563759110313 4.2422643557170545 7.546251847490031 1.0530698616963154 1.3997214165198475 0.09384809360041256
Ni 3.061072967821553 2.7304260303525405 8.88293254652657 -0.35611604267054153 0.6987453637085579 -2.1534243674112075
Ni 4.321632319583837 3.1707688312929596 12.283325969656648 -0.17742283029927508 1.441091494826202 0.300173980087283
Ni 1.6194612843678704 0.3764646623981789 7.805090386215387 -1.7979765544522843 0.13206805631355964 0.24752010133699304
Ni 3.0603633248505093 1.113579220088517 5.525056074769551 2.808748169601021 -3.391982352913436 -0.07450028520142009
Ni 1.565304320788184 4.974587889612093 12.439284952395624 -0.7885138879229582 -0.14718640001223682 2.0900096505999874
Ni 4.082277215376649 6.024476653049397 8.42177946546028 -0.1609348599465809 -0.04583685582845654 0.9993975689838402
Ni 3.36540709091685 0.3066469989364494 1.261600472700065 1.7747468945003821 -0.23918432777778806 -0.0858409070252199
Ni 6.864189710759947 0.3492451857548783 8.557457599079417 -0.31492542736484475 -1.431052365422645 -0.2811814981451803
Ni 1.0045556499581 7.4167027881629135 6.781543383115092 0.7978608763554969 0.6831791338391847 0.11288556984783785
Ni 6.14552680405751 1.4088840701180276 4.742868917269643 1.057177970327418 0.23514846714551763 -1.6536476784935004
Ni 1.4718462089831699 6.484418672361153 3.9029961898906067 -0.6652757711962026 1.8614051552205748 0.9308486162698485
Ni 0.8191922372176069 0.3637116312159142 5.68254545860003 -0.9127670761777894 -0.24998218972424047 -1.1926550523225268
Ni 9.30818142822103 5.1200553612686335 5.348734073724611 0.9393551110789629 -0.7648363418003602 -0.09768983594400596
Ni 1.2995710403546847 9.150696713094307 0.9252698552774391 -3.859767062305578 0.6549090832498979 1.1082200245058977
Ni 0.1639153876814346 2.919545882135811 12.818098906524261 -1.005781875243629 0.21310665685412977 0.06227263278697662
Ni 8.694480319380531 7.57359924661627 4.627538862104447 0.13370867724077617 1.4471664973756884 0.6829320508253851
Ni 7.1625852426765055 2.4799687486115185 0.3333678580185164 1.2059273439514004 0.3465960189952482 -0.9515611662268516
Ni 8.84766048964342 9.172051364078229 12.766030721005398 -0.7959849994890227 -0.9442350648790835 0.3821461481857161
Ni 7.747256351556789 0.2879525753531925 2.7319088106657223 -0.012722589772990994 -1.3679459238804637 -0.7624395594334095
P 1.9515928696315676 7.4054045250712885 8.939730128951142 0.5769185255070323 -0.02863746123103455 -0.2785083221883913
P 4.520117591103387 1.5414565819980945 7.58899943282868 -1.1672844347682219 1.3771913537381315 1.2180256698768313
P 2.944402060937384 7.994557589558167 4.883808680022772 -0.7610930727078441 0.412437857190722 0.4209854896504169
P 4.595759929372187 5.293525718058877 4.321688344028919 1.9788330930234566 1.0710894382021876 1.4860814292733309
P 9.109341335215957 7.481308310750474 2.4173530275651354 0.7600615461195362 1.117164121073063 -0.5943503478302344
P 6.720337610603283 5.1746418455939525 1.9581804106325105 -0.5527144174570029 -1.524267196314433 -1.2125075682720796
P 5.085992498658514 8.082189159074607 0.9845829352862122 0.036303976637356836 0.332111452225828 2.2094618179217496
P 1.2658163121925181 3.2995316809074207 10.178041239830437 -0.7409675056025626 -1.6782405373415161 0.10063452039462668
Ni 6.234876456556478 6.2978759450516755 10.757066018387162 -0.10397541184240157 -0.13793171418318825 -0.36828918769796576
Ni 8.020300822073546 4.705903988404253 13.490997311520362 1.0049413816202049 1.8966349249571466 2.644570891457742
Ni 8.404376405336173 8.922462461235984 6.8762508400454445 -0.7449874253952331 -0.1736834178615009 0.5055662990162906
Ni 2.7357576900428855 5.926088390077128 6.419292122434326 1.6532195898171465 0.41000122272477135 -1.6755935866369724
Ni 0.08265473131161792 2.65775298767311 8.25655403950467 2.7275151936614574 -0.4029062635512029 -1.23027954754352
Ni 0.8282597936541989 7.690802385728723 11.02989946349411 1.1637594523340988 1.1241364386258381 -0.7149258301231622
Ni 7.2321769408764025 8.64580441401141 10.893509819422427 0.4614523394162117 -0.4771628081729331 -0.5990400399964199
Ni 7.377345615492504 7.128951900812018 12.845527541095871 0.3634102623391096 -0.6424590304120034 0.19955102965688215
Ni 2.3754831585327785 2.3602725216928975 3.6373926994215484 0.3162217775787651 -0.9199563948373768 -1.2426172431732663
Ni 5.005952241450743 7.256883721157756 12.780640028801395 0.8278317116859744 -0.28651088077789366 0.738819091800992
Ni 5.7705925427508316 1.135652851450996 1.5730795800248745 0.2305809023794932 -1.3387775298466233 1.2740857460951929
Ni 5.356347795811314 4.922345094572723 6.581551987763575 0.07286506359084226 0.4778737181970287 -0.10369850403193108
Ni 4.969545689554674 7.144554708767475 5.722642153945529 -2.2062196568353682 -0.8076228408382671 -0.12149799410719721
Ni 4.573480875044406 3.112578107667338 5.6576594000944125 -1.7570767309141289 -1.701936081186243 1.464245307234846
Ni 2.2503992474787307 3.041931282418388 0.19002184534909755 -0.3883533054376925 0.29376242013398435 -0.723854757181676
Ni 0.9568601723779211 5.031984933599047 7.6516730458016475 -1.2291734589635348 0.48606268176572426 1.5878104682837169
Ni 5.1333424921606845 0.14329372318734196 6.316673080117583 1.4998630564384556 -1.336925050018917 -0.0783253153744651
Ni 4.0020782222411455 2.805526798985543 1.4472412064437161 0.9336626886798758 1.3677057828451993 -0.794679907524354
Ni 8.546827894365777 7.13185583454879 9.077867735709397 0.3108481719716776 1.3785416971184388 -0.2774109753591545
Ni 1.3134277531050735 9.216123927543077 3.4619596195719167 0.31810331087219407 -0.9466716993450341 -0.2416029645216097
Ni 5.189871157248859 5.021069504215486 0.29000307004320963 1.0040432952859677 -0.7548028688237581 -0.6441114784137617
Ni 1.3926556558591492 0.9722108703305081 12.809612136835025 1.8803639557112648 1.1958961849676435 -1.604110233885005
Ni 3.7838630086450644 7.087120315150466 10.991182836979142 -1.6669801339363486 0.4705267909136542 -2.8420544970626342
Ni 4.773329408060962 4.280398328003165 9.892362323206841 -2.058697470750267 -0.7793224512316771 1.1247329345592565
P 8.55338275444042 6.321424886801325 6.895191771187064 -1.6430963853402154 0.6728682388314798 0.6108159495854255
P 2.5391585748411103 3.9107583767567777 6.984801003614914 2.2862431858478622 -0.20349510190629472 0.5960318492977154
P 2.3978555869356972 5.372706933775384 0.779215994429036 -0.23164353931605267 -0.4002240887333494 0.4161695563190123
P 4.3762468161316965 5.243103717484686 11.88675880262214 0.2492327131527256 0.6799449431726032 -0.2486603855890234
P 6.8589981121823085 1.3990891296361154 11.190477661730135 0.8526017195418025 0.7090490596274112 0.7843484436913589
P 5.193671482106952 1.6392285760744558 13.2299448734735 -0.0888418986350728 0.08097020919647992 0.9211429589463104
P 6.690308508039099 4.581688456248982 9.453088655426745 2.3823700481801233 -0.1556558709358287 -0.9322740358624654
P 0.6092004784188757 3.6202156045592737 3.748034442274096 -0.4766023076837727 1.8829008632005055 -0.012245650136572458
Ni 0.5901783118318866 4.091820045855691 1.5389690966364344 -0.30736201319529 -0.3248390869341309 0.1168358127448375
Ni 5.127571974317194 3.3430159876989034 3.580746382998699 -0.48730272482041237 0.7491631540394775 -1.7106302665261315
Ni 6.55271247091664 6.406451319621432 7.85991870939531 0.32249218396850915 0.11811905033263528 -0.2759341337033119
Ni 7.60341358880764 2.495291434341564 9.376775891298458 -1.9261360197400572 1.0577693240545138 1.046456727255172
Ni 2.088516613413037 5.181065981963405 10.397685076776122 1.4448435056694664 1.7284199864093845 -2.5635328051378043
Ni 8.993305372042721 4.940039481811258 9.78750136934605 -0.6459883837215004 -1.0768700494397065 1.0740436357345051
Ni 2.5080089833752766 7.499609629477402 13.223002510987035 0.9547668176483428 0.07468874706314234 -0.7617042239292817
Ni 3.776495794116724 8.02770538623194 7.3709140091970395 -2.1843763357080315 0.916727603487434 1.2163403117546083
Ni 9.018114863806726 1.7123311394995187 3.841320745780857 0.799586857907668 0.657182709775423 0.9941147233183459
Ni 4.639776468391953 8.13375966077299 3.2473579826836527 -0.7915958692823915 0.7711106048448462 -0.4685861222475156
Ni 7.197731244558219 3.863651155849964 5.121122626947454 -0.047355092245195865 -0.8000370580712093 0.13926868782705693
Ni 4.090185999540787 5.767660596791518 2.2044190516588253 -0.03169938798580992 0.2511157891080514 0.5432805257376128
Ni 2.6769226852988157 4.691160221940058 4.105652481346545 -0.5321332508715416 -1.7675046111156723 0.28240020104362973
Ni 1.99222926713136 7.316241620722596 1.8479485799698159 1.6713384109050442 -1.1251363406452624 1.340366214489982
Ni 5.320081305027951 1.5752766720128573 9.70454690725324 -1.5195942163187957 2.154726116941766 -0.6549389080465688
Ni 6.809724612732308 7.186638404431898 2.8482220948421153 -0.4277919710492891 1.672465839641268 -2.067803546816594
Ni 3.0224721251597564 1.943824146580137 10.931993944490301 -1.129214367369378 -1.4483193800332088 1.2436906787431032
Ni 8.395412494122985 5.601706853049834 3.2676939225078248 1.3957909711171896 -2.312129052475689 -1.096849320775111
Ni 6.567082741080285 2.388368780901738 7.064324902187176 -2.2958889364677426 -0.9339722495004947 0.5747240889588747
Ni 3.2775327488050516 0.21199650019193098 9.173586433873487 1.5193754154397705 -0.6931462723542257 1.7235528881250703
Ni 9.089966214624948 1.4274188240327996 10.91519874959534 0.7342764667356322 0.13327236103430595 0.2190916707929711
Ni 7.156982798168262 2.9150452517141887 2.8378360964645832 1.31955133462716 0.4694695532937334 -1.1622748973687724
Ni 6.765624037044918 6.244802120743582 4.864032984649423 0.5072837959280296 -2.107511664039493 1.4695744327572433
Ni 0.4174418752722227 6.766669826686457 0.19741520461847611 -1.7120428306029416 -0.25569852338272736 0.26103639065587303
P 5.623836508857396 7.750104260848479 9.170361293318242 -0.9516809796341674 1.509802941259987 0.7025583096967448
P 2.815134991317181 9.062364838014336 11.74696660725245 -0.6246484845931436 0.3349190968779522 -0.7258229366516403
P 4.221217839181087 1.3836357202008773 2.9530690425916366 -0.7997719773352807 -0.9701877801891032 2.379459302291231
P 8.996629489117613 0.1871225803160816 9.125590291771365 0.3128551750993773 -0.5348187681235047 -0.8548694325300568
P 6.330724944685009 8.419820477363897 4.799583396767342 2.1249694545046243 1.2078471866819327 -1.3844678327948867
P 8.999131914331294 6.162922394255605 11.821748036548485 -0.8107899257123391 -1.441641710902717 0.17555543807323312
P 9.151761177550874 1.6627775178241058 1.381165042172742 -0.41045913619779634 0.04310145917516448 -0.50644098831176
P 8.24903929393761 1.9086688072909095 6.052641075333088 2.003939915393413 -1.0361000666111964 -0.8479822184919202
