# total energy = -340859.42403370445 ev
CRYSTAL
PRIMVEC
9.35325164479569 0.00000000000000 0.00000000000000
0.00000000000000 9.35325164479569 0.00000000000000
0.00000000000000 0.00000000000000 13.68942922332382
PRIMCOORD
 96 1
Ni 6.6997341271931505 1.5902772514894432 10.100813984647095 -0.38078809149592485 -0.3238679812701132 -0.5341597943832672
Ni 4.63930633034912 2.33905180901066 11.136514500462676 0.6547643301419175 1.388365625187396 -1.0610791051540371
Ni 1.838886679244286 6.655614839355693 5.28402409307507 -0.4401414937535775 0.7046884686658702 -0.6594049142377224
Ni 8.753829772698202 0.6308122835595427 2.1009713365915443 -1.0607734009881602 0.13619930487311382 0.588658953872412
Ni 5.233275220497484 0.43628429193040613 4.773038186522783 -0.2620851436353615 -1.2955909671568202 1.1348584530290327
Ni 8.681725556048011 3.879429463168573 5.277986569161762 0.21489563043375248 -0.2073990649463912 0.9601982730765592
Ni 6.642754118393959 7.369295996841689 12.895538440847492 0.1534138689791874 0.4575334639777798 0.8296052586466293
Ni 0.4522820934816433 7.915610070044572 9.948080997830694 -1.048775862306652 0.05281585824945097 0.44038729121579634
Ni 7.379369448824081 4.363011277833015 3.305655178568194 -0.466465476360087 0.428367641047101 -0.3979957136234629
Ni 6.414918262461671 8.46692813285802 9.621765691037307 -0.10692883804377068 -0.9092122689469955 -1.1325094931808817
Ni 2.555401871967668 3.790620339145539 4.6008392124587 -0.11300126949009572 -0.5020891391009675 0.5132742091835095
Ni 2.807472002817668 9.051712129926804 5.628134896378853 -0.47919423678066503 0.7468206219492299 -0.9301186800823593
Ni 3.7406833288075743 1.8401400149598295 6.76602810394412 0.9528667724121526 -0.060656694450108434 -1.143027104882754
Ni 9.318569751569898 5.623165513799239 0.29963796255552366 0.3385623500574943 -1.0739886141268535 0.39561795741990574
Ni 4.808646950721633 0.9401701451866551 8.806381952185914 -1.37979151036514 -1.1663606374023718 -0.00800358703076686
Ni 6.559893662393953 5.375622356727769 6.038202024050537 0.05998460808374831 0.11130536984491152 0.4886612957308358
Ni 6.9106499509656 7.935691501248096 4.971083936081889 0.8440592292884301 -0.7697885435993129 -0.036225557990937615
Ni 5.941082535973321 4.603445963681999 12.384155956427001 -2.271164437137869 0.852470593280577 1.585553039708108
Ni 1.2750539657786186 1.5316136574007158 3.5282859499803325 0.12201838538704148 -2.061779966330333 1.278430910437766
Ni 4.9955062113569335 8.384778523980263 2.7713151380745575 1.0155461537192445 2.0333690192878078 -0.8548082402748182
Ni 2.3278092005772018 4.987958137308846 1.2707542760141755 0.3894845908286583 1.4176108952057587 -2.968157594042011
Ni 7.503505804172549 7.6643536720845145 7.435782650575795 -1.8363543828995341 -0.9210174891120396 -0.083457751505024
Ni 1.5231957309530348 8.589848565497379 12.22400303510955 0.6694921232703953 -1.8545179411824384 -1.672823480091003
Ni 5.763164983875781 4.0155941000856155 1.2667146066444495 0.4310282185983996 -0.7092280084074367 0.1788528778775823
P 2.596752597328998 2.505764165681176 10.45104368515318 0.3463494502020809 0.7423867545475924 1.4895159088761767
P 5.184086470288203 7.765752272772635 7.618674261878754 0.7166862644576947 1.0992697572911456 0.03539997676584872
P 2.0289915181877465 8.894764567935598 2.4220160861035205 -0.8975551443240413 -0.023229917062218056 -0.09392548380556727
P 8.459370705558324 8.992356395219046 8.614511219338763 1.01426934388935 1.5927099624678633 0.46827758986816126
P 2.495559768176265 5.979075444007187 12.969529208347122 0.0603695022269928 -0.33726908516736753 -0.5301517016651386
P 2.270455061713669 4.298707673024341 7.279847110408632 0.6956600399150149 -0.021894486080246165 -0.7658642688442423
P 7.86942371360163 6.948521266728554 11.200307417733523 -0.020048434010442893 2.105440640443077 0.14389615929673927
P 5.537873212381014 4.039772255493676 9.874349315400616 0.37339025636995693 -0.14245788418831593 1.4014224583713542
Ni 6.4751812625754575 0.29558519863354576 6.801592907860411 -0.6564154925920953 0.7188498477679168 0.1861095594399956
Ni 1.0365928160190356 0.33568071762901075 0.34270126828637665 0.526493793197577 0.6288064726255752 3.2548939605671494
Ni 3.6263024148868075 1.7112709142974436 3.766988413631416 -0.6395621684801824 0.46918930304915324 -0.49695927407357
Ni 8.485260506010748 7.5034122716564635 1.0101362085191354 0.25739159481443413 2.810746173867656 0.10734484253526673
Ni 1.2547106435300563 8.005812828557277 7.322626077290585 -0.28280180735742266 -0.9066360235793869 0.7640709243892454
Ni 0.9181469789492002 6.371547234752898 2.4985948983232347 -0.7918812617332943 0.2274618971345373 2.1990668478406707
Ni 0.10059983300075198 0.3645205336387656 6.453689361029367 -0.5356903720951806 -1.2330614811640312 0.2707361344421402
Ni 6.78945986987382 6.8406034496692865 2.4872054438395224 0.45307465687547777 0.3218432375306005 0.8519077787985716
Ni 0.7356061145815613 6.0205477616394285 11.464513392545596 1.9628750270323034 1.486357308642537 0.47865353378584663
Ni 1.6144554068975046 7.3653021584048455 0.603649505563198 -0.2792508567813707 1.1384556834619877 -1.068443001718276
Ni 6.28729314426322 2.998774057967021 6.001035008133704 -0.35517836134762054 -0.932489237197065 -1.370424467327943
Ni 7.944997986598587 3.000747594056422 0.45923810670291026 -0.26923486730626534 -0.42267701842022687 0.5643162633619894
Ni 9.117100711922067 1.5530513100874765 9.820495163289 0.10890910169859308 -3.0551323575613574 -3.1626309520656695
Ni 3.256203601988712 3.92265083885161 12.619093736305649 -0.07794427788596253 -0.24818884526924354 0.08499270009231169
Ni 7.978978349692392 0.9951953243996626 4.729067615385902 -0.236358942513851 0.758453578202468 -1.0091183958160297
Ni 8.960976236072414 6.289360212868706 6.641179966148243 1.1011047536173555 0.36954979957794415 -3.8443700110242176
Ni 5.459605202920798 0.475410814059227 12.530728891734023 2.0499816881438244 -1.2369752143961408 1.2988644957017697
Ni 5.2789190883471315 1.1697644124213478 1.36700578234212 2.0339074082897812 -0.2957838214393873 1.2248838304492453
Ni 0.14320670005310848 3.512912945636546 7.922292032993709 -1.2015186733607435 -0.04995139221746236 -0.34293528231420944
Ni 8.15378126900429 5.945674982513111 9.425979687066825 0.6192702510003657 -0.1578747329640184 -0.5494699423777764
Ni 4.8831830127900435 6.072243183279798 0.409322608843645 -0.6063972516924395 0.5317892372685615 -0.44894315120560746
Ni 6.448421609723441 2.4456134045866915 8.139132206335004 0.5982039172483699 1.0902464707466126 -0.09224886743409275
Ni 1.2420556941037095 2.2565654830749957 6.090878601784642 0.724140663853211 0.8191089871009958 -0.583216442700602
Ni 3.2496656791143463 1.0653540647152788 12.340335972641018 -2.6997871316185695 0.07971448241250788 -0.48010389307912804
P 6.9416653332994995 -0.198704218472347 3.1245023367392615 0.6527187604667984 0.5388973090682525 0.039252774853035625
P 4.693452303910925 9.075693867051086 10.73275894697643 -1.160544544941227 -0.4253016005272675 -0.3214251761565755
P 5.197611272114143 2.414457723478664 13.396338656398084 -0.466693533210493 2.5917326646107877 -0.3567858150440565
P 3.944172670802847 7.695275521902328 4.4186462890508995 -0.5656092711418002 -1.5754612026897448 1.0244815085356616
P 7.180042303794606 5.682942144829381 0.8151124945547467 0.038440820474701536 -1.2891536961719088 -1.1044821547300205
P 2.5625945224546305 0.21794853365690642 7.67987913442952 0.7022050401223842 2.54862014969203 1.3410989788909482
P 9.131785316947466 6.60234807144509 4.398345056434575 -0.8487561205434673 -0.9570682120880097 0.2783041765973852
P 1.7551563708446867 2.660934609866761 0.3382715683245748 0.06345534024116814 -0.7568355829830707 -0.18822712000363068
Ni 3.5677136468109483 2.9029219354827616 1.5077946668544222 0.43090583408792243 -0.8536579287204588 -0.5321972713402576
Ni 4.757737202216381 4.110118060841463 7.931490955950703 -2.4505269076620184 -2.3833123574887343 -2.379919272646785
Ni 1.8540857131081543 0.5113656485675938 10.110369266490373 1.2162541797987054 -0.3474815069239951 -0.5109211355703007
Ni 8.191465519735075 5.016373315695573 12.008202943347126 -2.717015065461082 -0.18787822130464418 -0.6164831751735319
Ni 3.3753453209782225 7.1781810067245075 11.383362710939632 -1.1150295912285635 0.6005785881281335 -0.9664175145133937
Ni 5.913032134399327 2.1940202895687264 3.5315446228407463 0.9506083153952789 1.0455722677676895 -0.6078926052910434
Ni 3.3879815639013526 7.044691399767505 2.0478560913569996 -0.7946300281230251 -0.23622036005345767 0.7936843763803041
Ni 7.653803204270087 9.468483668351487 11.391343840537195 1.0275208095826174 -2.0562351252527042 1.63679949658791
Ni 3.718403883476045 5.499917717353582 5.907837338455947 1.8277447868536525 -1.8488178054738675 -1.7985198285502637
Ni 0.46864186587013074 8.586032438841096 3.982870814007997 0.23742569321546855 0.021355325747324513 0.04194394853195357
Ni 0.980323654342093 5.857361580825329 8.273959328272028 0.42192908451060884 -1.5261975805679262 1.2479468829162959
Ni 3.895021333599999 4.772964295835075 2.874164428087162 0.7175918069910996 0.17196257851565222 0.5752480797831447
Ni 3.3257637342013817 0.3282439472750651 0.7900186558142099 -0.6725905596900611 -1.260407220166836 0.9020450617745949
Ni 2.1327190785263923 2.4245124689578383 8.422531053447791 0.6165142855217834 -0.7442801149155633 -0.09593762913958961
Ni 1.2499311319580955 4.252708381613569 10.074694094205102 -2.141862116494905 -1.7383128200430642 0.6372111517495026
Ni 0.36435685173561616 3.690072884353795 12.761545628953948 3.084442676489701 -1.1018249196128314 0.7935319099628397
Ni 5.430825247721338 6.3439551425077205 11.145481462779777 0.913821999804865 0.2769090960220715 -1.8991885446169359
Ni 5.790934787901519 5.857539292605892 8.462627507768417 1.2963386439561222 1.9695382979850917 1.0291200357489372
Ni 6.89679778533336 2.8093800661458097 11.904998229773396 1.6116533363395857 -1.9871752943405647 0.7493755271605997
Ni 5.519512779473461 6.052245931340752 4.201997857367579 -1.4120889369462648 0.8538157944545617 -0.9474728550900908
Ni 0.26795756403225696 1.159213944606921 12.218061849687809 0.37261686853904213 2.2685182577642737 -2.2353921646342663
Ni 3.3738207409660315 4.73247406962173 9.83369166598348 1.6146291311384577 0.710608433694731 0.02320523447186971
Ni 3.193864180017831 6.559332467297441 7.686135524430468 2.4121575638552004 -0.07505050127793526 -0.7792658869621288
Ni 1.4094601913932572 3.448057498982968 2.4332137989292577 0.22501472114562535 0.38990008109952207 -0.2960141922826386
P 7.874465116218629 4.850540164676259 7.574251928689181 -1.271608488199294 -0.9998878783566972 0.929054243373587
P 4.998489898620055 3.942610677784222 4.573132075218739 -0.5770712490348127 0.24265480282489174 -0.1931572103153964
P 8.21173401597077 0.5691126239986849 13.630729271057634 -1.1637951906680408 -0.2993118891973039 0.6737321294936719
P 9.01102548542968 2.9081784628867577 3.32542234051767 -2.1051202809891807 -0.382461879653922 0.5592455337073013
P 8.848063782654187 3.0429962315721717 10.98144133009382 -0.698195661852675 2.869392008535323 1.345962991851469
P 8.165051937192574 1.9844326275246889 6.835214106092448 0.04030281338410478 0.8864415509093831 -0.37998796419213265
P 2.323048395508458 7.14510790903673 9.316396055896075 -0.20223166181283883 1.0029935138652146 4.184092442828084
P 5.044807200585517 8.320353326900678 0.5015709234831367 -0.20402732026068088 -0.3579656942847706 0.5064759553147535
