# total energy = -340872.917794739 ev
CRYSTAL
PRIMVEC
9.20430202017153 0.00000000000000 0.00000000000000

0.00000000000000 9.20430202017153 0.00000000000000

0.00000000000000 0.00000000000000 13.47142639162540

PRIMCOORD
 96 1
Ni 0.4842999961484026 2.6540604767952356 8.286961668866905 0.3785933978374512 -0.04276490177135216 0.6967545585307742
Ni 1.580525919311152 2.2663936858756526 13.068374725352545 -1.0600426934697227 -0.16803856087089772 -1.3169637764056417
Ni 8.737901592908157 5.972146911549335 10.879874285868343 0.24144329901529388 -0.3535968757931136 0.48774855410857926
Ni 8.685446275907097 8.397600139993042 11.208630782806194 0.33498543133951336 0.5521019806839846 0.1055700100230311
Ni 5.722314542825032 5.653355912368469 2.9581503648488705 -0.41331743158219786 -0.3582662562443249 -0.37456267941150334
Ni 7.927462803305867 6.373049488720459 8.80725508791979 1.378773867733903 1.623826995587642 -1.0610922177801598
Ni 4.664859900905232 9.461470180394988 11.048307489575876 -1.0625778011867508 -0.4716470205610264 -0.7751384950573167
Ni 6.232555023252096 5.174879478084704 10.32179352545449 1.0023795344302995 -0.9704196936942513 2.798621365579664
Ni 7.953998805922828 1.5585368418737884 4.795396232058199 1.117252052801179 -1.4053022530417347 -0.531840145111155
Ni 5.737161081923595 2.3496558016137823 5.2933001865374605 -0.046513827290823116 0.09248746580746008 -0.7820326510739886
Ni 2.65259699277994 1.3657527368400575 2.498127635610803 0.015135312979541677 -0.3888153326757755 1.1172566807868693
Ni 1.1134167979763803 4.332639825131182 6.761834602330975 -1.1096582996143212 1.0435806912589576 -0.14413141523599693
Ni 2.321628702075577 -0.09675470201499509 7.673661539566498 -1.008532955626205 -0.47331386674048803 -0.46302636877155096
Ni 6.669492442686625 7.446087013897461 12.068404631037312 -0.8185590281347966 -0.44591927677761917 -0.3364159931384529
Ni 8.172527343602983 6.1109017639429135 6.241163806896787 -0.35480915093365994 -0.10820719053556202 -0.251506853898883
Ni 7.964353645653692 1.210697065634604 9.562314353781025 0.933063107422664 0.42501517963510027 -0.012242821923095044
Ni 4.442217040238681 4.515142724849913 4.760896667365554 -0.35019890585515817 -0.6334838234965865 -0.9895330174849346
Ni 3.260080923657296 4.002076523714071 7.703015899450651 -0.7239131212234371 -3.7104214498584933 0.037104103941149005
Ni 5.1836327692705275 8.153566481518023 2.9299944050829034 -0.37010490075046576 0.06523454362877798 -1.3588316202840212
Ni 2.2041634001686554 3.5854714073599667 1.524938378345279 -0.5779004298043273 0.7613316710812114 -0.6441487594096004
Ni 1.3825782008649639 1.1269103046834439 10.364820875934376 -0.9751682641228302 -0.22093155221518726 -0.41023930687750637
Ni 4.580180322661723 8.687931437442504 8.30351744684371 -0.6965403856374391 -0.35239128552078663 -0.3016312813590999
Ni 5.968676889701748 1.705805673601632 7.855471355345909 -0.36809172697517895 -0.6028648130591489 0.4165719339637535
Ni 8.51215688247334 0.23417124890024615 2.8152452926911624 2.8143904554884625 -0.15733711529299355 0.2605895329264415
P 2.7596522291440992 8.706947525339361 9.836364161452774 0.9515992185536386 -0.48530369211251256 -0.10923177514533446
P 8.955877872469333 1.358840306050832 11.73924314481221 -0.061302812674539575 0.39809367265390794 1.1383939769861169
P 3.0697267543470743 0.9037520031058456 0.35545817699050514 1.0785960309918778 -0.1101134064193394 0.7860304593794721
P 5.897693312808928 5.98724196680144 8.59894608673135 -1.644111456868291 1.5327533794085733 -3.9033246351815545
P 2.738381087261409 4.116817352234027 12.361812006209489 -0.33657051643844615 1.091535107651049 -0.566127091318483
P 7.242902047622952 4.9605941236187086 12.227475218767747 -0.011308997254916006 -0.245000677349249 0.3744634348294777
P 6.02030381952434 1.8383200092507428 10.143849516507935 -1.5682027213551186 0.4976619565675494 -0.9229517300202751
P 3.5905429777525946 4.648927254172676 2.591026655525124 1.1894581426517836 1.1872886458042908 1.310434459927556
Ni 5.258224432540681 9.410294261369561 0.21907803450853877 0.024925302486769975 -0.5582926828757289 -0.1023605019467979
Ni 3.017768469653095 5.674406151003568 6.077769038094744 -2.777426990890236 -1.767432620227156 -2.2343930339457905
Ni 1.7344126441647656 3.589410848608687 10.203231070751196 -0.23140442672205308 0.4463813040157022 0.4944719888753419
Ni 6.75415361232617 0.8211921756090181 11.798773808747596 1.0626230526023892 -0.2349988289415308 0.5649420698714464
Ni 3.4492201251057626 7.893747445142174 1.1704135175758492 1.0767600062244036 1.7547876777696358 -0.6716773038471722
Ni 0.4877626545544035 4.5638702995478635 12.646719208500373 0.7476960825756477 0.3439529249454464 1.7026269366056808
Ni 5.955652802395818 4.280690744739186 0.7914852909589172 0.6695756841231372 -0.2026936890509219 0.22379910357096938
Ni 1.7891138108496767 6.730802298195323 9.07768024147064 -1.4330508839099125 0.24587305265187331 -0.5762387258311882
Ni 3.2910257869241093 2.1817417205380916 11.231006440926844 1.0004429795292191 0.5301501590032418 0.6691712495958669
Ni 5.368676056336564 6.570316088819905 5.919304093434791 0.14409901933616473 0.18736811443744505 0.6919879903800662
Ni 1.8889252615532228 6.6075474903411004 11.374450885180753 0.37638019223621627 -0.4842528822504951 1.0472540263454868
Ni 8.563019855231344 5.466582216529631 3.4756410739479358 -2.1143546551032557 0.5292212194310691 -1.1964577138980685
Ni 7.117143669629355 7.360302919415992 4.305400613842721 -1.534586833072886 -1.3619747938986932 -2.046934159566752
Ni 6.699434037037293 8.078302904203111 7.322542270530774 1.1088990528507934 0.09124973674561705 -1.5393559723267554
Ni 0.4033472397778051 7.673074305099984 4.23944442669301 2.5893111996534888 -1.2113762828811137 -2.873111623478755
Ni 5.514407769633248 4.044931753746874 6.950784195158592 0.8571996233251302 1.1860306050274736 0.39367523187123815
Ni 8.389261042396454 3.9121136761323245 5.101547883756023 0.5051541511795365 -1.0443972736229818 1.3895848423064776
Ni 2.3957325373406317 8.845941689584498 12.219485884646511 0.25426436203936215 0.124364774132031 -0.9513472504438326
Ni 4.031493472851707 2.8298442360663834 0.14653801015039442 -0.6718824778794429 0.0005916108374118844 0.5676432708526933
Ni 4.791446666077297 2.8372721077666565 2.937781244560513 -0.606060180067995 -0.24806234699370827 -0.6192651087940432
Ni 5.636677717175291 3.16242327961777 11.980799925623607 1.332666531852879 0.07602237827290133 -1.1776989452333264
Ni 1.1204304760874189 9.395107163097626 0.8917293438556638 0.37827175283197434 -0.7812638912287642 0.5878246308965748
Ni 5.586357798234284 6.684624315146661 0.7195693182752194 -1.7252145920982096 2.275481062235352 1.6510614058235629
Ni 9.082464637641397 0.6802503810642818 7.357958583700924 -0.7683173583704251 -1.6482627600325035 -1.3124710307416108
P 2.16326868645823 7.910858242528553 2.8169692584525765 -1.6256697052233355 0.678306893348548 -0.6373286511639733
P 4.339846793583864 7.6765259183436045 12.476251854054603 0.5530134367546605 -0.5719370131320408 0.31132074073272187
P 0.8164584030991663 2.0098329724017825 3.7472388555714167 -0.5676211593655064 -0.40906354140185036 1.129214624479694
P 0.6129163099077166 7.651747937405395 12.894539516811195 -0.049538215939443714 -0.5618084093384712 1.1177963553404233
P 8.674235436091815 4.311617199402033 1.323232543399436 0.5858747062590555 -0.24403574233281844 1.1906549911733624
P 8.288584387306507 8.437197047123867 5.473884909722936 -0.7384478245045025 3.32983981794642 4.517222823236731
P 5.866407890368744 2.0919813675999706 0.9658166113771488 0.5236259847314789 0.7289658531559963 0.9829828750712425
P 3.52530288529716 7.576696059036093 6.455938830228277 -0.43432205885832303 3.5812656820957223 0.9699504673673166
Ni 4.134066214150152 0.8774709596538136 6.245313106230719 -1.9749841515910118 1.105884691504502 2.1351307113083426
Ni 8.135203899061956 9.067885023300342 0.06301449223594778 -0.32275469360127645 -0.9857095299737861 0.5069932612708042
Ni 4.974391372291211 3.527327831733418 9.302059953921379 0.06308021628993653 -1.0397379204740997 -0.016894204652177357
Ni 3.6129646573831584 5.034799206205576 10.372001151911304 -0.9110007283059859 -0.8187770576828739 0.34081412220614854
Ni 4.942480057316184 5.5644331509108 12.333643160420745 -0.943460391496588 -1.0358786946290097 -0.4889022080970484
Ni 7.728272504091976 2.2571249537787814 13.490825493896045 0.8768230539830125 1.5153284990639064 -0.1788027413659372
Ni 3.499245506383314 7.093994850142136 4.200108001308305 0.2864067510998616 -0.39218450625832457 0.6472615940069691
Ni 3.281784667733187 1.6742717350079077 8.83783454039788 0.6339337665498115 0.7392556651177784 0.1979677443301623
Ni 0.265626030496917 2.312295539864825 1.735927672271166 -0.9880358641141178 -0.18757200291813503 0.05865020554304093
Ni 4.576158042695155 7.114465217752306 10.286821780070118 -0.2976872091096873 0.3084169368223656 -0.07038472037114975
Ni 8.478864922200865 3.3630494499410077 11.039779703788636 -1.0691364282408748 -0.10623001220453318 -0.9369261899224961
Ni 3.7252755501796053 5.974586051574828 8.076173949154446 2.661831478310403 3.424288007024677 2.5322563636220257
Ni 7.677041359254652 4.070795842319076 8.46479798748026 -0.8608426193943562 -1.2865543108758488 -0.7252431528887703
Ni 7.657537443352696 6.061548296710121 0.5638684255007582 2.0010206848640895 -0.32404204495413225 -0.2752329938712292
Ni 0.9334082640950402 7.554053476157937 6.455494262442499 0.6451165226395082 -0.6392649489547377 1.0426034149473529
Ni 7.1263755845182954 3.3755949135438232 3.101957458600912 0.5409619049067651 0.5955600518676194 -0.7563033646286846
Ni 1.9440958476392662 6.372386778977684 0.5854037308503605 -0.4827441589154524 -1.5010398503553763 -2.012541541019495
Ni 6.483289413570733 8.370613126578915 9.53863168477879 1.259158178251083 0.361611518567474 1.9786973387765407
Ni 1.4050735149113922 5.628964512113545 2.6421510304594444 2.3582034782362484 -0.7536240180243086 1.1304086447877952
Ni 1.877576357208196 0.4874432652755937 5.228839698459985 -0.3026882618687045 0.49903672542788896 -0.7899179673593364
Ni 2.3343674560200354 3.16436538733618 4.923240304881139 0.21328406297225846 -0.22133470119087686 -0.3460200918871202
Ni 0.07134806725134714 7.337282960156534 1.8100885742085149 -0.7886730392086417 0.730858956413651 -0.49617457338874543
Ni 6.52261939594405 1.0472470710206636 2.771516574400174 -2.4351177721957997 0.8327561455707851 0.15960508539156384
Ni 5.57123513007623 8.993431424559933 5.036926320393845 2.8810632742256637 -1.7719852725948448 1.1011332928624455
P 6.502922189700452 5.059034133326789 4.949401692407392 1.4739607347503971 -0.6709748784635089 -0.7736233439643709
P -0.35927520102285126 8.433285218781096 9.14154797250041 -0.024947671084273162 -0.5940472147675188 -2.479228389361769
P 1.054306770641617 5.596178788450134 4.885332387164194 -0.07673817339300333 -0.5994529591641224 1.0993780007342355
P 7.544885991382879 2.4608437695683043 6.6736095269636175 1.025866047588014 0.8723472775998461 1.1419441562312205
P 7.067449643223192 8.195538098560458 1.8834809169302842 -0.46119214377628953 -1.4108270395147058 -0.4746621532382664
P 0.4349281203116429 4.779333804667682 9.012788071630162 0.06772465704048337 0.9515033164057226 -0.16680597401537722
P 4.266332033645721 1.0059841852309181 4.0931448079639745 -1.014439550918627 1.0430911532170488 -1.699402516131112
P 2.223648907466646 2.200960303078575 6.917415839179657 -0.42512085197502913 -0.9874751065146411 0.07511066509190935
