# total energy = -340893.8105098254 ev
CRYSTAL
PRIMVEC
9.05556776153676 0.00000000000000 0.00000000000000
0.00000000000000 9.05556776153676 0.00000000000000
0.00000000000000 0.00000000000000 13.25373876983030
PRIMCOORD
 96 1
Ni 6.195593053431034 2.067567224700367 11.335684526418863 0.7741079969102733 -0.8138554520115403 0.666812262445387
Ni 4.786075824721059 0.3595386390268636 6.095924758296049 -0.9168042223616404 -0.5365743173620308 -1.2107435343931212
Ni 3.0213720628364933 1.7041129581859402 4.689000138627909 -0.802173901908554 -0.37028436375112356 0.23696109487422415
Ni 3.512926390495854 4.400435417261836 5.027434777054018 0.8041845045806796 0.16708776692185418 -0.7319529608087781
Ni 5.247728667727474 4.597394015445232 2.8110646522585157 0.0613794315487459 0.08819783729317068 -0.5023472778583605
Ni 7.428255044323919 6.2390960008183 2.907021975736693 0.07212947097639835 0.12847725363850776 -1.6100888200659433
Ni 4.908072433214241 4.504846113218367 11.50572997730106 -0.049350782518985975 -0.5869478847185762 -0.7478776024588345
Ni 5.427979743444279 7.665203029614343 12.351543547999196 -0.13670169843082908 0.9351649842570153 1.1751029023713762
Ni 1.736821668835983 6.598891817968769 0.28421080440025387 2.4426837574685156 1.2898208974422625 1.56897765184793
Ni 2.9152679757139714 1.7682897667066635 0.34052466345878657 0.0016622181937713308 0.33237884695460174 0.2860951333967137
Ni 0.7496823803194937 9.151918973244477 4.894777954226056 -1.5779502876601859 0.19992306828432022 -0.8403624971631334
Ni 8.647560072811263 2.4364638874220685 1.3528357136015001 -0.33280385030716236 0.03454842739883082 0.19206500569248214
Ni 6.952538904628822 0.4232916469777025 4.722559167088041 0.6791340172355337 1.5389767346104657 -0.5837419761867688
Ni 0.6867652012703712 7.697920795832119 2.866929355157513 0.43952108656075917 0.19628032932541034 -0.6129062564555509
Ni 7.788820584731656 4.04882583334161 3.812185737354093 0.3660592699261825 -0.7144303785439825 0.41278521322781164
Ni 7.482389228229222 3.8738179313419643 12.451807699490985 0.8081339761467308 -0.13329601518338977 0.7837023254669276
Ni 8.06491578932998 8.564276016374818 7.029836325237267 -0.01309102885600326 0.5552281850177921 0.16422561488271073
Ni 7.012921430269599 0.6763866150920729 0.15024816870525382 -0.8552281014210562 -0.2335890930781977 0.014401777247626809
Ni 1.6594327869934402 6.445870834423802 9.347345369367522 -0.07301855844957102 -0.11675328033336022 -0.7458780555303025
Ni 0.22635206548654482 4.963510618873034 1.6184011040403927 -1.3719373044280436 -0.8727545403405939 -0.711508062690865
Ni 6.2001117817295865 1.960503247398193 6.956012620411037 1.5016183485666657 -0.19025212085345944 1.5300964014017002
Ni 3.550660941237473 4.257339335951766 0.538601624257155 -0.7257108365538082 0.4492578542325488 0.3557085228194777
Ni 5.997638342797055 5.565425150489225 4.825129771681314 0.47663238959075976 0.3416242768122697 1.0439198197659312
Ni 5.233982315909433 2.9620580941881602 9.40933254161051 -0.8026760383559531 -0.568530301443337 -1.7640842725802135
P 9.180896789988703 5.711364680067322 12.706332541750328 -0.9793193101767264 -3.0274526322579023 -2.586048212631501
P 3.901944524719326 6.146203987017598 12.642635678319431 -0.49222715870522327 0.21511468842309406 0.02811784128213867
P 2.2865851858803037 8.513320336743645 1.4517614521824138 0.6357571929117954 -0.25653567457204207 -0.08826879974042218
P 6.352172875094901 7.856900342945116 5.81510435845487 -0.8684744249080011 -2.144615767980642 0.9028976395828774
P 4.834351056303389 0.8764947397328566 12.581230779081647 0.22070812335047152 1.1332126898954935 0.09866402693181717
P 3.9156184319955063 6.119526284477447 7.992454947447502 0.41366838716371335 0.19111446885375474 1.244402102987831
P 4.987408262119287 0.9283949150785348 3.752543957153841 -0.6876356269486416 -0.3218949167041424 -0.7157444693697157
P 0.4526090475118976 5.725735866058911 3.7411728807520523 -1.1992188215829735 -0.5718447105285507 0.5250727444803344
Ni 1.5978096485733018 1.3124868204554885 2.367873395188491 -0.12020241522422526 -0.027810851564681136 1.4544607170442563
Ni 2.043316414312545 6.661574457813618 4.875971351159055 -0.7074961133179944 -0.3124653958601264 -0.13923217816216665
Ni 5.73863099451009 5.744453724562133 9.22309120783861 0.6723072241216873 -0.36798014109797916 0.2709161116634302
Ni 8.56597846310854 2.1995883466735044 9.883194101033977 -0.06675843647247212 0.35534188350867835 1.4232889194271423
Ni 2.3664462377138378 4.917028389701753 7.185288728718428 -0.0051784588771459205 1.6278682555365511 -0.5406795977796559
Ni 0.5444886488400987 9.074946647517633 9.099751658650689 -0.5569392541716279 -0.749430034547619 0.12450078548926298
Ni 1.4121161766492227 1.1660854569230303 11.280920074999372 -1.127543150314542 0.278093860358792 0.47398183934179017
Ni 4.116353201923385 6.824520343593481 1.5843521693659297 0.3741975827626007 0.8917899597054899 -0.7025822209561448
Ni 5.561748589989802 7.798917542753472 7.906359137230093 0.328500337835802 0.375131921651412 0.4483888213640343
Ni 5.29669212245748 2.6765088768770324 4.9203843831034435 0.30552290310402225 1.3512566361502405 -0.32909811932080096
Ni 1.157355889628833 7.4617334782312295 7.061790707095185 -0.5026750935114246 -0.6373096250005799 0.20195912487774248
Ni 5.2614931306809805 4.448049592399689 7.112658547719351 -1.2003490785326747 0.14813539418906743 0.18742699269983848
Ni 8.011641884359271 7.040386967202483 9.196080260405902 0.5009941062645759 0.4851774509472934 0.4321685028504299
Ni 4.488872091738114 0.07944902350170231 10.36972530527208 -0.023801216184655784 0.8548426930571794 -0.378051152180736
Ni 8.182701558827517 7.120746075261309 5.017931864275459 1.3684915119712882 -0.10056664327116872 -0.3212611397748854
Ni 7.133722703822082 6.1649580677917495 7.095853225121247 0.46933842703250783 -0.9631295877907412 -0.45617026508166597
Ni 2.283922848966928 5.604934592506427 2.486547515880593 0.8185693125474419 -0.6834740393717842 0.9797332577856932
Ni 2.3931511069571867 5.002042059575119 11.713097950593047 -1.3424143552682621 0.08924016251475599 -1.1009692564807554
Ni 1.3481295350508837 3.608698074835514 3.8672816225525946 -0.6940119627886305 -0.16680057469873855 -0.6557943140683287
Ni 4.067353524922448 2.6655244732174252 2.5949761672400657 -1.5051435881111046 -0.6873633471238614 -0.1301546413409307
Ni 1.0452660722350824 3.4245168827227737 8.276442984881536 -0.8964685961280819 -0.7781826812002791 0.2659759940493355
Ni 3.6323149954820564 2.636139155925236 6.973878349990623 0.5742494633153014 0.18023664559898636 0.6916244363930605
Ni 4.136556173534748 6.81595377651847 5.922791358817045 0.7056099520388751 0.8812602638187597 0.4531664452583357
Ni 1.002315514479503 7.470952046182986 11.454848553325297 -0.7330713906839375 0.17567910813529097 -0.2171016369461358
P 0.13338398491688883 5.504137068075192 8.104356409032416 -0.18202047697228652 0.42658560944601365 0.3500896339708035
P 8.331991648466666 1.4758583179187827 7.898154792864386 0.25986139651116535 0.4437402668484293 -0.7873347800131923
P 1.685150599353939 3.275335459896417 10.414350237501413 -0.04032441065065959 -0.23247323430619962 0.23299953912331484
P 4.0662034678204115 6.179021364480431 3.775950788628988 -0.8449290334878932 0.0996785842392606 -0.040363234308395
P 6.76257120473497 4.0543044518198155 10.320580739187424 0.9672114711695987 0.7553757106080926 0.6056948263087762
P 6.196643499288013 7.785479080238337 10.30103067400958 0.6465290867163187 -1.1270464131837816 -0.511483435831674
P 2.51331849076839 8.745740538167786 5.821055677568715 1.354052196617507 -0.6821033842765027 -0.4051454372943668
P 6.956586743405281 3.992590757722351 1.64326497636371 0.9550720075935876 0.20634799797405753 -0.3783589132291419
Ni 5.347421412895337 2.8417548768609686 0.5346289466928765 0.9031220968888576 -1.0776156693564796 -0.8303488216808732
Ni 1.5031699102002136 1.1257338471066987 7.109331532134405 -0.7628535070423765 0.9412505283294629 -0.7336313769524655
Ni 6.750808022250362 0.5280627545299901 9.224668687737624 -0.637347934437683 0.8997902043021472 -0.9010749845518417
Ni 2.6212970804115536 1.587848524067475 9.205304261698297 0.26580373013752934 -0.227457269148847 -0.6954978033055378
Ni 6.542394130885265 2.0781984612184043 2.705260304427942 0.4005395630912392 -0.06547854131878401 -0.16851318651447109
Ni 3.8179903562706703 6.756114584941648 10.31201869989628 0.37404923011019453 0.380494471514906 0.6808080625038468
Ni 8.151939795239977 7.330128912373791 0.1217575415050423 -0.5901612494495514 1.3094872655229384 0.8391471366987936
Ni 7.4493997949794695 3.802460057609313 8.184727289329293 0.9688490067730215 0.08514388095819529 0.317097495315499
Ni 3.0042842065251336 8.76922162529834 12.416500040901695 -0.055616303812723575 -1.504504668975525 0.02785327476684235
Ni 8.94393069356281 4.67772595680086 10.41209721224955 0.41209127248458055 0.47731733147292627 0.0919418777166352
Ni 8.483391685387502 2.2295532203005783 5.6919767095518905 0.6404720818889614 -0.02459517284086087 0.0010469532072756164
Ni 3.575391696715122 2.3600801735978414 11.23052855723794 0.7424530890091536 0.4686735397549993 1.1470097436795859
Ni 0.9357389805096489 3.318421851167985 12.736842560554901 0.2693865623927812 0.37028642063365264 -0.14969991046270992
Ni 3.331597702218874 8.457990817897644 7.774722876885591 -1.3702874275294465 -0.4993789392586561 1.8300513234996418
Ni 5.581372005266281 7.783224243872928 3.506025142326863 0.32200136037501964 0.07497491084499346 0.09746100776265151
Ni 3.226670838901586 8.498442038959034 3.6654674289509948 -0.20167244687525912 -0.08679015831236665 -0.7199083709394182
Ni 3.3779440978741673 4.405216757024633 9.478848512866357 -0.45061616803265614 0.17489363611951816 -0.6345796276639265
Ni 7.038657353765562 6.084318237133215 11.4832649248701 0.7969792450814919 -0.20131043555015007 -0.6164554072593899
Ni 0.5809789645752624 9.277066919308593 0.22481533564232767 0.13829706794240698 0.03765483423829644 -0.040102267337524485
Ni 4.896336417432831 0.2548870649686459 1.488368584741328 -0.43368596793622083 -0.03213313308911885 0.16221835464469483
Ni 5.793435290427603 5.307296192272319 0.2544849977613198 0.7030198227141956 1.5583811072790064 1.6167418066060866
Ni 8.023875956365973 -0.189114665413444 11.152676935884262 0.252574633041765 0.015820769082340494 0.6456914213063718
Ni 9.09251444891882 4.748286940573045 6.102126916636087 0.10941792301421158 -0.21089705079732063 -1.191412181054361
Ni 7.767856945430756 -0.08677135557025836 2.3474893122224763 -0.2189579734285842 -0.7079905364559097 -0.3934718576111804
P 8.683990621799392 1.4813641031001852 3.4817036985107266 0.0307449944923406 0.8910003739246591 0.6068914177200387
P 1.9227143632501786 3.3920436168337784 1.6493883512644736 -0.06041809607674111 -0.20996605434261906 -0.1344496691718588
P 4.575733097428925 1.1535978290198163 8.279133394054881 1.2913830997230598 -0.3588663517221691 0.1368161125215063
P 8.402199465097281 1.810706045966021 12.24539418303801 0.22788741470773013 -0.6448462996972572 -0.1396785216709659
P 6.355695490942871 7.483321951705676 1.2911165861633969 -0.3730554987383575 0.043702840204589255 0.48341007463422553
P 1.8871984266030393 3.214626933817268 5.922154752405445 -1.5913110252378078 -0.8217423109587848 0.45152762410333214
P 6.957546633584934 3.8325607647523756 6.0123599792598945 0.31087593988581946 0.8192447413479116 -1.3971634259846841
P 2.366600182365292 8.52425946256459 10.079879221071849 0.021797812601381816 -0.3209868030675762 0.3292230749344395
