# total energy = -340860.20932335785 ev
CRYSTAL
PRIMVEC
9.35262320370642 0.00000000000000 0.00000000000000

0.00000000000000 9.35262320370642 0.00000000000000

0.00000000000000 0.00000000000000 13.68850943626919

PRIMCOORD
 96 1
Ni 4.555896452575521 8.63000188671024 12.685346894477558 -1.797842857087897 -2.0832170531581866 0.622104120904735
Ni 8.717196390435898 6.556469263841966 8.950273106873436 0.5235737913373048 -0.2275716832395242 -0.603261020056303
Ni 8.959401266868742 3.3479116728687632 5.343186223236292 0.31474262193007735 0.3967183895729361 -0.7803516638271399
Ni 3.7140294507133027 3.760455871017301 8.317603704542996 2.0797936292989343 2.125311154114759 0.38511628655763347
Ni 7.299273283460037 6.914272559887501 7.029953282582119 -0.8154783323269439 0.18643634665179504 -0.3238692668216938
Ni 3.449443747570657 3.7868957360856728 3.3634716316640416 -0.05602665187726479 0.49308102206508625 -0.28143243781372174
Ni 6.288030280045563 1.1782340861154972 3.87507974731902 0.5703832954916758 0.3476200893843884 0.70747914403713
Ni 6.828219076161256 2.1813777180587257 6.063653373472405 0.8729401739888384 -1.0202834112939139 -0.6841507537238347
Ni 3.2189951181809504 5.634665393660193 5.628126039696342 1.1069951509598612 0.6235004870316294 0.6745248005982963
Ni 4.069634880366526 9.197425520844716 9.826638193734308 2.1445283504731583 0.5648924475804336 -1.9481837435687157
Ni 6.305940552987174 5.644981336769643 9.020987353705928 -0.5475485569853473 0.4429735638857339 0.7266251208379615
Ni 7.858700424975674 1.6212397771991915 9.546160513681802 0.19279777009344862 0.8778838911473591 -0.4887751956008808
Ni 4.606185506156221 3.312418468788652 5.918979519645154 -1.0764674146846493 0.35967984876239995 1.234884907526015
Ni 3.394440972025167 4.876036736017471 0.894578384785935 -1.104960894138652 0.6055768126736732 0.8485481182977193
Ni 8.004648106048172 6.562370768920898 0.8918689299184756 -0.183495004635284 0.40756973046514317 0.29953917471676156
Ni 1.1879982244711325 0.993098914899213 7.458020029034151 -2.764583816378981 -0.6573632012173453 -0.35962842669917416
Ni 6.214986294837218 7.683647381295189 2.5212595180151154 -1.9222765367846508 -1.5599032003504878 0.10271300019021021
Ni 1.9983655922511858 7.685115743097713 1.4679287760812985 -0.5094730902698644 -0.9087049902932737 0.6580301453773828
Ni 7.909588046424918 8.868231898391029 3.1283448202767405 1.7041066064750006 1.2436138027585808 -0.25572680551750154
Ni 2.1302562810358303 2.6579219150268147 1.3683897453291998 -0.7989394541316562 1.4898210988214213 -1.7173251620478036
Ni 1.5355416931448944 1.8969363964016985 5.067964717279443 1.1818841869592678 2.7100808002350942 -0.3378820361610181
Ni 1.9207294691763501 9.039478424532486 13.106692846080586 -1.113209250190373 0.949520738758055 1.5559493579090624
Ni 9.081958037953267 0.7300881934606751 5.430505116847134 -2.6073017226936384 -0.6483226882816319 -0.4450774976026141
Ni 1.1446675223622642 5.754902714254108 10.906319950818512 -0.002448718650808686 1.9558122066482513 1.3023861357017827
P 7.670806229990317 5.122581229497262 5.31791730656076 -1.5343274087639125 -0.3062929485008274 0.1227560348840144
P 3.5866467261886354 7.909859272490353 5.099613058066449 0.9350158602736608 0.22733385619710525 -0.19502203143827704
P 7.7863765917341725 4.103126623136191 9.748518540053162 0.2987878983730338 0.37995582540261663 -1.6708478444218706
P 1.7594996022100695 6.70080829376775 7.61809297654201 -0.1477543567005649 -1.2597202214021401 -1.0017192751384811
P 5.088023287711752 2.0745614113923363 9.723276745984174 -0.7526449419404908 -0.5605200295443508 -0.9654842040658468
P 4.857163142912421 5.692025030188077 3.041230749108417 0.04927287809319901 -0.4394413823627593 0.2452729571740292
P 1.9196819754063967 2.164496233641176 12.75930556621002 1.003246767526601 0.44157128422156855 2.6462390231887847
P 2.901342632442639 2.000928210938393 6.741344432140351 1.292455249741316 0.5789633238512029 0.0046058742031275515
Ni 6.270718574972497 4.152181130488017 11.277318862578573 -0.8090145789794713 2.515517967821422 -0.6711767100616699
Ni 8.681562897011597 0.46187273735268214 12.030666094043683 0.5394544671233032 -0.9765620591465632 -1.3785265276097871
Ni 6.61818722266269 8.878931299041264 11.482824981833563 0.013400846786938212 1.6390091026447193 0.7035931787191625
Ni 4.40849911494639 9.298424496038688 3.1622508842429133 -0.5542478233823939 -2.3744230254189045 -1.073731246700409
Ni 2.6744854102642 1.924910091633217 8.861913266328703 1.0742976607268402 -1.8977086176372997 2.284596651383375
Ni 7.249910139550992 5.000557557920659 3.1701351453864004 0.19267641402423594 1.85035841048811 -3.5596671299893408
Ni 6.333147333137118 3.7122898628453447 7.636628004696415 -0.5099168626755025 0.4801167485949344 0.7242921018294107
Ni 0.8672023221606666 4.807612946544456 8.993226898277578 -0.34312477261719615 -1.0838500803019655 -1.3765362366526357
Ni 3.5971497217570056 1.1722671126759423 11.766395574294316 0.16924697935670205 1.788674560325068 -1.2056905453502462
Ni 8.616552814913875 4.1332327163994 0.9184799479867602 -1.1973434589371315 0.49340832349751795 -0.8584934024358892
Ni 0.690028103596027 6.693083027214345 -0.3933273637813688 0.8533987615218012 0.845090755876738 -0.35007369313120357
Ni 5.801750002590676 3.9383614646963183 4.108235961051596 -1.8709133518213261 -2.2048880825081385 1.316644959613642
Ni 5.563127180746156 6.99457418050195 5.172463443979811 -1.0981482420921924 -4.168954301635065 -1.1840716815288896
Ni 3.1071377477466604 6.5781205859619805 9.299876958382203 0.4218010435731767 -0.3972557501336449 0.3897383587106772
Ni 5.070758345753416 0.981090147036535 7.458868311935355 0.6756691986153847 1.115030619669828 1.7608446825969932
Ni 2.530922648042934 8.430473028780046 11.09846491293283 -0.9588813540373486 -1.7129324322967467 -0.02411771898381008
Ni 7.980415459995058 7.073267149969685 4.485314077726566 -0.2234951991773054 0.3010993201150298 1.1794642646638656
Ni 4.117174262801099 0.9639093786847132 5.300272648110817 -0.67751113692013 0.10641898828688769 -0.8633463596528163
Ni 8.499925606777122 5.315170441201517 12.163567801368792 -0.004553680808953448 -1.803868237346371 0.9688122399978154
Ni 9.177972065117014 1.9498348317843357 0.030752359508778176 1.493065059680016 1.9037630513614954 -0.10026068199497572
Ni 6.5803371576001854 1.9434750481810485 11.442101791002043 0.11192423437583304 -0.4018014605227983 -0.12422182079626347
Ni 0.9139467316448288 0.3099347012832634 2.3414469245174065 -1.802397566338115 -0.5566212087105769 -0.9331929481323089
Ni 1.3730211642120644 8.178345019401485 9.034908732961066 1.3121378157719081 0.44473939753690506 0.8156711650640404
Ni 6.612931048567033 8.632891847200558 0.28729854796703336 0.8089775550939488 0.17527930159371102 0.3323047991835567
P 4.723757329210523 2.0118427219163877 2.7780142699650665 -2.173512139300018 -0.29712310907610123 0.9984534599030158
P 4.2375051096244745 5.134936044408943 10.499223655536024 0.14199431428833612 -0.8899210248175512 0.6747402590432121
P 1.7992482497306155 4.327598926463397 4.732897647615659 -1.7395731748127266 -0.8119001280573823 -0.8413618849619252
P 6.467263946182914 8.299433428683487 9.483221102304325 -0.015582170708973166 -0.903484879544915 -1.5188642801313068
P 1.07185735272757 5.330948316111438 1.2259249810417956 0.6294451346508385 -0.11360419318141725 0.7862837130408586
P 6.447988190291186 6.546630304502762 12.927797744893878 0.5389962965399621 0.9261540390076565 -0.910968846626786
P 4.798241618352553 5.442506402611454 7.037057534971909 1.7146715264750405 -0.6127936421370866 1.267421703811456
P 8.776660367126635 9.27670770555805 0.4067857882006784 -0.13569279755034053 -1.6124452361132617 1.7019430231647785
Ni 3.1677240391909187 8.960261708179774 7.36091361551031 -0.5676936644746545 -0.6693319435434473 0.07782857824370466
Ni 7.606142194941597 1.4151266727150051 1.8161362809842272 -0.2800661535938145 0.09164877195624861 -1.7822468024218532
Ni 2.601796824727804 1.4219353822197012 3.1428675731873055 1.3819229548858458 0.25736254134871156 0.7238403590039727
Ni 9.565395118032567 7.794129916156415 6.540301384555196 -0.58648740014239 2.284430043898524 0.40390950800473663
Ni 4.726432179373082 3.6309501010838887 13.182526718713724 -0.007324044465239 -0.44647206395729555 -1.1671931606059964
Ni 1.9968504673339322 6.470677653558209 3.8222832555264943 1.0062786123743894 0.9446217587945409 -0.6213119640207428
Ni 5.144990114075905 7.159124228614065 10.972120329555171 -0.8868647544897307 -1.4556074290541898 -0.7123629544919925
Ni 0.36055109666707397 3.384096971046879 2.7161700507345703 1.1231015696034206 -2.1048318032144846 0.9404362599582837
Ni 1.8168218282461697 8.983409449971152 5.380542469807249 0.0028801497612724594 -0.5297590942124103 -1.1368135198728744
Ni 8.777548866306507 3.2603804747170484 7.66021251397937 -0.1412533223572535 -0.3808965920493311 0.9291743138912191
Ni 8.754345008777454 8.923646189346142 8.79672829018189 -3.2809394927012914 1.0984737437524112 -0.4989943022257277
Ni 7.595526967897875 6.86794901843591 10.899858223625111 -0.1027417965456166 0.40110109202166405 -0.2363077775609414
Ni 4.922734382386904 7.533107562356199 8.008352679997087 1.1677518613229436 -0.006565826142975789 -0.32636195133656054
Ni 3.2312002911254942 6.15268847339384 12.264424616693983 0.15122457463735245 -0.2747691668609332 0.031017274317120775
Ni 1.175400241362856 1.6328276770292989 10.941512935702054 0.6906880406217202 -3.7392743695344444 2.8085820763368017
Ni 5.692960292482678 5.691604162155507 1.0368523555652407 -0.009194264904758359 -0.6394423550728664 -0.026648712935779913
Ni 3.6996451166223383 1.2604436418109322 0.4980552297439142 0.8360684977734698 -0.6451514896425018 0.7264199468056909
Ni 9.305962710133173 5.627819273663713 6.562558756642113 0.39250152327811116 -1.8449341541487452 0.45457592401135255
Ni 1.6091094252382157 4.264244258627119 12.831991345959532 -0.400847067029329 0.4652593718671278 0.8261934047516029
Ni 5.726227572301639 3.1241688741313465 1.4973446457710915 1.5785922921195588 1.3722273248646368 -0.9057618485045498
Ni 2.362753134850714 3.7484096926628387 10.521522179163904 1.1557244978447645 -0.19652227013288737 0.3869641383996497
Ni 5.9327241343266115 8.920756228855824 5.737497482951582 1.6984049281045328 2.587097736941938 1.1411229458815058
Ni 1.7710033284336628 4.07152411020162 6.92557801050464 0.10624518171318477 -0.8812116699690115 -0.7421604974693993
Ni -0.02972357098471699 5.379301376742314 3.4516939886514666 2.4217668048101904 1.6722724926835395 0.4995023522103978
P 0.5959276230870336 2.4230962580983753 9.35116767788042 -1.4513759074713455 2.3723098357306434 -5.075177920267382
P 3.981925982378837 8.204354663814343 1.0896179837020445 0.6947490980649712 0.4461324212296897 0.5191365815015575
P 8.17758745694286 2.2123816631247517 3.618584998286968 0.3181968990272649 -0.5648669936591368 1.668520996060907
P 0.3553968661615273 7.793942863697494 11.395820336353708 -0.2033171815675337 0.3880257468949447 -0.5832074438395376
P 7.58377072085474 3.4076468756249345 12.82377880775064 0.04720082605551871 -0.5825734097999645 1.0239935131556495
P 0.4884500859783611 8.015833843091603 3.8631439299153207 -0.09256099935787285 0.5371852114731523 -0.1280054562084118
P 7.618599888705684 0.30771158280899663 7.0042597568248395 -0.02074674562904814 -0.24329603595331642 0.2587933602579672
P 5.575912216313353 1.050972945689128 13.005547969968656 0.1451194901808791 0.7862592875608265 1.5140028382739474
