# total energy = -381161.3223107269 ev
CRYSTAL
PRIMVEC
9.29912476152822 0.00000000000000 0.00000000000000

0.00000000000000 9.29912476152822 0.00000000000000

0.00000000000000 0.00000000000000 13.61020905844053

PRIMCOORD
 96 1
Ni 4.174005120821789 1.5601513504004698 0.7914392056053595 0.414947253876137 -1.3463504570978748 2.7377540977806465
Ni 0.27231370841046454 4.48179684985552 11.587718353383146 -0.013584166442337895 0.748590312255143 0.13835414643258753
Ni 3.4471018407578082 2.1551093498438996 12.49429467168167 0.3081166319731274 2.243502452446226 -0.9689701057319183
Ni 0.749412741355834 2.5252982057339204 4.309060028747965 -0.5368270568027851 0.6534630948319908 0.19846782389503237
Ni 8.282962864242721 6.001757383225753 7.5310867847491485 0.17624706482361904 0.43539472309721144 -1.1717895217274272
Ni 7.888931052576319 6.613872267773484 4.223397421760266 0.004360076740908621 1.2498338155263637 0.5773532990516057
Ni 8.719147608254811 6.362907489890094 9.770196987993678 -1.0605720836106314 -0.4829688733317488 -1.892735075682108
Ni 5.8722856697801324 0.32839672958338306 6.659175743573554 1.014163414439105 0.11899348251778863 -1.157701419065477
Ni 5.43271604437077 3.4207109248087546 3.634483853383392 -1.7664972528970804 1.4813886517833519 0.4522611598352469
Ni 7.162446233124638 7.9688105339020305 13.641376112381032 0.4639758771690138 -0.11182781800728482 -1.6073619080530834
Ni 3.936272997411797 3.871169825262634 0.9927475874082872 0.13924194835417955 -0.46095380251323836 2.7469969565351526
Ni 3.329598100823967 8.689557793402843 7.521613766399148 1.5736490891816706 -0.45123837499768743 2.8899081262108037
Ni 6.343983771089415 6.314524143983496 9.37693049429155 0.8615059640099679 0.18514796685767468 -0.5130260977284455
Ni 7.9371656124874335 0.23492564757016668 12.355660530651623 1.253229471471474 1.768904319676676 -0.3509339842489698
Ni 8.158122114906552 2.651385037782271 12.297925984928828 -0.9967207934826253 1.7009744886039222 -0.8678853851737505
Ni 2.274882076208879 5.616001792558173 1.5739661300812007 -0.431652739556276 -0.4558457918627118 0.6817020350730261
Ni 2.5240056273981493 7.719938059080141 0.9469317298362673 0.6033579506454835 1.73658503871868 -0.3772191431977439
Ni 7.169653054780916 4.744050765146292 5.681554112431204 0.7448483287142076 2.4009377838799812 -0.8154425939930021
Ni 1.7578600410251457 3.240828656268059 2.1664598614744195 0.6919383680890535 0.6273908232249711 1.1529057974490466
Ni 0.8990719246512798 7.965183875262097 8.222893308303291 -0.9032002584249605 1.2197953601827445 0.2547626418320193
Ni 5.885936784865829 2.077573247947068 12.926527287688705 1.0715591787497547 -0.38813476166898314 -0.3872598152631976
Ni 0.6414768708441141 0.8007466995353834 6.364759875533876 0.39256837196030453 1.2194734580669515 -0.4949185894944573
Ni -0.0005532979207077852 5.681263049827538 0.2453127698799246 -0.0443327604791043 -1.6426076186292549 -1.2923110108539677
Ni 0.8670308605237043 4.326222493327095 9.164856515802851 -0.6303560765008821 -1.0320071274887452 1.9826234133038243
P 9.326464144448169 2.389242711988112 9.469602781491508 -1.0072738864081234 -0.12048575079259896 0.39820551564142387
Ni 6.798822559285369 5.10069079632251 13.372683483135669 1.3691553708075324 -0.16681034489075142 0.7377950214118519
P 2.6894277570027003 8.466834457287344 9.75645102183586 -1.3710870406126063 -0.9025510548767359 -0.688532427731298
Ni 5.179751954673058 4.944763073054811 6.893570411122336 0.07988006145609469 0.678015073139742 0.37348410163534385
P 8.121474264393791 3.789597903238286 1.0635585623092225 0.39973480780175674 0.2786191367346428 -0.1724621438598901
P 5.670243587036971 7.818676165333507 4.037264281584281 0.746806737992159 -0.2938606362747455 0.014474025246458943
P 3.246184952105499 1.461952593380735 6.983983011015876 -2.113568154646218 -1.667055210148658 -1.5278250888690204
Ni 8.674549006108348 6.926611131157072 11.811837488118782 -1.5895968707601786 -0.025193725656808226 1.7417244168277748
Ni 7.194723495020045 1.6534587678186532 10.159517863078058 1.6725843674970033 0.7099157785030805 0.7757514460509671
Ni 0.03201874622825287 8.912671692756488 0.934298868907166 -1.0807914959812999 1.1414425340044534 -1.1909352414179426
Ni 3.4527743068356527 0.35605883588135695 2.7590075277910016 0.942822500802273 0.7535869941387859 -0.4356225228373014
Ni 8.571895968348798 2.016636083671469 2.3580915740960275 1.8398953061732573 -0.7973047467417107 -0.9802359084537245
Ni 7.626667838160829 8.86859384159422 2.8424653123081147 0.6922343020629176 0.5810618582514444 0.9408113839095151
Ni 7.152905331164198 8.490249653326709 10.484528781351697 1.0927034169275374 -0.6565545892731208 -0.06132132461730084
Ni 1.9517932870144037 3.8868853460356787 13.619327887675182 -1.5069497880819078 -0.4476712264717193 -1.9722883499264035
Ni 3.9651374805357795 8.750178787438037 5.299108080250681 1.420950758212269 1.5259103883448106 0.5290481841883147
Ni 5.302584093070186 9.026260501184145 12.389550260773094 0.4067660036169253 0.7256992665895825 0.8166870079230645
Ni 4.813784901404909 4.15814081405326 12.754004346449658 0.5044944061083505 1.1228529439277244 -2.8666959497603988
Ni 7.225001445101129 6.886522604498732 1.8161330060691008 -1.305645523179345 -2.272295208308203 1.513770153437851
Ni 4.996084942372226 8.521866677367154 10.102382180987085 -2.084016152020714 -0.9480518675220123 -1.0228923096716707
Ni 7.448208335701953 4.044617099498628 8.615371236229354 0.9853261784924385 -0.3351363550950809 0.3782056754807293
Ni 0.6762369990391679 0.043244649587554355 3.792892583125795 -1.2452333406398748 -1.095473780583823 0.23883979995417576
Ni 3.6505201939592 7.316793105190316 12.00227147347674 -0.8203222906828065 -1.131517818691574 0.09532647791815196
Ni 7.688981272894658 3.0493968748278832 4.137462350418337 0.09108775724645603 -1.9474023853180011 2.0445962554621953
Ni 0.018419706240974467 4.685419783800702 2.9783627209337213 2.307710868803335 -0.2168488975053814 -0.5264179456543192
Ni 2.4537042445317483 1.109618056948848 4.697727175364681 0.2817854502777663 -0.8513657902521725 2.9854708885094774
Ni 4.539497918729332 2.8173186192463 7.616626643290572 -0.22512347880934777 1.6144566101163356 -0.0034573624209811426
Ni 0.34960338350227554 1.820610534620711 13.62572475556854 0.8938072472458348 0.11349055042168842 0.3754309409490696
Ni 2.340766374834336 4.058138026838276 5.7496330044900565 0.31439603722393594 0.5108738272721332 -0.028280077891615817
Ni 1.360759518201876 2.1778643080283024 11.385552592281238 -1.7916277294161207 -0.6240267918487447 -0.5767606597729293
Ni 5.268316818485175 3.938356001348579 9.527391262137668 1.7300523798064849 -2.038355673869122 1.3259464395202263
Ni 1.0948789442711702 8.163543504617017 12.403841155639375 1.2871456646029447 0.6137799173097559 0.4669480724234603
P 2.079200594772679 5.86660390457757 12.68879795401613 -0.6029414319333551 0.5575347216637817 -0.21567621735351888
Ni 8.13946807072269 1.2461199086811101 7.894792290885934 -0.10711987100865424 1.797491901506382 -0.07685644413842249
P 3.1336841412698218 4.055106512180281 8.784368879287891 -0.7444114982871051 1.8389149445378588 -0.20665113103677313
Ni 1.4712703163479486 1.0608255495546675 1.8887842777516843 0.9281222184776209 -0.34274450645964194 0.7930374868249245
P 5.141699936327911 1.536196805127474 10.77684955659246 -0.5748968670913132 -0.3820782710622581 1.8388360116708073
P 2.404325892280348 0.4839562075122589 13.653080920663298 -0.761672856470714 -0.2639018851291261 -0.5219583672210689
P 0.7344913658336876 5.941871020043263 6.268672019825076 0.7077825342101617 -0.016572045426068237 -0.7614964787938499
Ni 8.534764563350713 8.324362567486268 5.9871986735676 0.04438109721853647 -0.2765360289533689 -0.7398537037130934
Ni 1.5540418254608894 1.093251597445559 8.650730228056233 1.1457589019916203 -0.13333869549586716 -1.3416419958786119
Ni 3.219970719526083 5.146563378555308 3.675478114789244 -0.38829905516098934 -1.2517860541567278 -0.19311298734102228
Ni 3.0428502910265673 0.2800701083375631 11.513106826210056 -0.5027977351322179 -1.0171222399571127 -1.2311611788175247
Ni 1.845904153853067 8.073500079974774 6.016569958988701 -1.6355201156548542 -1.5752830252406678 -1.9228745753799656
Ni 1.5358899340117873 6.5162779538604045 10.4089520050329 1.7270686145878127 0.8698137125447148 2.2855343327062956
Ni 3.935770844677037 6.473418288036166 5.460633876598483 0.08902418984920797 -0.7853334333124474 1.2226744815027524
Ni 3.2945125032637907 2.227763411263899 9.74869369199629 0.5818398740680496 -0.7247939811664937 1.014093737543434
Ni 5.536652361341374 1.1014813228207925 8.717951740816105 -0.030270368848767226 -0.476294803745683 -0.1596400523945573
Ni 1.8748430299747916 5.996215104893958 8.280533002953966 2.1943146778676663 -0.53478123001735 -3.0713989559318655
Ni 1.0201604771638246 6.799361908519 3.7708992232557783 1.303992560956954 -0.2802834118109431 2.4108324172858735
Ni 5.9984282965767886 6.791625036753808 11.778478738018698 -0.41800918063091236 0.26533450381059465 0.16406569226607876
Ni 6.342319227764934 7.294140437377809 6.167398042261172 -0.7136703604495063 -0.7842049761349591 0.16658125959908082
Ni 4.866092477942409 2.1953931581213135 5.336930410215299 -2.432087470009908 0.11313111019974063 1.8785454144452873
Ni 5.256776604710412 6.878822929232412 0.5133609697823444 -2.16417903482455 -1.5715297288458225 -1.0058350970790677
Ni 5.672903136706256 0.7120879145636171 3.9562837838919833 1.266737790370554 -0.5353905814665747 -1.0109809029460652
Ni 0.1278480862698977 7.031840026463447 1.8607195193534307 0.6660481305858529 0.09471584091734656 1.3923778316705828
Ni 7.697806142251829 8.41776297615163 8.16405681630144 -0.8391705337375612 -1.8881934790580126 0.689615890603464
Ni 4.113067956546191 5.700605229240516 9.902434261130368 -1.9156186651485008 2.583649373382021 0.4611839162461735
Ni 6.384444262736467 2.4307168082294015 1.9615034330447074 -0.9995721468884915 0.2467685678829492 -1.5897868752837974
Ni 5.144182802627557 5.290234855444977 2.295511254482798 -0.5491374987390221 1.4720012970311809 -0.37653728663937086
Ni 2.7480680374730078 4.052409766012126 11.33213191051502 0.21665760743018173 2.0229025725388454 -0.9389241941891314
Ni 6.648920668834789 2.9269460005441834 6.644816965096834 0.5715906855362156 -1.6593670974757808 0.9046529317110872
Ni 9.788258677933019 3.475129402657191 7.111089027133294 -1.0245360159226808 -0.4771453246714364 -0.9170366500874205
Ni 9.254749294624666 0.15538837403406874 9.946599524064982 -0.5370232319739913 -0.40824310238308403 1.4358500439216046
P 3.308079926227028 2.542185416221405 3.590277674300019 0.9882860324517109 1.994048367311314 -1.1561579858377573
Ni 7.219245286900826 4.861945068318281 3.0399489641146205 -2.369305758796997 -0.006464781788737254 -1.408322527925297
P 4.806131721762178 6.893785220903316 7.982618804195459 -0.27188336067270596 0.21633981907944677 -1.0490036620467418
Ni 3.4931139098613735 7.580553478685368 3.493182723384285 -0.28698087843577674 -2.101039426051588 -1.9184255384696765
P 7.776058276751931 1.3717138871194183 5.609774168734677 0.5939567119362416 -1.022079326852072 0.16991855150242993
P 7.188455884960263 0.7337204683945838 0.9585137896722598 0.6530262644048883 -0.6000052321231667 -1.0466341333733007
P 6.731785169194907 4.92752249582805 11.140649913801367 0.5495321630742794 -1.2758924602866284 -0.5716827310293896
Ni 5.474645797723231 8.779182757432785 1.6027106544963239 -0.6070857931190318 1.0675739688497614 0.9895253041754506
