# total energy = -340857.3547787129 ev
CRYSTAL
PRIMVEC
9.35263137800649 0.00000000000000 0.00000000000000

0.00000000000000 9.35263137800649 0.00000000000000

0.00000000000000 0.00000000000000 13.68852140017571

PRIMCOORD
 96 1
Ni 2.0193360009790258 2.3644574527444617 8.00347317996488 1.1858205458991964 -0.9461423092041253 2.116124859629801
Ni 6.468971979848951 0.4341341859740579 6.417001277614047 0.09745355156348377 1.2395046656862136 0.20786983393522263
Ni 3.3187625515856323 6.203301131935643 12.990379487714025 -0.5720992497415179 -0.6821596914357348 -1.1906791595430783
Ni 4.240286677324776 0.6415577807113013 4.602081065109894 -0.8329669760300106 -1.1611281853588389 -0.3656432654346864
Ni 0.8658862567272639 8.858550600568318 13.456665214696024 -0.7973569401358849 -1.0230918272769862 -0.1351315257302318
Ni 5.801493381176947 7.887738107283474 8.699301474975504 -0.1703031885353583 0.8752040303223507 -0.6077699636702502
Ni 0.8133188566082208 6.58493525673683 3.7727346040494782 -1.7218248496903703 -1.8287148640764055 1.4020752614640046
Ni 5.5492622646038985 9.288930640293259 12.391944819921074 -0.35955000805275494 -0.48486017681719074 1.6385941265944877
Ni 5.650233273336986 6.900249872189526 12.825227916436562 -0.7026012471195384 -0.36213628072269244 0.30952456806424755
Ni 5.536739091142098 2.6363571531787255 4.421337722004076 -2.0779285510657375 -2.415423379090666 2.246186427036293
Ni 1.7986232522672698 6.835707362809474 1.3819794222983752 -0.6785233802347282 -0.14770370596828755 -0.9796404409615711
Ni 7.355461148315574 5.2755107431498915 13.821574028741617 0.07350886782242824 1.3827693620465413 -0.9281345597727951
Ni 6.191844158454907 2.4876035505574077 11.867291190817784 -0.5821589479703652 -0.29820837172048 0.4949083050818122
Ni 6.416428896571581 5.596502405870185 7.3943886707821225 -0.026065072518168014 1.4246552036470497 -0.43415288027031035
Ni 0.19442998391537614 3.487334380170771 7.524497802681931 -1.4189185582735884 1.311198077566458 -0.19710848165366052
Ni 5.971542925525316 5.035943089509838 5.117974084368769 -1.6046805045661783 0.7478392930217315 -0.16183526027366324
Ni 3.9137208462824273 4.049034717563486 3.8685541834003696 0.8753665240421441 0.552714674567319 -1.426373729000053
Ni 0.6107062554697457 6.411284949294515 7.143053536298424 0.09120757065377194 -0.17923571513829775 -0.2562870488963457
Ni 3.3444448774453077 2.0242835429964217 6.218284982722164 -0.337196065837587 -0.13008676421747276 -0.9905604303081844
Ni 2.289262296185179 5.6818171096181675 10.02095548939788 0.044462858299065364 -0.4626157635966936 2.669469711581951
Ni 1.6873830542428774 0.25198327184060754 4.845202718686829 1.445630520347136 0.012959131263829296 3.279728760222642
Ni 8.744841307850935 5.373011925628813 1.9055247645792426 -1.1373197700853317 0.6411770783757861 2.223817058202157
Ni 2.336006747986584 4.803642430477565 7.956740886584312 -0.7170865852199069 0.6774538013196332 -2.3635238620078978
Ni 5.389126509553147 2.3297778954656283 8.279187818752444 0.2759719289197828 0.7085721199909926 0.3256988638312649
P 7.7533407938808745 5.571381237895279 4.0240968611642725 1.998126908256062 -0.13218915527245623 0.7538099087828696
P 2.1690996877929316 7.189264888109297 5.66786953039219 -0.3674324961246253 -0.7173586079343711 -0.567194613351049
P 1.1658896792939888 7.313056317489729 9.23632957070113 -0.4413272865315625 0.4871577146021158 -0.8570237598688982
P 7.660403695531422 0.5302072216362375 8.233974392713321 0.5788383682375644 -1.5214109578125603 -0.3112672617869672
P 0.6387005518146768 3.3152179042801633 0.5007454974226309 1.7823416761285047 2.0238304836697534 0.30521308517308726
P 6.1959499636451465 7.310474991219784 1.2607440670830745 -1.046386793249185 0.061226965131281647 -1.309090801415468
P 3.622975593551279 3.873083662793611 9.15900294944286 1.4948810298428319 -1.379370106557005 1.2424444650408282
P 3.480656601341999 2.7992706397590923 12.52873453643908 1.1668350059356292 -0.149176176748756 -0.21707978256926486
Ni 7.325747838316961 7.379244889998441 3.019345539008493 -0.7459222785046766 0.21189463882389958 1.2691150323534788
Ni 3.8226355689527187 6.913016214068061 8.678755614287763 -1.5390880633773492 -0.9396854978351882 -0.43718266823556967
Ni 3.444555444088413 8.761629281236994 6.679971085575326 0.5973228001949972 -1.2122946809303252 -1.7905368103447874
Ni 6.747521401217748 5.889623226980196 10.942329973034418 0.02169676824714328 0.21442820387903072 0.7289591682877768
Ni 4.17871830473401 2.126217872765032 10.484462549587121 -0.23562437834067163 0.2910758744407567 -0.1478829118586292
Ni 4.599250023581225 8.29584953161443 2.691834156930305 0.73708719671155 -0.4661780270266552 0.8314130012793295
Ni 0.16145447607996316 0.33312763724160205 9.743078522227666 -1.3986875759386943 -0.6144193506659676 -1.2067166726219154
Ni 9.090514564869729 6.258116904646334 10.524269219406479 -0.03271934460989204 -0.5514059830582245 -0.02755656946202996
Ni 9.304811408432272 8.781372686149512 6.814885599495055 0.5202740375401104 1.851258039484244 -0.18021684810464447
Ni 1.624000271158019 4.6390828807685365 12.271390336272628 -1.6892299464734843 1.395773487615693 1.6552127089877753
Ni 3.6758740768223372 8.805680175191497 10.005474078620194 1.1671360821158157 -0.10662004855410023 2.1574735977799167
Ni 3.0761552927364026 2.0289130955457804 2.0282004250321215 0.6256342455451805 -0.8409191409975517 0.8640652400967118
Ni 1.3572164601065826 4.669581811805828 2.4770201128506306 2.7154263808177235 -1.742694751160844 -0.08680249960754083
Ni 4.520566335504951 3.9882332607485727 6.647529612993585 0.16883303174773504 -0.3718763908285918 0.7750875872147233
Ni 4.526944830128511 4.579703023928376 11.570236652935531 -0.47144673162476225 -0.2661480008508255 -1.0018280328022036
Ni 7.998669668471242 7.531047450460347 8.188925572987065 0.5459799269466468 -0.44605863056896083 1.9004185603692947
Ni 8.487307249266802 1.3728260019346228 5.011203508896577 -1.0485514050006715 0.9764959817953182 0.43709885027251166
Ni 7.444170857266419 3.4079211868442947 4.239540337338031 1.983432539468681 0.942506512223751 -0.278539689646959
Ni 5.796807712839112 0.5033820042179121 10.344415311548023 1.6104192068221683 0.5057619599668645 -2.3824389537448454
Ni 8.156803960399646 3.746692201880408 12.198635281248956 0.9574754748287574 -0.15626959326042764 -0.6937525384796568
Ni 1.9165131712261954 1.5053340837918272 -0.1374818112425559 1.4962658260055004 1.5714698221421646 -0.3359038293887247
Ni 5.534363522763235 5.0739334783088195 9.193169982520269 -2.905236271927442 -1.0350749677807916 1.5639642577937387
Ni 8.048070267593896 4.947869359495066 6.131184861637468 2.2844711815491046 -1.1542278586945798 -0.04169506574594109
Ni 5.299444126935365 4.473868646860609 0.08535211427363401 -1.1235617970692908 -0.6402705074011167 0.4510959358825521
P 4.411477242705513 6.675936360383823 10.771497613436795 0.15787499007433456 -0.28737168611629216 0.5289857063814954
P 7.027455012035646 3.195897032715072 0.8196346886013158 -0.5347845724514596 0.2818307016934049 -3.034356558466587
P 7.081681568967328 8.076876372345462 10.401196072118553 0.8425137391781812 -0.9008186455666615 0.6323921330943044
P 5.450694882143913 8.154503213072084 5.5205674561661455 -2.1313128802241486 -0.39292369841719427 -1.3227125059639606
P 2.404589594136985 2.750010330107632 3.9708214668472768 -1.6920152225281053 -0.8521085819554679 1.1787656959349442
P 6.519569715792449 2.9409910635579504 6.520746276824185 0.6252470374090909 0.8358792645807992 -0.9202279033312086
P 4.169066389115953 0.6439052911959257 8.135471543410084 -0.04618961118218497 0.345065955503967 1.5313102192041432
P -0.0445606123665055 6.30703116693552 13.765314209740783 1.0326733003178346 1.334649623721179 -1.6151826896490828
Ni 7.775936751374311 4.523082193355005 9.12472742584106 1.111349057053183 0.2996664443232452 -0.19686834061839642
Ni 1.9490135653858358 0.8070553993510378 11.155378240303346 -0.18414780772793446 -0.541435502109074 0.413955579386829
Ni 6.313185198405172 0.18626513669196146 3.6823358098654726 -0.8837724887176521 0.5818738126297786 1.6183335765732385
Ni 5.127374414201822 1.6070158925122906 0.4476917604701197 -0.6540328512925317 1.1111125155623445 -0.09897693018654567
Ni 1.406121369764355 7.743595351948689 11.508309139298511 0.625884928103406 -0.5088897069625687 -0.832675670041837
Ni 2.0465334531275827 3.0479196985010204 10.830166670289579 0.22596577220498504 0.1703119302861067 -2.1470200065467604
Ni 6.97702562345758 0.2350531384570734 0.703847241183998 0.19706091624517674 -1.5451800352077 0.8093467655079094
Ni 8.473427944250139 2.903552480012327 2.2420015791297847 1.4485998873881052 -0.1351816622418769 0.7401087571466931
Ni 7.833249676672232 7.715584220867215 12.453365420935517 1.1479998755069973 0.6116482156787337 0.11850188759335077
Ni 7.30030868087402 7.287570396889723 5.941968034471614 1.0220227625825238 0.012843945842203686 -1.1668170082135
Ni 0.8127128060926684 1.4177653958733485 3.2670939393453637 -0.48376514398079906 0.14138650550100812 -2.4624923075540104
Ni 7.510228492935352 2.1954928136399836 9.438673751318056 0.7921903083332809 0.3634048630224709 1.4451049868609693
Ni 8.987167987757777 8.628775152017512 4.422884647239761 -0.25564530154728876 -1.866817841595714 -0.8055129935841159
Ni 9.06732003896587 8.000278321074251 1.723193344659524 0.8495547051853627 0.5827389888435514 -0.5188812709576419
Ni 2.3508213161445326 7.99603222641282 3.3637346797343026 1.2940138524776876 1.6727463469961643 -0.6200827195993321
Ni 3.780670311803278 7.98795155287212 0.6060617387101263 0.38624885750017995 1.6873666680125003 -0.4303985554342007
Ni 3.96242935068053 6.24374191016479 4.241566117302054 -0.39102802405637815 1.9122430638080483 -1.3203139238247972
Ni 6.08650547085202 5.232974975484267 2.6892603127654895 -0.9592459364656188 -0.2294125931030049 -1.5932216119969593
Ni 2.410771683500876 4.702409548064917 5.60549028465793 -0.8628385667784623 0.4938819206998268 -0.5713387174264096
Ni 2.098973657459411 9.189306410483622 8.535121642101837 -1.5835306099614403 0.26661079941985694 -0.9478878311403224
Ni 8.887805631627701 1.6089144766890981 0.2577426222646382 -1.5269298307482606 -1.1579873257370121 -1.1086753668757614
Ni 4.272188503073995 6.289279872513937 6.483239419069247 -0.17366284903621057 1.3126628350374425 0.15057871352323746
Ni 0.36526047298671754 3.6559529719129746 4.464374790713429 0.7295024423857566 0.09937030897022242 0.7587780514214222
Ni 3.0307482672270347 3.92211015665975 0.6374248528899644 -2.116407938087858 -2.265666390137776 -0.9656001608184208
P 3.365067429710633 9.087241143875232 12.362651443072897 -0.16645887508860363 -0.8013580908754779 -0.023492683805301475
P 8.054205593800722 0.3185431438164097 2.7402779818594243 2.326278604503194 1.0014094572075463 -1.2781596590542503
P 9.0607170811884 0.7810691129704447 11.768884673618098 0.4945182687322451 -0.28753700804956284 1.5563910734321713
P 2.061151616025861 0.037248725127942375 1.5349351622134852 0.3023038819460923 -0.6560213424774702 1.0483038077662397
P 9.464488884543794 3.5889787783655835 10.178496824494708 -1.3701215913755436 0.8381163814414341 -0.15054220385834718
P 3.606917125415422 5.630948147363697 1.4552133320503846 1.2808120090754327 1.963647386421954 1.6316477771836417
P 5.6874848042543515 2.613209390431931 2.394833864310245 -1.4068816817137126 -0.48889423767724843 -0.2799303993468985
P 0.7145363636257397 1.7123171695895252 6.369392642670096 0.7700495105701834 -0.5446344686623459 0.3090448002143516
