# total energy = -340866.6757281823 ev
CRYSTAL
PRIMVEC
9.27553531524469 0.00000000000000 0.00000000000000

0.00000000000000 9.27553531524469 0.00000000000000

0.00000000000000 0.00000000000000 13.57568351933881

PRIMCOORD
 96 1
Ni 6.760937502452458 6.749139021860992 0.6662459146760953 -0.4404572252217834 -0.35849097066062136 0.9696524765109236
Ni 3.4326436359172634 4.626748192445212 3.9279201057772597 -0.010252530965943633 0.05218079576861336 -1.819516485406589
Ni 8.931171541688034 3.1217555274391473 1.5764625177209737 0.21543941875236444 0.21554817641608687 -0.9021209093178528
Ni 8.573330674755514 2.516758753399551 12.771282939748916 0.013445326871628456 -1.3173818377796667 -0.2463430503097564
Ni 5.487239579607395 2.0720153985256444 5.858355592312325 -1.41881751391935 0.7468422192157848 -0.814606728355268
Ni 5.087028068538227 5.272130646119433 2.3241429924228356 0.16723431980204748 -0.12816717859725668 0.09689176552274281
Ni 0.03591023397001604 6.9915736816244705 10.690184937296259 0.7108976828003757 0.35945024925009705 -1.152946163768679
Ni 4.206696311890867 3.076574396180475 0.9737855549989293 0.8349109871302589 1.6545120833763245 2.110298739866327
Ni 0.3521753701202022 0.4217650718792221 0.4330645286846653 -0.45076066403032045 0.7705812147039374 -0.9354256941175697
Ni 8.712417322922992 3.6207422113216166 8.151220552972202 -0.6261487232877538 1.852725882279022 -0.0056628547127321825
Ni 3.120809422863416 2.08067874826812 12.805507808999225 -2.076374833425372 -0.0908293613787468 -0.9683980352785323
Ni 7.552391082191463 0.24412280714370452 6.0437995095835975 -0.9610233400810158 -0.3883705318288731 0.17470954513317008
Ni 6.430709903382198 1.2998920338437265 3.959361386957206 0.4080798373323423 0.5283812400282771 -0.12714799330412294
Ni 5.040557637906746 7.138117859977121 8.12742231267855 -0.4202316422035279 -0.8118726172535565 -0.47452382788818925
Ni 7.249962261684586 7.666591469803199 9.231111736139336 -0.7922620421114807 -0.5681232958129055 0.8443644192336749
Ni 1.140696025674442 0.483948258895879 2.6933881297069333 -1.2699118172231612 0.672966454972241 -0.5718310836817958
Ni 5.382592993103528 1.891893783269609 12.846709735718793 0.20230622380451613 -0.9973113758787728 -1.0341475708705157
Ni 5.555442588875515 1.2838175315913598 1.771178259834409 -0.5857746903460815 -0.43283339012793837 -0.574176958206153
Ni 3.11061560983667 1.3848559349583711 3.855276897877744 1.7414883895575684 -0.5477233920003148 1.2178022410121156
Ni 7.852398988048675 4.66355351554815 12.536980141569193 -0.5197824426156725 0.8812147552928049 1.1728961245280447
Ni 1.7656908532951705 2.9436003256150225 2.9735630865070135 -0.4653244207771083 0.6799048339632872 -0.8251927314012305
Ni 1.6553676393369192 4.478617897597955 7.73984964567694 0.04355834420692498 2.2074895246867277 -0.4208350801154817
Ni 6.580537621144737 5.130585981162067 8.24535424804339 0.1349068113139354 -0.3319787833027057 -0.39699966825878075
Ni 0.5891049998278362 1.8596520234143137 9.390585082806801 -0.791262911423005 -0.35661817911794064 -0.32578371023558733
P 0.3788378956392029 7.103130541745195 4.297328492478346 -1.6373785090198318 -0.22740096198961482 -0.7206023116826492
P 0.400042696331145 4.123717375278246 5.93642869843373 0.059006817551511284 -0.05602690898758093 0.0838930392702297
P 7.577128934186305 2.04628506427979 10.872343460050631 0.04597543828884985 0.5278665051753877 -0.16497123479948364
P 2.3903053839785953 6.088748752465865 11.93958281340113 -0.30542057319820304 1.4981419599822907 -1.1992424757320572
P 5.343747052288228 8.802844514185729 9.398485983567658 -1.728514345895404 -0.8798908942750588 1.1601390819726922
P 1.4154188229684974 9.112953477719126 10.129971374061421 -1.0086255153400112 -0.33800390645086303 0.3020678546758862
P 2.4881993809615603 0.9296590520761455 6.137552907717482 0.7333812086148724 -1.2003549920699457 -1.0357323988591323
P 7.524471721672349 6.7841356156279735 7.315338087867581 1.1240114830121997 0.22261562478582952 -0.5570726944256987
Ni 6.038271290690113 3.584085296779578 10.57006768587218 -0.5701336413747149 -0.5629265821033145 -0.27960284080415077
Ni 8.30193779454663 0.03535462942015062 10.913857972301594 2.3086693760618626 0.09288778656967228 0.3793539301525596
Ni 9.115856720191712 8.722601860414683 8.472556624137605 0.2790207430484356 1.6672863523228574 1.7661465544258808
Ni 2.891601676090055 2.845715604167114 8.643651288676962 0.06475143334477235 -0.5625452875044957 1.0464436146290494
Ni 0.3556583335337993 7.398621262030046 12.905003690886392 0.09629629803058899 -0.2697200344728 1.3361539761808472
Ni 1.1913589981513186 2.199841547134915 7.1511267978934185 -1.9817170994394708 -0.9621476834934463 0.7746247886456917
Ni 6.399581207733645 2.7400672598771787 7.819621102267133 -0.8439892952824433 1.2514464114291222 0.6037094204476313
Ni 5.822568722958556 4.479183705236383 4.959318791670664 -1.233407294539224 0.33613625711450495 0.2882384049919616
Ni 8.756290603738742 7.481674402923116 2.1419844696684622 0.14805157622600956 -0.11164218435904 0.25150633967825076
Ni 4.743276739356051 7.756944456785487 12.118184168461458 -0.641594882639495 -0.612366839012313 1.736158235593907
Ni 3.7138129300753664 8.100760714713056 6.267634866452417 -1.6032951941828775 0.17327204135569513 -0.0009834469591918549
Ni 2.9332581040273777 1.112600429989261 1.3627950023807434 -0.2678277025460936 0.06038415751501213 0.2633143880567723
Ni 1.881922583084211 3.6069123885528467 10.971989605605708 -0.42457449255325597 1.2351211919065375 -0.4852604975794029
Ni 1.2124237382639123 1.4908381985103287 11.52073211463656 -0.3057208780474412 -1.1299391613505445 1.5219323775336693
Ni 3.828412165694519 0.5958668648837941 11.110379661090466 -1.3611098747952366 0.8893762080576748 -0.4343210304170584
Ni 4.280585224148429 4.7425068699463875 8.669512407967106 -0.6928392826367681 0.37618273151342957 0.13761315450150494
Ni 2.1824962965798513 8.910709711354091 12.73878332001906 1.4146392141719444 0.2204893224714461 -1.7705387699563053
Ni 6.351329874371376 8.426508230351178 3.1558301330215444 -0.36218950255813104 -1.9195627373979134 0.2919469641918004
Ni 3.759587695577634 6.449706199177262 0.7036049872218874 2.215792645235784 0.5601963276563449 -3.201474150185112
Ni 7.663409961278928 3.2091310676683995 5.595136313594948 1.245551643211242 -1.4579815857133214 0.08060202722378376
Ni 8.09382261449103 5.532596946032133 5.160158242028192 0.3937760191151605 0.924339611506737 0.013652043565795843
Ni 5.997848508915262 0.2003302234829434 11.392780746304032 2.2363218755373873 0.2985266742918472 -0.5289962479044568
Ni 1.4320869594644599 5.409872341703764 0.22933296649661927 1.3629178745382529 -0.9844162650836595 0.3031060661324135
Ni 8.655660323914203 8.96287532051007 4.12593515571018 -0.4344331305148905 -1.0231422208989476 -0.5356317509431033
P 4.3910753977376915 3.630175430473756 6.924223094028013 0.12382638513005771 -0.551604729332592 -0.6306319558700881
P 6.5350689482993225 3.120392023785888 0.3772100392368426 1.8075996793643447 1.1442275529487584 1.407468407455118
P 5.404140061039042 9.088827811037993 5.236643376547979 0.37932513379715316 -0.8594989608822681 -2.5329647025429605
P 4.733222059355148 2.94883172738671 3.2773461351320927 -0.1370102308101834 -0.08696730732017927 0.06684405420774295
P 7.118963880086101 5.776385833913815 2.760126531989682 0.3263565520199218 0.9503676601393826 0.6782600992710125
P 5.939987721234788 5.902616590493423 12.364012746501993 -0.3102426771771947 -0.71328160965152 -0.3823482368941931
P 8.476957865521763 2.096660495169925 3.417108042251661 0.4076003265927625 0.04522699015859953 -0.01582154041328888
P 0.1945200283237498 4.837117327519463 9.94071242922154 -0.8442878003594686 -0.8557729181809325 -0.007740306067051186
Ni 0.30255218512312393 6.511666773352571 8.244186458179817 -0.5466419860106779 -0.775611063818361 -1.0711148921234843
Ni 1.935015745745808 8.092069538365411 1.2020945024253458 -1.036311154180738 -0.8062935805038822 0.8429302578903095
Ni 7.252169839027958 5.569699086256869 10.380958077146705 1.764930936851225 -0.05254563530719983 0.587249475119395
Ni 3.80327546569226 8.39556504540375 2.649946161271296 -0.004109394182683245 2.212099512654913 -1.9992630787430343
Ni 4.691194610015578 1.5290719540119189 9.011823246555059 0.2932356010962369 1.379672211178456 1.0339195140201096
Ni 2.448249651474576 3.3497852812603726 5.670087274616442 1.164890994835381 -0.20747722648249428 -1.2354250963002014
Ni 1.7941481948475426 5.823106703991814 5.084039491143124 -0.15909266453151957 -0.27960464057636364 0.9977101539790881
Ni 7.0013408200386325 0.808531694884451 9.03294735009201 1.303599953504226 0.800200580232267 0.36151201687513224
Ni 7.818274294576974 0.5313555185680351 2.0189482073622047 0.5582266055244838 0.6608987251744296 -1.2816926119081733
Ni 0.5775142912216287 8.98756679482963 6.474528458541116 1.0394144756964099 -0.6561771513290441 -1.2302404667754685
Ni 4.9441013488574885 6.087394524347663 10.364898415750426 -0.16114337641296117 0.0730427268192871 1.007900978469161
Ni 3.213342160583907 7.802849079778541 10.276683439598589 -0.10308683858986117 -0.05782565275921654 -0.5081062918293249
Ni 3.5006704100193162 4.491047114573242 12.777283283376763 0.5922191604198446 -0.013461781931860688 -0.5922142753238382
Ni 4.054317821987878 5.611633780245877 5.941913322312451 -0.44187801682871 0.280043270775679 2.2019302854313954
Ni 0.23673113325743156 4.787567419249329 3.3345001270412866 -0.43962907289353315 0.8861281334340222 -0.2818196459498114
Ni 1.9778223400300967 8.528168094566954 4.396267842262143 0.8748217072822675 -0.6142573711668066 1.1068300861369067
Ni 6.882753104345322 3.5764608069633947 3.1103113722868274 0.6136377353049367 0.049491678972224444 -1.354924314809815
Ni 2.6606037510508513 0.3415001568240401 8.404393499670226 -0.1414510401903564 -0.6080147326912044 -0.9713375775228305
Ni 4.507288576456619 7.140121375549256 4.173965731338111 -0.40849429916194163 -1.909738295108324 0.6049337797730356
Ni 6.256292742185716 6.958840318411197 5.619396475534398 0.12181475401666764 0.7155374955652323 0.6419054719013784
Ni 0.564582340246297 1.4538009870309865 4.8940338657312195 0.8125549880325618 1.9429299513689442 0.22609381314241708
Ni 7.465544247460413 7.474411658974124 12.120356498771615 -0.8219274303863973 0.080376541476539 -0.5983736100570146
Ni 5.415539693623093 0.2209877676065706 7.242993552196875 0.1281342684767922 -0.39874673285687456 1.4869049536158907
Ni 2.0687782367910366 5.8486608030716 9.721967485991556 1.490146343371324 -0.47921480560595536 0.38249993198070903
P 8.78553636577089 5.715788763391767 0.8355735897872496 -1.3536351636847461 -0.0947243255577788 -0.1910519910469355
P 7.566100323004503 0.10997352628663339 13.259750239324168 -0.007406576876716277 -0.18909306754835176 0.4818064775925315
P 4.110861483690375 8.935150746227137 0.34452676391287296 0.31208358704067546 -0.3972508650376384 -0.018585219201355092
P 2.7406701696558304 6.639029145209032 7.700603001747214 0.008514465228914369 -0.4451024373032786 0.3323845033815566
P 1.9090256965183805 3.169719319214674 0.6995441579742899 -0.20995037061333519 0.14153588659467883 0.5179731573210756
P 8.19960081627175 1.6975527727724435 7.395502827144157 1.5812412997066316 -0.7426299809066501 0.36184934560989296
P 3.94668451319592 2.881806711070725 10.885063928826682 0.10511801008727702 -0.27483215888838475 -0.6071863232526382
P 2.7251985771821157 6.480547353239074 2.344927611376733 -0.6522695887445218 -1.6203503498929512 3.764804652595064
