# total energy = -381172.0332472085 ev
CRYSTAL
PRIMVEC
9.19383221140125 0.00000000000000 0.00000000000000

0.00000000000000 9.19383221140125 0.00000000000000

0.00000000000000 0.00000000000000 13.45610276818610

PRIMCOORD
 96 1
Ni 1.1275499701346563 6.645577737744277 2.9804730753591686 -0.0512755103455246 0.08666211737493462 0.07765425744936948
Ni 8.411207244883023 8.055617396422479 4.094395947389312 -0.2926283065295412 -1.1089854419170126 0.6830145832368625
Ni 1.2397974676100236 3.0832435705904855 8.658625221687744 -1.5982067239163766 -0.986190583375263 -0.5357723902860256
Ni 8.912427395580426 2.1736150053750394 0.3730700816450736 -0.042135238607153236 -0.20939244122733616 0.7731620880572362
Ni 5.476756654810298 6.012334156483659 7.335204333810955 -1.8935454873985453 2.375388217545651 -1.4599250825929373
Ni -0.18558761641309815 3.5621962596706123 2.022250509987603 1.0944867340802054 1.3189882630348382 1.932372230457756
Ni 8.659155705806374 7.89435757942535 1.7424978252935477 0.702760655515538 0.31760528818985306 0.6625146635112977
Ni 6.187871994905904 8.526746134290258 6.21700173288616 -0.06775576738873491 0.5558887014199265 0.4898823126221305
Ni 7.609063772057167 7.052487557611776 7.604178169619752 0.7065489189133767 0.0032611872497750284 -0.43615474119168757
Ni 1.0052168387228093 8.82504921423831 13.019775613789896 0.17600949489151624 0.15712577061313582 0.9595423846601152
Ni 1.796493201874171 1.4287583010616762 6.481441170648037 -2.0879787362128877 0.5675859352521967 -1.384888208161757
Ni 5.957925057453499 8.661803529483407 12.610480913846624 -0.9610552217602157 -0.0647941136572497 -0.871111348310216
Ni 1.6344886844678765 6.507964457196214 0.31099976223271814 -0.7684338293436314 1.131874173589728 0.014774844316329392
Ni 5.1755023547222185 5.7247326972302846 12.492659195901169 -0.2469724563636392 -1.3526020944345414 2.5763147873938212
Ni 5.9564816257962265 2.7264585239423913 8.492806183296723 2.9124258476973455 -0.7578766226530754 0.3569809617739981
Ni 6.300110298549059 3.8886876291804207 13.129456193311693 0.33148744548858394 0.5211852365004702 0.44974996337761897
Ni 0.6301893901998172 6.922486770135184 11.728580946582339 0.5276160797274785 0.5131847347934968 -0.3190888147139149
Ni 7.5736767118734765 1.0371102426659702 8.10057431655556 -2.075401927989142 -2.1326223430641917 1.0208333702601127
Ni 1.2985736369408474 4.114212333338891 13.007879714290889 -2.4019137746400054 0.1905873927056911 0.5983970070957824
Ni 1.9513724993162254 7.025246232767847 10.058154491381275 0.8114370723780348 -0.002174381943499481 -0.9144313512540897
Ni 4.633222549366366 4.539519011462447 5.966530484403858 -1.8589530941356565 -0.9976245362438174 -1.0186191362176134
Ni 6.916630299016189 1.6867280390960229 12.390244501976452 0.6026236435826202 1.7285274585215264 1.4321250296615335
Ni 8.501968756479126 2.5261525015412256 6.8904931534209135 2.959200384848723 0.988030207687163 -0.8905010656907374
Ni 2.1098006159920817 5.863338911657235 5.402746305504318 -0.06681705762454944 1.1039689625390279 -0.3166148992521257
P 9.221229831914496 6.836450888296009 5.966166408648267 -0.7446524106533176 0.26376073156557156 -1.8138739424088308
Ni 1.1592503036013668 7.6113254547813005 7.609318441209438 1.476650108657102 -0.7423684997151473 0.7233166252900188
P 4.786005653064102 3.802945949972027 10.07849952268304 -3.156747753812015 0.5181428501297206 -0.23828675566418311
Ni 1.4279216623303914 8.345002459124965 5.029958474508151 0.2487714572455909 -0.042072760800333994 -0.6664492226790135
P 5.8541910486063715 4.670227724019356 4.2684912735375065 0.9926196268300581 0.21624957335848563 -1.0904495878963543
P 3.0061348998290875 0.7474815434098668 12.495781421320338 -0.11605291183222592 1.0038633180646774 -2.8485853562026167
P 4.9532322671667695 0.3067172751884044 4.600910826057563 -0.1577433495924767 -0.14316416622672118 -0.23084649733605406
Ni 3.1479405678657875 8.829839200820722 0.778353512594283 0.28102414663170955 -0.5781400566189592 -0.862515893331721
Ni 4.003242778540981 3.211230908812665 8.008332597973336 -3.2166786258396924 2.34832581411122 0.14512334683562103
Ni 3.833276402439161 8.455677811292095 2.874452560440936 -0.34153403109130853 -0.12811884185782452 2.201502453865357
Ni 8.615963082074758 1.150727621140914 4.569773155122222 -0.02816514958030633 -0.5251470493616957 2.3513718000263957
Ni 9.323189431144721 4.607682083481644 4.5962679407905425 0.39278100219174295 0.4298740503892983 0.13796565274491723
Ni 3.3642438583156995 5.86436862086497 3.2665492778485845 1.2330162297483926 0.6673627356322184 0.8970270397347131
Ni 4.654653372252358 2.411395087872003 11.947067772182582 0.06301233916647858 -1.2106514888999473 -1.0432302498980743
Ni 0.7799826596622357 1.7460650321917737 12.080579684180906 2.257120557450293 0.4089897507411215 -2.6342725948555277
Ni 0.8996265951520952 4.270470705612734 10.774786130804035 -0.36668224822216205 0.2921984180809742 -0.7317889244270881
Ni 2.3378903993376787 2.002278748273643 0.7512409014013222 -1.3253273178789886 0.20777547444920347 0.334836564466475
Ni 3.90020750094196 6.37192332195639 1.0160692382657632 0.5286422069991477 1.2936775521841912 -0.41613998863265755
Ni 4.106195311650094 -0.22453544781246743 10.66112186378481 -0.6444722041872901 1.7385719872417218 0.5351530115344719
Ni 6.331249808250842 1.1599950040105325 10.418212542296814 -1.8801107020498782 -1.3094435567691964 -1.814363994671372
Ni 8.750717080804913 5.542106414172647 0.8978328784875491 0.4741152795958609 0.352212079630445 0.11845817883960888
Ni 7.882488342039757 5.810079041653566 2.975170992322552 -0.8537080652321039 -0.3285221922126729 0.9492183770262879
Ni 7.397863058484873 0.4984160318727678 0.7588248935929375 -0.28762262578483366 -2.094152212013452 0.16315012243034482
Ni 8.333169997068222 0.06649531085595403 11.425038301656711 -0.044290594387259206 -0.6712798112984375 0.2682262235360929
Ni 2.121384844579105 3.728475909055451 6.307467203085039 -0.13951448528927585 -0.16850804430814853 0.6107354740564772
Ni 3.410075111892135 3.9292416230672127 13.079426116564072 2.409689304820366 0.6105125594123937 0.7939970225247164
Ni 2.218315417589409 4.830834778929439 1.5791546859171972 -0.22723229762223449 -2.3854936814107695 1.5806594590612326
Ni -0.02263889243863911 5.0109695334576445 7.1241047523929915 0.793654294473317 -0.34599155264202996 -0.6190072271469662
Ni 5.070591535351966 4.497080281972211 1.790482274374016 0.3787011270599091 -0.18949133142803493 0.48462260688508796
Ni 6.9138537616881885 4.1218616017392105 6.668010688341369 -0.7034170581526143 0.7250881153681448 -0.5434674449374383
Ni 2.035330575075506 5.128144924998603 8.609281924206353 1.558848019613096 1.3516636417806722 -0.4997702611598038
Ni 6.944322121638502 0.3939465164486871 2.9910220784391286 -0.5408983986586814 1.615794612201469 0.5891937433299594
P 5.263275870849447 8.471160224736972 1.1558210041863193 0.7626334206117704 -0.18618643542451807 1.0420092330067796
Ni 6.934788117634738 6.398042999270463 5.333057057337942 0.37020157422933014 -0.9351122766422089 -0.6338021260679535
P 0.9092635700766328 2.5949683356474686 4.420262136308709 0.28998392692815866 1.162201878038992 0.4637563049590401
Ni 9.068575441867727 5.8882174216226995 9.34234294179182 -0.7867033170767805 0.4225566907922787 0.8280782804791416
P 0.8279827382574644 0.9254419566199538 8.390566172184034 -1.8466848182912647 -0.8891792615555203 0.07945634365511477
P 3.6727520920189862 2.9037339966526896 2.2432803495776645 -1.1520349648083192 0.2634681400258172 -0.5626630440292826
P 8.53650998409932 3.4182208472318987 12.12035587986257 -0.8558258829060552 0.3349959728624747 -0.3655208809242092
Ni 8.774961216347755 -0.18808741939152002 6.628529614673708 -0.043984118890433924 0.5922248168467994 -0.8185582568038483
Ni 4.770293393813926 1.7756507842497418 0.7938267322069493 0.7213589873430157 -0.7250251233406934 -0.14586279610480687
Ni 6.923415347188588 2.565961795018852 1.3855610804139564 -0.20807655062939004 0.9521340080111861 1.9436963972213233
Ni 3.2198914987562968 8.943778363423084 6.402373294242278 1.9600406429073014 -0.6846549470537628 -0.12282108379399492
Ni 6.691712387783706 1.6801084799034383 5.730739027814335 -1.1006141871341817 -0.16324782435047372 -0.08712183062017254
Ni 1.6188407820431838 0.2481452089326856 10.41348967068955 -0.13934247848778586 -0.31658276046260964 0.1333898604487767
Ni 8.409920108373353 1.9565118515226905 10.031780144914933 2.0084802264659283 1.568633381134634 -0.1046194731843037
Ni 6.010311513397036 7.575497090651437 3.234873767728846 0.22787790162603339 -1.0117558334388768 0.31893557696550234
Ni 8.712709778440825 8.353414815598875 9.293013435058747 0.31601891753933964 0.5238067332837173 -0.4886422695674423
Ni 2.8767592929429076 1.3499763528377084 8.55409870450395 1.9714429712069725 -1.6099916323664463 0.2693531380516845
Ni 5.490262394329614 2.557852835007936 3.3988365713962803 -1.613059729768809 -0.785804459411595 0.7034139728288209
Ni 7.98807031116148 7.631110581701359 13.045583620191985 -0.10069159888480723 0.3695019770591443 0.4682606205872968
Ni 3.013968044873646 3.6712810788650785 4.122976813586518 -0.11441100535342875 1.0181537665454206 0.2060482073454516
Ni 3.4112978915763206 7.969176985965978 8.579247513136446 1.0308321333440378 0.03749388318039994 -0.18663689269837536
Ni 6.454079406602133 5.642686938571084 9.104869933290734 1.5138555140628056 -1.1496520663984393 3.343794223243983
Ni 5.210705538261672 7.020538990675343 10.923152517507164 1.0394252743296872 0.7349490673226245 -2.746806952011534
Ni 8.126593781098522 5.62741598326708 12.196329112345795 -1.6910639143584294 -3.4347487973466846 -1.257878540207711
Ni 3.2085646974712074 7.4090611461189955 12.289741205768594 -0.020745974298099754 0.16286781530323563 -0.7161057093638764
Ni 7.564997734265421 3.1873453327260894 3.910437478044167 0.6111386230321668 0.6063005782135752 0.10504267676465134
Ni 6.644842231167323 3.6269024507781262 10.810727579070106 2.0139785305763382 0.2243287508221943 -0.1786145366145311
Ni 5.909822927320718 8.349911965526132 9.047883803091572 1.8238397953722911 -2.7027174178914875 1.3706412113244395
Ni 4.299753061207708 2.046289623072118 6.010047650412553 -0.34082389239816147 -0.6909922021257003 -0.5513363061625537
Ni 6.366186370656149 6.5739577848133965 1.1294760779830542 0.601265586892829 -0.42928989575105425 -0.9411001187945276
Ni 2.589222190515017 1.4344492832008566 3.792602888733614 0.3446214117673807 -1.873148411799432 -0.39251515012486593
Ni 3.2937547467468855 5.262457619782586 11.044674752917919 0.039396756630067635 -0.5924562161313152 -0.5106079752052561
P 5.219835013648111 0.5303600018930942 7.891035847847181 -1.721862130686209 3.3195140105403795 -1.9451637257954695
Ni 0.10776642365527624 1.155159048267061 2.5161293856637874 0.7023189399924292 -0.3107892937092841 -1.4962763675284618
P 8.081084311649505 3.961944084245023 8.743816190346644 -0.27729116195183856 -0.6381899707230041 0.07418429662289804
Ni 4.404645492913537 7.1689826055690515 5.079449792688154 -0.4042206114872522 -0.3005161939180502 0.6175887495328848
P 7.6302371676412255 7.117184554887077 10.6964307763947 -1.056468088744587 0.3476270313629239 0.015928498304798377
P 3.2727928093037013 6.306398879782015 7.153681310618747 0.5511470729698831 0.1993700239943276 0.0036134283828711962
P 1.6748863832070662 8.867055833614588 2.2706503880725593 -1.0336372068930004 -0.8208732780902702 1.150867169752463
Ni 2.679569979661584 2.699722859870119 10.539424945562029 0.8823653239574805 0.28166692242203106 0.402874638982319
