# total energy = -340875.23284295 ev
CRYSTAL
PRIMVEC
9.23052214467056 0.00000000000000 0.00000000000000
0.00000000000000 9.23052214467056 0.00000000000000
0.00000000000000 0.00000000000000 13.50980219419998
PRIMCOORD
 96 1
Ni 7.310102813482256 4.454677697799956 10.456897669387853 -0.5068657345540044 -0.5037744972231905 1.284285055225698
Ni 5.429863905546633 5.004364524408339 6.738351346644076 0.3386471964618168 -0.13011376080066625 0.021692397371769093
Ni 1.51308565752547 3.820633128947547 4.790656705636441 1.2327598907632125 -0.6398976974427302 1.724170209994095
Ni 3.9466389872879786 1.5455863261370486 1.4107745496326165 -0.4253373388612094 -0.038144886500837534 -1.0517804534609305
Ni 7.75244789760724 5.544534682644515 7.082527058180386 -0.5672789455347391 -0.6557344073646707 -1.4543432176297857
Ni 2.993532188606594 1.672672155573065 8.637059606418639 -0.52987865050941 -1.6217621426388134 -0.22018181853335628
Ni 7.2661378363175455 3.6677941426168124 8.259095568426016 0.10059106875120095 -0.726420203916007 -0.8512061247458567
Ni 4.273648696717798 8.543983635971365 0.07192145970486698 0.20516606185081437 0.17793859359342903 1.8134931620306445
Ni 5.326131297237369 4.741285411628276 9.161131733965071 -0.5655681334912195 1.0977648906108448 0.15015448150162528
Ni 7.337637461158581 2.7242132428298182 1.9386025766559156 1.14432242665541 0.399567428985957 0.9407895295326443
Ni 0.5941844049031387 4.648426358452337 13.263545936690669 0.5220103035049267 1.2627631219935218 0.9492212052397653
Ni 1.2082568929049728 3.6585174678214027 7.316759866081708 -0.16125881894490293 -1.3437269034320987 -1.4424786049817158
Ni 6.158715167755908 1.8031825087395257 0.23101874007668405 -0.9656209867540274 -1.41299910746536 -0.6581029075968473
Ni 7.162174464953669 8.071796273623935 3.764020490285652 0.2292292734476052 -0.6032767037855867 0.6366444806127551
Ni 1.4654653935757016 7.351852465322691 10.679066184794051 -1.1364188555376171 -0.30583914879286034 1.6960307714454015
Ni 8.676737006028656 3.428354397151221 4.0721380899604815 -0.7644483623333221 0.16336609509589284 -0.2447739060504236
Ni 3.9220581067106894 6.240977581464055 1.9519637575179603 0.803771328302661 0.6774995669559042 1.007284942151717
Ni 2.138970444766792 3.4019920257923264 11.998527793716631 0.21054069589916644 -0.3251825863164787 -0.2805153253160911
Ni 3.1994189859315756 3.620284644933258 2.8642938013971553 0.978087237541838 0.0845692394016479 0.6552764938916457
Ni 1.6278302788008272 0.6497503023493132 1.9158382628445338 0.07557166388872792 0.03400026820484467 0.5458248894260213
Ni 9.239198875340367 8.135200730509176 1.4403611423905525 0.40679839951675745 1.5021922187922647 1.0115671144668386
Ni 7.315964195069405 8.927973358846023 8.23644017477641 1.2858436579620693 -1.1376874378373953 0.6771450118299628
Ni 5.82662867112462 6.7576745217850815 10.502087536846444 -0.731177001874702 0.4339865298957752 1.0038975137367228
Ni 6.468962248898698 1.6564633586171058 7.221570106054187 0.7464771225668821 -0.7822378251062593 -1.2700599127652514
P 0.33755373492115864 6.903073707235119 12.81768125445674 2.1571720073790974 0.32046538334646746 0.3149192567172576
P 2.8429916022997967 5.115435397854269 10.523109128069397 -0.6734559930141499 0.9693611705227497 0.7418933598509416
P 5.331475769582187 3.1211626188514954 2.522617715268405 -0.5054398007407553 -0.5567831882097379 0.30143227797441635
P 5.5604665639349395 6.455448764420609 3.501349366586144 -0.10560189170223103 0.8156089443675374 0.7259265521090401
P 3.5672645255055646 4.002252883449512 6.013199677726345 -1.1259058718214352 0.15537099270555824 0.6642262468857657
P 8.393544585408597 8.452776846266449 10.521460556807249 0.24161453448583553 -0.24464123712730126 -0.5966743679777208
P 8.86222434932592 3.356531704033728 11.784316911485679 0.05715279506190802 -1.0162889454225401 -1.441667164824014
P 2.4824658668181048 4.916776099399742 1.222026062847572 -0.9448672991464437 -0.5094334952811806 -1.7241067037460116
Ni 4.086730622481937 6.864443971893041 7.045537586630491 -1.1539283251762902 -0.7150826674160008 -0.536522895298805
Ni 3.9965668817838687 7.862383416824479 4.702451681745921 0.9528343765123204 0.9372270089923666 -0.4727500238172181
Ni 2.4580603661623215 0.7216680698453063 10.989711101442994 -0.37734615569391144 1.1912751412558646 -0.4191330098227104
Ni 5.166637104411619 0.390739080695954 10.191024477542546 0.199058920511812 0.7044961501494061 0.3218656061281038
Ni 6.903147551412595 2.0573357065671893 11.501502942275183 -1.2364591939916705 -0.011784908450070027 -1.1067611805721842
Ni 5.9964148961860735 0.6984625370735061 2.3606082051473822 -0.19769777849822726 -0.8706794029791198 0.609615501519421
Ni 6.5835868733856575 2.183516944829126 4.301737175725192 -1.1312360257850969 0.27096676239570755 0.5802763862356717
Ni 7.375196455927258 5.497837470913195 4.4013446636702085 -1.3037277373313416 0.18822866266552743 -0.23501245578828556
Ni 2.9676313433569237 4.579298977812714 8.43377766245412 0.7873499495218441 0.3969179071782519 -0.8528164066557701
Ni 3.9000248502563193 1.3734832400072894 3.708534898382482 0.052627653498044845 -0.672136759982094 1.3261305305065743
Ni 8.690712016615969 1.7922997230840159 8.62096988319886 -0.2539578865425368 -0.47226845619510927 -0.7745355713659952
Ni 3.445763161991163 5.958468219485648 12.945727058199944 -0.4755900643691745 0.0625251151174149 0.5149927345365131
Ni 2.752735556379883 8.933419366934869 6.970018069378111 -0.4712469569091303 -0.3256620970560585 0.004674522657533885
Ni 3.8012121102713867 3.178539544750266 10.174812911429932 0.37270042939178394 -1.4096314765447078 -0.1809465271818174
Ni 8.017179273858325 0.17706356875170248 12.909116038059613 -1.538167351335293 -1.4015726107959732 -0.4736547950196746
Ni 1.8572364466518814 7.676637618906049 3.485975008835662 -0.24976981660311817 -0.6389227351239706 -0.9791282772118429
Ni 0.18225481442825794 5.804253885349424 5.3009762781802054 1.6948524348665843 0.6959536598960336 0.05714328198021126
Ni 8.632088970222293 4.591483267096237 1.768095447811854 0.4195068482223614 -0.13318622907840288 1.6350724865944746
Ni 8.493446527011299 0.9084947619115407 3.631002204241666 0.9351711549046025 0.004791764961688522 -0.03478599733093364
Ni 1.0842355968342061 -0.013521791948054935 5.000004948780606 -0.15463925674585624 0.5460850850659434 1.1403631848973457
Ni 4.297592671264357 2.176649436323868 12.188043336895205 0.08535985362374332 -1.204748236041635 0.5693396847185097
Ni 0.34351296004346343 5.049317167446789 10.781862818153808 1.561855181870536 1.3558198300408908 -0.3293971386184585
Ni 0.7751017166668643 8.798090681188105 8.931965559690813 0.10248108668506221 1.522436313753281 0.2713606554000165
Ni 5.054080116893985 8.98997477635922 7.816731100204444 -1.170357417266591 0.38333271229464955 -0.26039232931397094
P 8.83660965026397 6.647342090113908 3.026546997303848 0.14141401630483386 -0.6688771153942158 0.15373319999181911
P 8.016643903571625 0.6911648862344508 1.5239998269564075 -0.12402641695600576 0.12894519441386182 -0.41288085826541154
P 1.9218039493323675 6.88392037370231 6.371452858646214 -0.7425204519119794 0.6810605448342851 0.13236064785331397
P 5.69988437100943 -0.09005574358851004 12.271074653101321 1.1540455674804446 1.479621275470284 -0.9675580558757403
P 3.6636680992003465 8.632061278655739 2.343802193406087 0.17442852355764152 0.32815169624713164 0.4438261416940163
P 5.758627414191505 6.897406166613845 8.43802001045011 1.3297881818638195 -0.09997888908849878 -1.4967239965888417
P 8.13829295544098 8.608634213351511 5.769374511170903 -0.11716619950106273 0.8254153889349979 -0.023385468803475855
P 2.371007311440425 1.5689303167416162 13.382783053113215 -0.30957187636241523 0.21925956382940304 -0.5242993566494196
Ni 2.3834869774338516 6.910365819760864 8.640532128864443 -0.7754624540556386 -0.3923086905410147 -0.361781468486435
Ni 1.282128761947422 2.9608192179847723 9.73410993720157 -0.054080583894487506 0.5637917583170872 0.091247679863088
Ni 4.501421062142198 3.7980460411621078 0.5043658857347699 -0.030978964880017612 0.8028866117048624 0.036792743348317274
Ni 4.967479357759129 4.4373520076596735 4.4438604488519555 1.260041609297301 -0.09880929426042984 -1.1985104826620392
Ni 6.1675118553977235 7.532152255152274 1.5852674179559394 -1.03828678984987 0.8168402456714771 -0.41462252354686663
Ni 1.1111517995241702 9.03210287960922 12.753185749849294 0.6564877405909274 -0.19326648219975104 -0.11156325149198852
Ni 1.269639865431811 3.0393340396860182 1.776525683722946 -0.10126829732388365 0.1471095240277144 0.37076850247639376
Ni 9.048570131186345 1.3569513747748732 10.908652347827703 1.2922565034669484 -1.0143994417093112 0.4193872919253616
Ni 0.06263463133505466 2.1347151740397434 13.511288536861207 0.13834797578500047 -0.7595067020573307 0.1688667131991479
Ni 6.28389950962192 5.167818611251233 1.7722021071317322 -0.6548324643756915 -1.4877001958236764 -0.0388586247384105
Ni 4.675407174797592 2.8880734726488306 7.674797052782462 -1.0757806730302697 0.7001445580489296 -0.4679706001507038
Ni 8.795819972730722 1.8844387955295645 6.081801841653669 -0.2713524278699004 -0.4719609522570194 -0.38011960467399053
Ni 2.6997985116518506 1.9641258935482404 5.975899137578833 0.3701203273694335 -0.33240918597190494 -0.397659927550599
Ni 8.004219620711305 6.474186724455119 9.263482533103318 -0.12944887352315773 0.7284264357127584 0.8111174842550869
Ni 9.045376370510512 7.31399809384411 7.344157902029702 1.7226460600400848 1.1943296118114721 -1.3692355892261645
Ni 8.057193587528078 6.459768648802949 0.7475153780663067 -1.3154275422667732 -0.6701485259074716 -1.370200524242595
Ni 7.3977927742348815 3.7488935105297143 13.248130964642577 -1.1255189207956615 1.6596661167734383 0.34435838791398116
Ni 1.3284659833135464 5.237850583064936 3.032950210543227 -0.45826777104064303 1.0705078546671047 -0.6651965812188351
Ni 2.292566333916655 7.741574342473914 0.8822791558553793 -0.6353615001352735 -1.2638990353701782 -0.032756882716046806
Ni 7.765287553965861 6.580088505477737 11.796381203980802 -0.1574528149352514 0.2228994745748355 -0.5931763821267914
Ni 4.823649361080453 4.694929729217783 11.570727243397743 0.7952550633015336 0.00816016721328917 0.06787120992067666
Ni 2.889919577085728 5.756439780433782 4.79795251037106 0.48748810135834114 -0.11116781582578275 0.0779393927899561
Ni 6.175616253875703 7.428179653266214 6.2096187284466975 1.2578556573895756 0.36045940724090175 -0.542403522449298
Ni 3.554831012123061 7.927587825535695 11.511621440693817 1.1179393086761908 -0.4097099167365976 -0.7490466830662713
P 4.616451829605275 0.6393475038473965 5.702136618422444 0.3499088854185651 0.004603560210282394 0.7153582896748906
P 1.2026170438502513 1.236483829745134 7.444684749984295 -0.8786796475757771 0.29507959628351116 0.05485911393172488
P 9.195953878906048 4.644964912633155 8.611998738687756 -0.6516232134097745 0.6215004258824651 0.9103900913051806
P 5.919570799000219 2.4611618216163094 9.421978906480925 0.20328144323359182 -0.6071397862854189 1.2106298916333924
P 6.0663545627779305 5.739012554549471 12.990134177377291 0.04527018469170913 -0.1625569689310362 1.2913874705984338
P 3.3260432892583673 8.691441227868545 9.363049406750722 -0.3477897821930333 0.5558570768510428 0.05612306824581302
P 1.6527619192211265 1.9172717629397846 3.882677006862795 -0.6517725945034453 -0.7350557681038179 -0.8384506248524012
P 6.985031513711179 3.5941345755846066 5.935193457797463 0.6737894650941686 0.11928813094007197 -0.4055992370023337
