# total energy = -381166.22443119 ev
CRYSTAL
PRIMVEC
9.29813924583913 0.00000000000000 0.00000000000000
0.00000000000000 9.29813924583913 0.00000000000000
0.00000000000000 0.00000000000000 13.60876665660371
PRIMCOORD
 96 1
Ni 2.492273282046267 6.054697320884621 9.732282535321602 -1.2191618403638034 0.2518606376938759 1.1790122647281114
Ni 6.622943811553833 2.0299883878633977 11.64665506857021 -0.9365994027106967 0.21310048620654268 1.4245186780691854
Ni 5.591891730895922 3.2185044590878418 2.1211715216035665 -0.8729368315547288 -0.16704354394748008 -0.1334847341554282
Ni 0.5959400690278397 1.9456635617371567 9.154739764890452 -1.1964340597489846 0.8139102165088757 -0.6938142449555277
Ni 4.998623947128715 9.23292224013578 5.5548944342638436 -0.8587325150298888 -0.5249429037706895 -0.7928914481653634
Ni 6.454768364410232 8.364838648563174 1.2709803396587829 -0.22996589450331364 -0.2982271407735574 0.07115399443700648
Ni 4.398931149043146 6.849055965235377 5.012966327137507 -0.6925001541297945 0.4085701467051996 0.6188689017968889
Ni 7.243148305133337 1.4628669720603535 2.4925141038564633 -0.15374759816952233 -0.23919744040391067 0.893013804810262
Ni 9.22679476627789 7.6958375194659165 5.390854799520834 -0.42683526356297463 -0.8305298273434276 -0.6899362500573601
Ni 3.9786645467628547 0.19902946308082733 12.408037861574984 0.7702857949507056 0.45713288610525143 0.023203434699656814
Ni 3.5913412523406816 7.6703792138166 10.945626498344732 -0.4030034512506995 -0.14058509264563532 1.7031139035444283
Ni 3.9195097839648456 2.6127864666776714 13.40278442717142 -0.5200323538429495 0.1981847454369748 3.7405115843756547
Ni 8.739116653421435 -0.010139621004594293 9.454581514863541 0.4463797613538054 -0.9433994563516656 0.32517975810300126
Ni 2.649886042843037 2.8315716865200407 8.821229452186838 0.6758016104281909 0.14058612108689983 -0.4733426630958944
Ni 6.9871519314529245 0.6298857163121798 4.947086220118843 1.579218355739332 0.921814016871406 -1.1029358932888231
Ni 4.121642036160055 4.157960568616676 10.046059406798209 0.23657414384845063 1.5047499522171117 0.28329777315723464
Ni 6.101439067597226 7.587914015568322 3.646659602826453 0.5530085516586541 1.8039170883064353 0.5116402731245123
Ni 1.7314902190321362 8.197825468843298 13.283857505119919 1.0174675391116736 0.6069744643521482 0.16132592473741247
Ni 7.419496816800586 1.9237292509165809 9.456840962735265 0.9636116696334824 -0.15461714525866918 -1.0756999403910052
Ni 7.840404990698774 6.0176442354162045 3.162935988652485 0.14129600266973086 0.5540454775636006 -0.9615339611688473
Ni 7.429083198511486 4.879617061078461 11.8493712439191 -0.007318645148600299 0.12324223049181356 2.2429941453512403
Ni 7.062113531213621 8.93738087963048 12.586285983119573 -1.636236939216221 1.2124841712333119 -1.2772278912686004
Ni 4.702162070823824 7.827936185777031 7.093351560307645 0.10983881260171408 -1.9960337731724591 0.3925915118887562
Ni 8.83789078815945 8.277278069929277 0.21775684562585565 0.3599007065239544 -0.6633309887650061 1.1039429943970989
P 7.4631794756539405 6.915853798611815 12.97699380027964 -0.8760110996046785 -2.0839858130034115 0.1682175096509232
Ni 4.940631451754433 4.485506124901722 5.966246910311119 0.39418096786306306 0.5562543122894614 -0.11910969638067877
P 4.700711561079012 6.235481045040813 9.299046888220394 0.9947855241331255 1.2074808044814496 0.3747655394509288
Ni 0.27151403850807654 0.6159561736922966 4.649489970808394 0.21297475926195578 0.7411760220689428 -0.12205489505193175
P 2.8826463661883 3.330333181529158 6.392881808259496 -0.49044358444223923 -0.4237941627438056 -0.0404640215523174
P 5.741080377405519 0.130087478761098 10.959317078782298 -0.5086824760477691 -0.5516432958800113 -1.341258130176632
P 3.2549903580534796 2.0353999049882705 2.574519974018884 -0.2970398053336756 -0.11320335819857279 -0.3736306545155372
Ni 7.899978169769325 7.605636269245311 10.80644915851615 1.2836507640758086 -0.9246918526398333 2.660919765129411
Ni 5.003393892635691 5.573937023734188 3.152647597417653 -1.1234512396333556 -1.3914458067746167 -0.6731852558512664
Ni 3.4760071313494043 5.023933482547795 7.994130199416662 -0.06634474597382123 -0.6198621189480937 -2.6532635341357333
Ni 4.14053585540016 4.835320725025378 0.6108849684690909 0.29021198377856466 0.26635446043467675 0.009664776783273677
Ni 0.46859461157279847 1.923162064413802 2.494282609968406 -0.8991206890389483 0.3382725867312174 0.2618030936185685
Ni 2.449139213416911 5.577888732974859 5.490184962994359 0.7865295105030777 -2.7426834167614635 -1.083248699272541
Ni 5.338182699505404 6.362828362123732 11.851684620999286 0.8273236617013042 -1.0394119045932486 -0.18413495221212803
Ni 8.195882157710827 8.632020683929534 2.9886758390921884 0.03349658909554876 -0.15628399143813085 0.38826434526831194
Ni 4.964946086258802 0.9005796589260745 3.3800772974507347 0.013725834226524748 0.01980135099664332 -0.7200235563610438
Ni 4.011087158815143 7.468869936960509 13.5736832993423 0.37823678582898085 -1.480257623502702 0.012264933410282102
Ni 0.9635754831060166 4.588390037250036 8.59279276365784 -0.12956251628288654 -0.5005300221439638 0.744115307202925
Ni 6.382001125545533 5.851114558944601 7.422901795445136 -2.326245437272413 0.008096403854889283 1.531985648004613
Ni 7.834835405204275 3.4901031106643656 0.17726251876926818 -0.3612597916550101 -0.6927477513642263 -0.038892306189823346
Ni 1.0234833951946007 9.062078226987301 1.9058665953348057 0.3227035286483668 -0.5841117008213617 0.15806936547332778
Ni 3.7830781846980766 2.425726498433354 11.349752460458243 0.26629506795165103 -1.9115228978125725 -2.272048125294403
Ni 8.835640638427114 0.033118112878646445 7.202167685586661 -0.4180374627656865 -0.6764878378619382 -0.9754343733000234
Ni 7.550386724991025 2.20872652135383 6.672923170401972 0.2921799061382129 0.04645623458001031 0.23430694508082875
Ni 0.3130116346048251 4.186106036549649 6.278050716609207 0.42991698781209187 0.01469539722864566 -0.5475207890712054
Ni 2.3991617141966497 8.109790685100522 3.6096985689379952 0.6800909818321642 0.5259363780322104 -0.6410292399440122
Ni 7.9942241106245 1.1277341340332172 0.41945208526974326 1.5510825167350641 1.0141950390079888 -0.15287188043278835
Ni 7.497805746741616 5.723757943722292 5.428278880750904 0.3053105299829 -1.2941051266399133 -0.20949965622916175
Ni 8.427229163868839 6.638797139213469 7.848992752239208 -0.14317753596315988 1.2079371752925776 -1.997244762761425
Ni 5.603291249787836 1.1800175718221522 0.49672241304093073 0.6705408762498839 0.33136428964715836 0.2662122784298576
Ni 1.2974158797579685 6.488120790401502 7.160498073911201 -0.0489319498140125 0.1374239213088343 1.3343174371927409
Ni 1.6389644339640779 3.180846994559087 11.035635277079967 -1.220434022208008 -0.3841001865882933 -0.9969622200694702
P 0.45670694036291876 7.1224863502716955 2.800901773742733 0.16068057784392972 0.3589709956208334 -0.17280512902160564
Ni 6.651265944135212 8.024675517126147 9.150494234445063 -2.1022668707007854 -0.9093068855433308 -0.850940786899612
P 0.6217749493224434 7.1500739298412785 9.21702707084889 0.06736778792169688 0.07862073512769686 -0.24207553328265408
Ni 1.9724979920161656 8.821302907488018 7.78010469712794 -0.10202831541835979 -0.28318387328718975 -0.6206087673061312
P 2.0348606129036613 7.608639568268222 5.546701843647478 1.3443511672796589 1.768814073955715 1.4907050440882714
P 6.346463636797656 4.225585936398807 3.961090133502164 1.3547031999379444 -0.8703271618460237 1.200049802124701
P 1.9442502445499048 0.8096103823918713 12.031823984095764 -1.194839461568355 0.8935591357907707 0.4679706001507038
Ni 6.947699926021935 7.899596946054343 5.987952486902706 -0.463040509838938 -0.6158511980164877 1.1479767355785453
Ni 1.4593708716497829 3.197165229188214 4.153913088540289 -0.9874321690918479 -2.15527710434923 1.4379316090409815
Ni 2.334958061709971 0.5561375237418547 9.961086500356497 1.0128884043814235 0.7977310356458519 -0.43257242315706795
Ni 0.875708995686195 3.7793868233603196 13.140421617450802 -0.28916194524749556 -0.8230034370593956 -0.020652386143028948
Ni 3.5738142595908786 3.6752104696368213 4.1501426930177185 1.3965296490554273 0.10722374357637017 -1.0844766581423708
Ni 8.9899525597405 5.679675464875175 0.48375894710364925 -0.10391036293242104 0.3413643382826637 0.2518578094803985
Ni 3.62728785922171 9.380985811779208 1.2665125836819764 -0.5721768970569888 0.41073604400826685 1.3071665878095617
Ni 6.528744361395607 5.426133799993673 1.0559692345947398 -0.12625247807304707 0.5516126997523919 -0.5923705983960443
Ni 7.998882478458797 3.7068334417015856 2.5285220784574647 0.5001474419935644 1.0005918464022574 -1.1505038728757733
Ni 1.4250235447438027 4.20073200980983 1.6732113409646479 0.659562008640877 -0.752833146691897 0.031931815711590164
Ni 0.5739220749527556 5.5302450667414425 11.533484624614944 0.014035395047143571 0.7675995063677941 -0.4961948851037196
Ni 2.8862540442715487 4.804199852487664 12.116048390316594 0.9945366413471128 0.6603068572267015 -0.0032619585807234144
Ni 0.7733206741673586 5.161704013886697 3.590972116206906 -0.7550126708417191 1.7321591417368425 0.8615352745860065
Ni 5.068973669752062 1.6552640723144252 9.458868886936186 -0.1783887937569702 0.4361735102447649 -0.25602222527073326
Ni 8.034884874176164 5.5534625207978126 9.74069270239969 0.7505011561246107 3.2139663691148512 0.11314936503218577
Ni 2.6940057142477136 6.356059316647945 1.9362008452801411 -0.4358045569411204 0.015490125215799129 0.35290910569746964
Ni 8.955614530973909 1.5906141091370347 11.44219642189967 0.8592997003872684 -0.010657222603530032 0.5422554269072081
Ni 7.959765206045842 4.069432983486238 8.071740839089516 0.21761174381333492 -0.7016579093696625 -1.5099340675212125
Ni 4.762367523372882 2.1321842378968645 5.557234775948261 1.8174439191482763 1.4242993629695277 0.3396576400042021
Ni 2.9057894351295515 0.9390469913956822 5.005753760412826 -1.36302431820913 -0.3256196738538973 -0.6004153230773918
Ni 3.747596484786539 1.3295130569316131 7.483392700873462 -0.21393352363079932 -1.1871258949741814 -0.4150243869709756
Ni 1.6041150075310475 1.559232888696406 0.5279344073446649 0.6384848762556036 0.24852334579052685 -1.4384813108968644
Ni 6.5468199443694095 0.38873289235366926 7.698546997284108 -1.2559162742750176 0.5292333036159272 -0.8422694843778591
Ni 1.0769476966860425 8.117238494751764 10.98857553400023 -0.051022256684137936 0.09993955121013111 0.8223897147347966
Ni 6.475001115722471 4.0271078529837965 9.9671832903544 -2.230519409922997 -1.2122496866250023 -0.4138730469753517
P 5.870696440499553 3.3605335382672807 7.755813307972045 0.20227845589037421 -0.504343482352783 -0.14998504580329655
Ni 8.359306255626233 2.8306697669992285 4.540497180880972 -0.28418506085819445 -0.3737471254887434 0.684767561372227
P 5.394352759559282 3.770042193273554 12.294282564652098 -0.05705740713462431 1.564366378328164 -0.044581386154800645
Ni 4.188774602554526 8.478545595161233 9.036928619565728 0.21063531249550177 1.7298189236394401 0.6777548774998199
P 4.6661689732458465 7.322256875061891 2.0724381134336634 -0.43435394053752296 1.509233184799446 -0.9845864721129366
P 1.8714923038245952 6.062823894711321 13.533931893822956 0.036004186008750896 -0.9279838931275437 -0.2433009210493229
P 8.79744388181375 3.7359738105492686 10.21157000719269 1.304911473226798 -2.2648528930975447 0.8777453086869658
Ni 1.0145664795197673 1.668244274902608 6.75799091786546 1.1339811926304018 1.5804450290575813 -0.5193497259536282
