# total energy = -381170.2093768575 ev
CRYSTAL
PRIMVEC
9.22082877281904 0.00000000000000 0.00000000000000
0.00000000000000 9.22082877281904 0.00000000000000
0.00000000000000 0.00000000000000 13.49561496467396
PRIMCOORD
 96 1
Ni 2.389070616271598 7.065681303818685 4.469005573163438 0.800362302621112 -0.15528820318376482 -0.023145070657895624
Ni 6.741071249687091 0.32200055960485713 9.043505725588156 -0.3409321358412516 0.6517396843829808 1.0597956104559232
Ni 6.4172726284825385 4.1029460497859525 5.825368269437525 0.08483303458599584 -3.017433557459003 -1.1128048156631027
Ni 3.2079816354024064 5.903976756327573 11.588117891062083 -0.04093504765146498 -0.026230394451438693 0.8474625985430243
Ni 7.356229616671956 7.230522058781488 2.912731621986652 0.18170757371755802 0.5590077066648824 1.0571242342713472
Ni 7.324841915721382 6.19190635382539 0.7480010021360699 -1.8896497518885649 0.28960571765313353 -0.5604714356946026
Ni 6.495760322516403 -0.16233914413204756 0.10587263323865322 1.4236810126592385 -0.5081746831734151 0.34464558013709673
Ni 0.9265365319084465 8.97355375269705 7.008906817246164 -1.1379234651076016 -0.4843942929243657 0.49511527888629575
Ni 1.2533503641032562 1.9315699786794729 10.94325646853313 -0.1511361286886042 -0.22825765356295527 0.1524867291792277
Ni 2.866709543780306 4.844512757643729 8.842570036615067 -0.6420648802973781 1.326107904798755 1.0123939812435079
Ni 8.669201859255352 9.147200399084 1.6606085501855463 -1.5648474317296404 -0.8509338449210764 -1.464077157088098
Ni 8.39299193505606 0.5372884684749984 4.038994992223469 -1.0818546471384918 2.109237645591664 -1.5956554182494327
Ni 4.118372496228464 3.7666163223558344 12.793883246491566 0.10086360568629725 -0.3135671135647374 -0.7116690137487613
Ni 4.805407223057544 4.356666372745984 10.20037671466614 -1.5044277929910026 -0.5456351420127183 0.32348103024433966
Ni 3.795615828668863 1.5341153776884426 10.594719285965391 -0.2187384012186104 0.43369702367981433 0.4582394889058689
Ni 8.325467806365978 4.9808611518729045 2.640457147483512 -0.25433969536198775 -1.10062627131904 1.1699046459998885
Ni 8.781898827827002 3.1861467130020085 12.058358947691636 -1.5394760428443874 -0.6286887161007882 1.7880459256021335
Ni 5.398085209631863 0.44636279858560424 6.8045022525099705 0.02044052724253899 -0.18209555318459605 0.03416970390317341
Ni 4.930395556308134 2.380661220482255 8.525800453141015 0.20226688592614842 -0.8207367525124057 0.29547760305287823
Ni 0.17106112601487553 6.804916267719337 1.4830329086825453 1.6374191324497798 0.27389807710988956 -0.46547868696678546
Ni 5.870542031401963 5.611980773365831 11.707621675392167 1.5102901653090504 -0.8205372349070902 3.131778742571503
Ni 1.5180803565506504 4.225758267459476 3.145180415180856 0.6650011773785773 1.1543350736964055 -2.343163296073674
Ni 2.4160046569521567 5.359781887144003 0.8931165603087832 -0.4870499853796579 0.3608612706650108 -0.2224904120618749
Ni 7.81666247779589 4.879754764997751 7.361196877101472 0.6383969445274876 0.9048138827689837 0.7360523276891324
P 2.4849026891209802 7.712098280152092 13.385881657989488 -0.4592545604339445 -0.337070081782684 -1.0155361264169156
Ni 0.8926997788508025 3.4218310949927915 7.05202525648972 -0.4685681245253866 1.3989076623693006 1.966373527103865
P 6.610338340146194 4.338344586086529 13.202746778853378 0.7471193841365713 -1.1554403909454423 -1.0655970476290486
Ni 4.843489245656211 5.373834430107772 0.839296427256991 -0.37370650205879513 1.998700264261029 -0.02653198485225753
P 8.322406491232138 7.170734205384452 6.930403447803482 0.5308137607291697 -0.27527901661781623 0.3360485824967051
P 6.925155874180988 1.697609891658653 5.596564469834907 -2.8108955549613266 -0.03932579418281614 -1.1844388350603214
P 2.755921286752948 3.573532169034747 10.740647199148016 0.5446462957368878 0.9702669701664709 -0.03434968112446342
Ni 4.171272390574361 6.177365106939652 3.148864136253051 0.7142249474013957 -1.3075946764859157 -0.0715021218050446
Ni 5.190090976276381 4.797053152240499 7.747036000158472 -0.3020889377218088 0.44200271533203234 -0.25884401099024457
Ni 4.998638909638093 7.0068339749507205 10.432784936213992 -3.8856992087903084 2.5540765448209113 -2.066264484464248
Ni 2.009891697796441 7.488557729580787 8.870181808206281 0.9341563404868428 -1.7060213069992103 -0.6779795919161162
Ni 4.394416445510862 8.610704921878611 3.3016615668293845 -0.7646897889201668 -0.17165378902598177 1.2709438580321015
Ni 1.6805974626769242 3.8052423738487686 12.539167074030166 0.34498779396786394 0.45645102954687844 1.4621619423432561
Ni 2.702200738651293 7.594514272360759 2.043262799003908 -0.3525977451046379 -0.07926351091801834 -1.3459897313243465
Ni 2.528452663148463 2.685280517956728 4.692992411844616 -0.2118488731876287 0.6700348831477428 1.3400520256836728
Ni 0.9637333549503408 8.640276119572055 3.0429915030143984 1.5257972598057141 -0.30325647566734865 0.7193175314329546
Ni 1.128057743505026 5.360593320071044 10.599185855395607 1.037075286040272 -0.9034023471334378 1.5042002503612288
Ni 7.552799243247836 6.017752561859039 5.206824014148005 3.149788548885362 1.0416572489839995 -0.3937955594991863
Ni 8.481843840567139 8.074310873789102 12.913171263429689 0.8561022764958933 1.38151954879984 0.18120595149079113
Ni -0.019057608791023133 8.043199797700021 5.007048305427436 -0.27482136025510734 -0.990759690803184 2.7132759101336235
Ni 5.313401118700589 0.16542166717193488 11.738107579294278 -0.07649340437204889 1.3992213369549773 -0.6885128873472723
Ni 5.731787000877811 7.448815957813171 7.8899680660911455 -0.07633271042446854 0.5726625784441557 -0.28329108828901534
Ni 6.185497877867503 0.3796427261595905 2.3636358823403234 1.7982627182341353 0.9316536286696472 0.4419682625496711
Ni 3.029420287309624 4.404439486325571 6.658885081255086 0.12398836462921874 -0.5116379591316672 -1.823247413203931
Ni 7.364583687489 2.566682219006593 7.641838331581858 -1.6449072132967093 0.2510306855934128 -0.6458611141150168
Ni 7.910761034846592 1.9737183867420656 1.2235228273714964 -0.5161247912584273 0.5362632138795151 -1.3172820789770088
Ni 6.27527186625022 4.836232453456416 3.5084681574461953 -1.322547441141006 0.7482321575847758 1.3535672865612882
Ni 8.679658279019732 8.076911147487122 9.04412720944364 -0.07106966225331632 -1.2964525438261674 -1.8481398055702367
Ni 6.416258337323737 8.615306115408087 4.875547300854464 -0.39640857164200116 -0.3863766413272958 -0.23247246297525123
Ni 1.068196123478259 1.6536357595102162 1.2799035845578282 -0.4364208503688806 0.39868579771195206 -0.4169935948822044
Ni 8.784895597159826 4.296675661117187 0.6704713522058389 0.6295950299651415 -1.4675170360075824 -0.4728942627045663
Ni 4.957412584447139 1.7896983080491835 3.8842003301471673 -0.0734294207347445 0.4820278495747182 -0.1094937705574695
P 4.740483368065481 9.063060337046993 9.498133152952256 -0.6892677632354258 -0.23511375725284023 -0.702610503090919
Ni 5.442308304155643 6.040795412821283 5.382469736200666 -3.81624085688817 1.9926982810413232 0.459501386337428
P 8.51129516748727 6.521421888834101 10.784237744821853 -1.3786584252019611 -0.8758236661842207 -2.0441110882956606
Ni 5.969684381760527 2.06686719843498 13.162786473445184 0.19836497976858097 1.1408031006482418 -0.34773733168854304
P 4.372968797916552 4.155329577723732 4.650346079031338 -0.2428360655977624 0.24173871876852562 -0.679160756708411
P 4.017358317640474 8.125200627474827 5.527897880466864 1.8409592286613972 0.29034439559137093 0.2015078962729368
P 0.4459395625475222 2.5073369653879434 3.637149432597697 -0.592413792929154 -1.3655141745105193 -0.025747798388065336
Ni 3.2470318450162936 8.416717127343317 11.204882730034589 -0.9518295893968898 -0.6022531476170789 -0.5491817217133962
Ni 0.3254426949646834 4.283047276274371 5.043418942216342 -1.424899715557688 0.2125854942433371 0.5894858206490816
Ni 3.6550811782024497 6.62916727238505 7.002335132619996 -0.04063088614748486 0.5183930184673137 0.6733387507099952
Ni 7.227497626962514 2.57829124236052 3.328166838974631 0.8754948220898922 -0.033750614087883817 1.5709697425772946
Ni -0.16183845313274792 1.5161900866637914 8.453005698756646 0.42790329981617276 0.13114117362391609 1.2602341849240812
Ni 6.223598342123603 3.8114848748897607 1.6406620535062637 0.1811100493428752 -2.3195816520989925 -0.39607201423818883
Ni 4.651068992002703 7.57217220438096 13.147414429892098 -0.209943942855432 -0.5925472331832247 -0.2603463065673839
Ni 1.5828843407693995 0.42787319284351033 9.162456260195258 0.7038973402231425 -1.1005553088717885 1.7092331290682887
Ni 7.692614669074373 0.11397958584609832 7.012766656146842 1.0360018504704351 -1.5953486856422912 -0.8840910483993355
Ni 2.62947606256517 0.8237685516985999 12.795624138953219 -1.4229994132111816 -0.586051598156552 -0.8535653690066526
Ni 8.918606834376115 1.8275405891012249 5.952564991165689 2.3516947305834535 0.31261451984348093 -0.997637905980256
Ni 2.2471436206690103 0.06231989296255513 5.120870215102485 0.03025545645043176 1.2596392316525598 -0.036042752556170184
Ni 4.556389522742869 2.5433258598679913 6.156942815498604 -0.2566243776311064 0.007716651917967356 0.2810264606245547
Ni 1.3916351323628722 6.263755051183457 6.553834945937934 -1.2200918083772407 0.06761127139107065 -0.3796555205533784
Ni 0.40631120697311723 6.292828324126217 3.775721890713264 0.5498800333320013 -0.2805441216714975 -0.17158411213031094
Ni 6.574045158318506 5.955890022000816 9.401895363639353 3.0945455692516575 -0.9872835593291254 -0.11355122845629476
Ni 2.466036873567258 2.4886371247511154 8.822556227886155 -0.06482908066024319 0.691101474010055 0.5520114778527073
Ni 6.928632126607066 2.1290709089557085 10.739445725166274 -0.9785531214346632 -0.2912352828367565 0.0024602886150344727
Ni 2.622744857602209 1.1701692682527531 3.0273898608262764 0.5321797878387609 -0.2483307701637465 -1.6814683002501944
Ni 6.918166486013969 7.8927711980209265 11.129631546880178 0.6594511940946255 -0.13348704814827334 -0.015095460880541745
Ni 8.319068551236807 3.9589074844073133 10.089537743080841 1.3995956895752606 1.275659775450532 -1.5593154461678178
Ni 3.648294648267191 3.668810992161146 2.2415133826547855 0.8935102848307064 -0.0401140944120664 0.7476498027187447
Ni 9.065319440082506 5.925129337402958 12.65151826152495 1.6027508916436333 -1.108084270258982 0.09346397078811645
Ni 0.4364642389585656 5.582013080037581 8.569769052792221 -0.6328019669382134 0.6324067883823238 -1.0894784822323365
Ni 4.325804259032246 0.6584077419961932 0.8145385021534991 0.2062973472417802 -0.36336269693062584 1.1060183888688888
P 2.9971473868022787 2.3970650747687032 0.6471832271997385 0.22943007660450163 0.9990738670958342 0.47569316560594205
Ni 3.1969443034288942 0.09213267636836894 7.452656432973544 1.1070128915716742 -0.6321576484859952 0.716958544282475
P 9.05888330163847 1.1074215288377578 12.67873906997859 0.51569027482417 0.12290387331578832 1.5801915182858786
Ni 0.9032004585930211 7.841669365274725 10.876197069610354 1.5499376044973436 0.20244532048554167 1.536281961387122
P 2.3356912388324487 1.952086322573428 6.852560289696894 0.5750693881134354 -0.8711517146298481 -2.50395237447101
P 5.689850671875695 7.614634120619909 1.5911867749456319 -0.8297065601111839 -0.8721356758096722 0.41087565490992467
P 6.517217190939429 3.7725176527343205 9.17731470358884 -0.35297672571061145 -0.6205108082756862 -0.5577203553120266
Ni 8.590492865332296 0.3130084074406391 10.77368450635595 -0.28626893997041664 1.9730128867972538 0.16390756942165965
