# total energy = -340884.964448257 ev
CRYSTAL
PRIMVEC
9.15594254256307 0.00000000000000 0.00000000000000
0.00000000000000 9.15594254256307 0.00000000000000
0.00000000000000 0.00000000000000 13.40064740789478
PRIMCOORD
 96 1
Ni 0.013667991105260145 8.02160371063663 11.466612262131411 0.2897759246824106 -0.7159925808247798 1.6532015920950174
Ni 5.35270137995824 5.7003982999892235 11.593368962599953 -1.0924632758922734 -1.813764156303844 0.11285754482337984
Ni 2.6038768263713443 2.6481549647589637 8.53680219127651 -0.9519699716294959 0.947367182750162 -0.09983387887020226
Ni 2.6403632576109355 2.4906452843035845 12.871723498850384 -0.5249477888666959 -0.18480241059279784 0.22209600483693365
Ni 2.052011542422758 6.672823495136843 8.661548246751273 0.25027400993304644 1.5898881767483521 -1.835776141798561
Ni 8.559222347907975 5.024689736505704 6.307403417025436 -0.31487014864687707 1.0832163033727087 -1.265534514091072
Ni 4.907521139122254 5.850455043172576 7.445802045962908 -0.3416119355170955 0.17455425050222842 -0.8414009657299766
Ni 3.3621536801732166 7.052593682076808 13.074127512630001 -1.5348012630765373 -0.5467705411687422 -1.8743851124200108
Ni 1.460674989948732 8.815680299983496 9.72360371074048 -0.36568954529158954 0.27040034836927623 -0.7883678492633971
Ni 5.960106611685837 0.6263095064027255 1.3865109393379884 -1.170955970082538 -0.10005087997701478 0.8361831689744631
Ni 2.7713573283122734 1.8112285640692403 6.308542416284208 0.41424919936784793 -0.5823173279251004 -1.32871294652177
Ni 3.6501172307168503 4.40342240768984 0.7754689672118045 -0.728649607467158 -0.013633531623034583 0.10206713907609519
Ni 0.6205311910312561 1.0930547388318372 7.645927145630722 0.01350857600939609 0.6634348613327219 -1.6513779086227172
Ni 8.414357024175777 4.871043863825257 1.4835584372754844 -0.17240892202445146 0.6458222904572813 0.3600333754470767
Ni 6.149881833844685 7.81540272746302 3.696313539078045 -0.4036770802789564 0.4047106637497933 0.8211044202644697
Ni 1.2992557220054464 8.415281774377833 0.6458272292316932 0.6990081304516413 1.073195685911913 -0.3938834912273023
Ni 6.488734113329258 1.9019639551820002 3.8353318778693137 -0.8086697940455428 0.11400168573015206 -0.24799549831151482
Ni 4.607957009311227 3.43129020270525 7.23919087656106 -1.2752951930222618 -1.2789631287921521 -0.8800425893615748
Ni 3.9862410393082257 0.18935130201671588 3.8371145398924877 1.3379756027706182 0.7900161835000975 1.5556505957217208
Ni 7.511837450738141 6.185599165906327 12.722989789371955 0.9815047478638192 -0.3430808067531381 0.22828567858741328
Ni 5.89891744732594 4.523356099736867 0.37848560819393906 1.5023187170677996 -0.4932666557133311 0.8821303251285388
Ni 1.3836918246131027 4.746248366260483 13.262152118564757 -0.3469616298647831 1.0675883670274646 0.3304453773773148
Ni 4.108555276429857 8.03976910074437 1.870609429766698 0.9921689124458849 0.046586332399971384 -0.13019500766056288
Ni 6.561551324784332 1.9699285170619214 12.964576659485282 -1.0827524763624128 0.5201249135567558 -1.0461700492526886
P 5.297637541194149 6.343584955376627 9.59116483229771 1.1942560782610592 1.6477472538486655 -1.3615024822479647
P 3.0797844105549004 5.036564994050936 11.901972754534658 0.7907479194597994 -1.3459172262151984 0.3394745774591186
P 0.6057489217122297 1.6352147236301184 0.5620329581999205 1.7349058512440443 0.3432582128712669 -0.4645605460278902
P 6.627977688308356 4.1331115144686486 7.178593186092776 -0.42961025520495044 0.6772637967960142 -1.3152776469524703
P 4.533381856877985 2.234462010505903 0.6430383291173697 0.014637290297200598 0.09433814586295365 -0.24838244933728834
P 2.145154946437905 8.807687162098386 11.79250247368477 -0.43590688684693957 -1.2661916880590969 0.976213931778525
P 2.743303520202334 4.521708030069834 2.900865389530503 0.0039528140001609344 -0.0990059836522682 0.1454745595274527
P 7.19540807466781 0.16523821159950453 11.54662787565438 1.0441059676348083 0.9115005507605398 0.8708434393608098
Ni 8.608481319067073 3.350910182667014 13.029891491578319 -0.01961108936270816 0.4718776485145938 -1.2116339074178746
Ni 2.4115928759415692 6.390994426131608 1.759799634515217 -1.707402503617453 -0.4779796476472736 0.16004243003929858
Ni 4.563037954941984 3.0732562234849303 2.8703651135592794 0.28698319242862186 0.3890973826925686 -0.6999830927704009
Ni 1.1628688011158732 3.489869923425678 6.536139006112943 -0.7362086507613386 0.036938267787246064 0.2539517158949497
Ni 1.057309938942411 3.2257392914558594 1.909471828109595 0.6833483124271973 1.5392703545914845 -0.2575877699856402
Ni 7.917290056656037 2.3954875729176193 1.678203705300414 -1.016768970382752 -0.5428112994106781 1.4676630746671433
Ni 1.4858538320839578 9.024893588270738 5.296512275849269 -0.5497399082097113 -0.28988725344929434 -0.22614497809532666
Ni 2.941859291309429 0.9894003127180577 1.7244760079851436 -0.3224693011503737 1.093805905963097 -1.126621409831221
Ni 3.1868173794860972 1.183744350231624 10.723868464941324 -1.9815106398556197 0.2284448298730969 0.1024360923797397
Ni 1.0633070813418921 3.556918891046136 11.084720643292268 0.30701311449630353 -0.06018181169621893 0.09676578146783979
Ni 6.914888305453608 6.940762999226025 6.221290861328704 -0.020915409996428495 0.6084006552757135 -1.4744659565215896
Ni 6.523938712605601 1.9094992959373787 8.520198804975413 -0.9325056922572973 -0.6093643047405635 -0.9036424881687019
Ni 7.8706130613086245 4.988825909362548 10.394842343049303 0.8379685430096601 -0.24738537553134168 0.47711627120571376
Ni 2.9606381295710107 4.542336368735531 5.2071301330519955 1.000663065959825 -0.7303095116680842 -0.4448766944457177
Ni 3.565992430157412 5.0178410914449225 9.541126690423813 -0.8167042343142451 -0.6338237233345084 0.6549610195337559
Ni 7.692703940752415 0.04366743701655761 4.9973693193975945 1.8517213522739078 -0.40619856114922953 0.13522459966467035
Ni 0.3884317086344831 1.2337449527408857 11.721425806916935 0.5664667340460889 0.34383671108255626 -0.18449593509597256
Ni 6.864960950485103 7.4951461673881346 1.4522148989912957 0.702948603156628 -0.37120533290349617 -0.1679210614564269
Ni 7.670583183443795 5.734192884105995 3.7063109127971186 -1.0469331526709584 1.852971165520609 0.51288700104742
Ni 8.127766865021337 0.3403089899513797 0.30388115674439414 -0.22112721316576112 -1.8013578122196914 -0.2689746716663432
Ni 5.6269767963229045 0.0798901771094235 6.116591742164878 0.41639478495594096 0.8958908692477409 -1.267719951778165
Ni 3.741429446213072 7.950333853480048 6.354184790118427 0.12011499771674153 -1.0691153451949524 -0.8497557654525753
Ni 2.4777994968433217 2.4542504124899396 3.6875229185929426 -0.1746136429852541 -0.19459548542381971 1.8574932217606783
Ni 7.631688739301817 2.430902758873639 10.59152297711302 0.42454852441132684 -0.08128748332658259 0.005289530533713471
P 6.589971370598057 4.04588284936963 2.730207775509238 1.2666290327068315 -1.0109657334374136 -0.05313647481366333
P 4.421120844725255 2.0551154069623365 9.342314552924067 2.9099357342856402 1.7563753339717298 -0.46846990838462543
P 8.981732474879662 7.226556591374732 5.416019300971387 -0.24040971554445695 -1.153308175093788 -1.3259029878768003
P 5.121706104238379 6.606928176283307 0.6150238915605875 1.0042178731906188 -1.4138987364614939 0.48767476344785043
P 0.1959509054389235 6.62100086005125 0.5346768329156921 -0.6507130428906793 -0.46074657159843874 -0.16154446850612178
P 2.2205816015324475 8.658875627107902 7.64904932205549 -0.19670121891291287 0.26989384104650294 -0.5084148242086792
P 2.21326600339934 8.559057540941271 3.0697403415285933 -1.3061466311854797 -1.1053828121674187 -0.664376656420701
P 5.009234505405972 6.3736347589721944 5.1521203143492125 0.28233720901617826 0.8011619157042719 0.11907215827452397
Ni 7.388854829807102 5.988471721843993 8.287965645816758 -0.2310539853611698 0.09732113975067755 0.2470645018568132
Ni 5.937152663601106 8.103054975958438 8.145288592364675 0.03896789662276514 -0.19040484438123984 1.212388783306028
Ni 9.043104758091452 7.610016623180333 2.6351571886516307 0.5132605823367548 0.32357924638510077 0.4429794774230048
Ni 0.874402589323794 5.49679760451249 3.755598267378258 0.4650734811085668 -0.24406453868822484 0.31861187507749644
Ni 3.2477593333959387 6.765371762883339 4.003228975198298 -0.36539463975899006 0.3984112038943267 -0.038712586078849455
Ni 1.816401671635205 6.446525217968025 5.903762772147017 -0.9910551105564159 0.5758013811834535 1.3136825345512086
Ni 5.231284425210882 5.693201729109847 2.8925829238594027 -0.8440836547684624 0.3289232843058335 -0.901175771795764
Ni 8.1441926260361 0.31412482531926356 9.540135101840812 0.47625623719826365 0.15386535469430918 -0.8001800114069767
Ni 5.594116118350787 4.308356255729821 4.956725174625784 0.8101548632315014 -0.9385567835473837 0.6365822599162521
Ni 4.676269497009743 2.9578089433092707 11.282339761471935 0.467585191786827 1.3074044148519808 0.896256994337908
Ni 3.961053041230405 0.22706462956398715 12.80153129613719 0.5550350951703796 0.9860455731569664 0.900703717255352
Ni 4.130318951977287 0.5725879288230074 7.897068241841542 -0.18358525035624512 -0.018745913148935457 0.5247310448701995
Ni 8.30880731794491 3.6496869014149036 4.174985302330918 1.468417950555297 -0.9392329836788018 -0.9271868511475452
Ni 9.137063040997521 7.956825416779639 7.553382540261264 -0.05711448562480487 -1.0116792145646705 0.025665265976588057
Ni 7.467531844522738 2.5041594555732547 5.94259770266213 0.1978456169300012 -1.448215507465493 1.718655193713137
Ni 5.743486165839541 7.830729775366427 12.310826793126457 0.06077727918837276 1.3470410554069963 0.6155583493664173
Ni 0.7348220756572145 1.0961677593140107 2.9040946904836282 -1.32927344701093 -1.6679702657637594 0.4405482422736929
Ni 5.368843306752567 0.2269794792978571 10.370828136812115 0.7037854972356266 0.4125568992670895 -0.488659495958623
Ni 3.674444570190776 7.62716570366007 10.273687248260153 -0.08934146397931064 0.14940371937852978 0.7494467467181672
Ni 8.337053400849335 3.5338733835354583 8.149482929667274 0.7423831550031667 -1.6696525385621892 1.1528757155420597
Ni 7.206807223198121 7.424599629696528 10.380048171004905 -1.982418753492186 -1.10069800509724 -0.41709052547138487
Ni 1.59374745961905 6.055484065694073 10.845157236492357 -0.5864796868329061 0.8240105381676712 1.324189090509487
Ni 0.8896069475964327 4.740095572836894 9.013758130887151 0.09642639585055007 -1.0004090409674902 -0.7024374678481644
Ni 5.765964004909352 4.201387378396786 9.16731610651869 0.9477873010067162 -0.5081435728251635 1.632694730390917
P 7.5444600742027985 0.35250287429890476 7.223484772634235 -0.5286828304290959 0.4274194182012187 0.8327913696840947
P 2.5965429163530476 4.938916866279232 7.444461615967055 0.4229894074543232 -0.7354362913716883 -0.06726391535398092
P 7.603616619306688 0.30651989940016583 2.8213057419487457 0.03601961262771861 -0.4433517731607591 -1.230142250634707
P 0.47963405281956906 1.9138575246124214 5.145929065966725 0.25960197220219167 0.19596125542309475 -0.3351893198202034
P 9.056747112557447 6.748588920107386 9.497614904431362 0.780359891357256 0.3369235289024907 0.28832093740343895
P 0.7023715839133352 2.1752871535168246 9.421767075977467 -1.333708085743516 0.6004402627780563 2.130691701700382
P 4.648609394431374 1.8231038216144722 5.171323072752925 -0.29121291423925333 1.3975719742770123 -0.22700346944088
P 6.705153128438472 3.910704512902548 11.788455547057945 -0.23228091578973545 0.14446334465411892 1.0030310519713694
