# total energy = -340886.74276457453 ev
CRYSTAL
PRIMVEC
9.11512800882144 0.00000000000000 0.00000000000000

0.00000000000000 9.11512800882144 0.00000000000000

0.00000000000000 0.00000000000000 13.34091121217244

PRIMCOORD
 96 1
Ni 6.288727488281447 2.252703671902604 11.265852743848857 0.7128846313234174 -0.5827325610856481 -0.261072386100131
Ni 4.855701721103882 0.5466014245860844 5.689085132612849 -1.4710582163916213 -0.578807514999629 1.0396523027388287
Ni 2.832380250729281 1.8947525869034123 4.666784308260294 0.1018992460396632 -0.19723446570856357 -0.5709484239665265
Ni 3.620246357984314 4.399134063947669 4.7349162456153975 0.22933108913279213 -0.11550166731444625 0.20017452217349396
Ni 4.332949117979267 2.656613233361331 1.9784969158650008 -1.7014614555426697 0.7838211104329791 0.3045319999456626
Ni 5.599432377542361 4.278741450485247 3.0054136411455823 -0.0545310411683448 2.2324227975932973 0.06688673452022029
Ni 4.9520668565918236 4.698010002986082 11.447062404273925 0.46182257827143686 1.2764686445050728 0.01902024985624466
Ni 5.886367498619253 8.32225790225674 12.724534862412906 -0.5329416057054499 -0.5341726498990736 -0.4006118110900713
Ni 1.9283965251446147 6.461085447697023 0.1252300120060707 0.316445463553797 0.4799552833164057 -0.2900538609341456
Ni 2.874300725389614 1.5119263170057535 13.272872718923928 -0.9873303534066609 0.8819143524629908 1.4324446177844814
Ni 8.296945191203957 8.982639826298156 6.656527469316839 -0.31743893781531785 -0.051592784475627276 0.797053549962853
Ni 8.887806032350317 2.530386937841371 1.6617972551151683 0.7394374421112814 -0.16505813808633507 -0.9476551463042261
Ni 7.303095416548572 0.9115583971312496 4.862255498290397 -1.6370468367120257 -0.6852689264886779 -1.0743909917715948
Ni 1.0614202201124494 7.629872763052801 2.233375042522905 -1.8911247937721947 -0.19284096462655823 0.8709614529959129
Ni 8.177081255177997 3.9081750280366303 3.8247196486394546 -0.6565317064549854 0.4766933247356822 -0.59864820387464
Ni 7.675047338485854 3.886490138013379 12.287353259944144 1.3976185112442316 0.8720765404369626 0.3679117497538889
Ni 8.359165056398876 7.303742590651831 9.019309987106706 -1.1930805698957194 -0.33522531526446137 1.169050011309077
Ni 7.191152526941364 1.0927398006588518 0.5278689245916398 -0.154574722056508 -0.05001849800997192 -0.7854306210119442
Ni 1.7160596133784782 6.826939348858535 9.094192588417766 0.06270174990459525 -1.4800516781394835 0.6522011974004317
Ni 9.333800140777244 4.98259342098353 1.4493701035797044 0.5320558606663869 -0.10532935476713473 -0.4895524400865376
Ni 6.494501507732854 2.1181370340660095 6.7515818493674775 0.7566939151988838 -0.6165399965533962 2.215397466679894
Ni 3.5971030474466783 4.323578766174347 0.25972099427848155 -0.6442377195789808 0.7286712047337128 -0.41058640580428
Ni 6.138938586325966 5.898490619145072 4.922769922996308 -0.17263620754390915 1.3997936645186795 -1.673531304791305
Ni 5.453954931232529 3.120992555397715 8.982262459990057 -0.9422298615235966 0.46688559461664103 0.299613993818755
P 0.3915047834710666 5.3476543059903445 12.414078152977458 -0.3326300437334594 1.1747190366693963 -0.6136331073192464
P 4.053287869217866 6.569728660890438 12.705844292008248 0.9450814720397787 -2.158156482779554 -0.5617662432466262
P 2.592123701240901 8.542233291466962 1.300169127394085 2.1640520223283826 0.3552428960369688 -1.6534535602048235
P 6.292446460593126 8.176461426459383 5.733363690942377 1.6961408146607047 -1.7899750243040464 0.0018290827889387855
P 4.8521832816129296 1.2764825552148413 12.596902102609386 0.8689675624943357 -0.2601200494891907 0.7582093234021459
P 3.957105036294223 6.364729427337297 8.1455201237339 1.009318684752294 -1.4773754168589008 -0.8405512161351717
P 4.7060951217127 1.1452885148177605 3.6138129004902364 0.4209078423349461 0.9952506366950022 -0.7677126349068907
P 0.43515166341530215 5.977555241281131 3.4018524435193758 0.1188250752607244 -1.9084938811782615 0.7111959307670849
Ni 0.8674028930326226 0.383862659975693 4.76794855875338 -0.5445097701590235 -1.056236689460071 -0.8238884107675102
Ni 2.304751054009693 6.576555891923399 4.571289667516875 -1.2345640338514867 -0.4649912058074056 -0.03862593990231412
Ni 6.176684332263874 5.812279736488532 8.77208947966214 -0.027426471642068892 0.031148400578346357 2.2174440647962776
Ni 8.659617912618467 2.5275339027101067 10.00284234813564 0.2199743305082405 0.17890892792649832 0.7898169230050979
Ni 2.483270840098544 5.581493805215435 6.823049012136416 -1.1624805856216753 -1.5160926309234406 0.1273721934997871
Ni 0.6660123387397618 -0.10294990411038635 9.147489654603117 0.20371570255753302 1.0858827944612783 -0.11522681638650477
Ni 1.2574592826303412 1.1518514071324897 11.235168487739033 1.220938215537936 0.14330891933470158 0.21986634417546652
Ni 4.610769110841257 7.025530647276599 1.5628607419578031 -0.2954344085197686 0.612878488541409 -0.45558225378867984
Ni 5.793520802622264 8.128962493331532 8.049025553425308 -0.8065838580507916 0.968489566551074 0.11838464528919611
Ni 5.365729605240495 2.7558496342369656 5.0107664592701475 -0.18308414235011047 1.1943329542455818 -2.163420816502287
Ni 0.6892969337647283 7.244020270587795 6.758332513323434 0.6721280182313457 0.6265058495168564 -0.2659747084977548
Ni 5.1535111901411526 4.783500790513646 7.00828755923247 -0.3801573998904614 -0.8996554784964957 -0.9637543658589337
Ni 0.9637971969308516 7.643335807426211 11.410081417593247 -0.43366976998630474 -0.9547632181039171 -0.5272566395055307
Ni 4.651705151654381 0.4260110128413987 10.533863284063994 0.7541963455880109 -0.2737456106924253 -0.46211259870803
Ni 8.423062105185336 7.36090355968748 4.53933840858518 -0.5507251549411161 0.8929726671596815 0.6635865564192378
Ni 7.404355375887917 6.701478724108627 6.9624612521320515 -0.29785921591117737 -1.1721016536512072 -1.4426992056329542
Ni 2.4920304783130645 5.748145694368483 2.255347970597747 0.018644354574064666 -1.3746845281558777 0.27302133093189107
Ni 2.3994572361625224 5.41074010836568 11.197080012980244 -0.13176672302305695 -0.7274458169670439 0.2458121175069508
Ni 1.5294820539476544 3.5222222691612606 3.2488723351758577 -0.8098902967162053 0.75150337213688 2.0921050996764357
Ni 1.565714688601889 0.9523668261493649 2.2925158174068305 0.3846815130130601 1.7400408584777647 0.43401429780991707
Ni 0.9722924964271401 3.4306516911143574 8.121373237579805 0.28365489938633726 0.5125275608254722 -0.8254693821013849
Ni 3.6741349959908134 2.6060789625379153 6.7799043757568205 -0.23088583521442171 0.6749837425125859 1.0010770135687919
Ni 4.251241108660888 6.918437005879719 5.944336979527564 0.42757676971468944 1.609292549416893 0.1015691163937541
Ni 0.3162156474416212 -0.22668594660203464 0.21481713815341108 1.4984414935005808 1.9961846969280266 -0.09110035565194632
P 0.029798265647335318 5.549599971591493 7.8728984884928686 0.5277685461449426 -0.6113774785158502 0.8943762323754275
P 8.665515400573508 1.4733146338874297 8.000464707860418 -0.2374418911653846 1.3404837139044525 0.6301812414859147
P 1.8612544907136481 3.3036323794397013 10.139826317974826 -0.6965743241991681 0.20901577461420778 1.5286000193618319
P 4.216293707084954 6.006696306184172 3.4478118314917316 1.127755266325348 0.9486884726647468 0.8079938510244409
P 6.840238320924077 4.300809175893523 10.326039272277054 0.09686142650543964 0.1223135480299571 -0.9721181644425966
P 6.502896540818778 8.226503480359195 10.250435664324195 -0.14798498465413223 -0.9064794433968646 -0.1561747195537762
P 2.274807857823741 8.413226881841458 5.810807643281825 1.7690022787071213 -0.2481945016961984 0.6169099782983053
P 7.354048983269873 4.089247050025654 1.4688208756774832 -1.8927355899027405 0.44822427076171195 0.04785877135449177
Ni 5.728958349476115 3.234576168083606 0.04829103776972799 -0.2962543333179027 -0.5927989441827145 0.9794319244951905
Ni 1.4501986687344388 1.167492967149261 7.01514487018854 2.3875148256058556 -1.4490531728754399 0.5475097333276119
Ni 6.845570670929795 1.2143173807892114 9.169368696857347 -0.33741589515787695 -1.8755372237465828 -0.301315549890894
Ni 2.7102010721367376 1.5306396752309468 9.16866136290787 0.7998946189560739 0.06961698896718979 -0.9778036448631482
Ni 6.670432597408672 2.3222247547976598 2.6984124768164053 0.24177805664689325 -1.9420290368212294 0.225569822318147
Ni 4.261951384313397 7.019660504706203 10.059141026042159 0.20990383364611592 0.6536438433842291 1.8076973812844739
Ni 8.388898604635884 6.946019383858012 0.21569036743639866 -0.2259305480916754 -0.7628164831568539 0.005760813743177175
Ni 7.601789053022689 3.780262433796914 8.02287698511522 0.5502921811687554 0.9173166432216846 -0.07494791426179995
Ni 2.988422130640184 8.44595930726117 12.413224976976544 0.8978531351804344 0.007993559728437847 -0.2574011078961309
Ni 0.012062960679600977 4.9875155902195765 10.221045756420887 0.07243517514227525 -0.08724627201317878 -0.27176508992728676
Ni 9.051012403038133 2.3519400727782394 5.967949719168267 -1.7241627537949273 2.334296589711664 -1.289038253639967
Ni 3.806514003055831 2.6544164874615395 11.190356694408933 -1.0763841109422236 0.4480838885291057 -0.19476826355625812
Ni 0.9021652575057935 3.228970364231441 12.671504869484249 2.0819235311577433 0.6386478841960291 0.38885184234066583
Ni 3.0436324622378437 8.319131413279026 7.910132875737921 0.7449414026486461 1.4082093993862006 -0.6329953138959421
Ni 5.750542973089002 8.173043253378797 3.4929308046426732 0.12008851535418026 0.017844484380588624 0.4525789481859818
Ni 3.143634533883531 8.68433814033728 3.672085915168103 0.4843315580072304 -0.17685590205221155 -0.19710616766081537
Ni 3.3100676599594223 4.22824364017469 8.883232972524901 0.41474105140260187 0.9099923416461295 -0.1482472371765834
Ni 7.271702914976451 6.353827733992275 11.474491648098207 -0.2580487687824588 0.1388827652425479 -1.1233705069940911
Ni 8.448949069315658 0.0631158822984442 2.5656041472124653 -1.5228201794552612 -0.5908353926984405 0.02281982610799296
Ni 4.872373290608938 0.5057383047986799 1.5106447299787384 0.1493253007321106 -1.7528403242352777 -0.7831179137183674
Ni 6.177668766111083 5.677585486856929 0.2891191057971827 -0.2242793856414976 -0.11772310044579724 -0.07995230945492682
Ni 8.121624815118535 9.04992770278056 11.480615191232978 -0.8484776700711001 -1.280346382292924 -0.988882014164497
Ni 0.14041946166338298 5.11622120061399 5.5440561506111905 0.11681472969891495 -0.18577917268377037 0.672658436813519
Ni 7.372024016109661 6.411881985592983 2.5129743084124443 0.16719086815862175 -1.45677959498542 0.2836029631024793
P 8.817473703044135 1.770723037283244 3.7321865130530583 0.4339230236476914 2.194883662997259 -1.0959522628821383
P 2.1907846059387763 3.08574435459069 1.410121272999159 0.0468293016487129 -0.27420429549639874 -1.828494263425167
P 4.717780716084204 1.18151203434378 8.092636884369504 0.4968564299471185 -0.21829719991613375 -0.008899102261842737
P 8.579258942275892 1.7696474521538859 12.24318134861473 -1.192893650695894 0.5031422629558302 1.1932736597431322
P 6.894537139700246 8.120968525887061 1.396513298087132 -1.2394923243910396 0.8453656068046795 -0.5840263401964071
P 1.8452756709529257 3.611514065154438 5.737806404434321 0.08000655973162994 -0.3881802701949379 0.652424112044515
P 6.983655748257341 4.235809196593059 5.7444094033131945 0.9038173231836693 -1.859003744867934 0.9863445924546238
P 2.656485621566322 8.720880689350821 10.188294189231923 -1.4411969100558149 -0.798933026373753 0.14643820899230264
