# total energy = -340874.937040105 ev
CRYSTAL
PRIMVEC
9.19112858546856 0.00000000000000 0.00000000000000
0.00000000000000 9.19112858546856 0.00000000000000
0.00000000000000 0.00000000000000 13.45214573834875
PRIMCOORD
 96 1
Ni 8.043230206763521 5.6846211559957975 10.8728450787633 -0.2495350748844928 -0.48959357773711804 -1.6680245160404628
Ni 1.5622253270154114 2.135724181112761 8.674199350055863 0.42412506372066316 -0.1360445244628044 -0.7388761702911726
Ni 2.7947281049998063 6.391262699652809 12.97556299779697 1.6170426256759571 -0.2287831870491221 -1.1137170430647272
Ni 2.5807678212596876 0.9506660091967749 6.700029475371936 0.10309712300250631 -0.06820828154512124 0.03534752626135848
Ni 6.286823904853248 3.6696775964144126 11.423091296500234 0.7138565083183834 -1.614037006080414 -1.4210219777698365
Ni 7.305467501512625 4.213222562255864 7.007344052765064 0.23432160036884808 0.14894683434676928 -0.5083875705151696
Ni 7.280936379157612 1.3689910383710424 10.188493860297514 -2.101413521561555 -0.5468150212534325 1.0515200007106924
Ni 2.891317675936054 7.597607525511925 5.492914432932321 0.0967719521154269 0.4068917305615121 -1.4082878180326197
Ni 2.3911088816584436 1.9753665596335799 1.7554651303369673 -0.8940399320819312 -0.5754769079644994 -1.3297652990456839
Ni 3.7092270229762807 5.057188759006269 8.702004352434429 1.0244797087634485 -1.7661293280347004 -0.4892338804048542
Ni 3.3221242578109997 0.22445195708903198 13.215253846180351 -0.9169438332632982 -1.5066291715176956 -0.45847294507291364
Ni 8.105481721079936 4.624700200589186 13.080355651049386 0.3861604115514317 0.2639779897827002 1.7028089707094995
Ni 4.576575451001005 1.3855074965471237 1.2075359961315808 0.6449555715816119 0.3042949442341921 -0.6478524335134327
Ni 0.4836813067471546 7.004586714171394 9.463732925628635 -1.4177952433024226 -0.01638641177782339 -0.005379262034042349
Ni 8.710956511735208 8.506270076798465 1.6929663746599866 -0.4724646313663153 0.9738096932124068 -0.01552869176321842
Ni 4.236007370168221 5.14869563580152 4.549380739564506 -0.7053068189761595 1.2310058841865832 -0.548257924347546
Ni 5.348097171767063 1.2035782961368005 3.370610218754951 -0.19966621507850774 -1.7257889765444405 1.6034000951918579
Ni 3.2335769244396215 1.1149022869643845 10.680532660322083 -0.9181070003334639 0.34192998097814664 0.4462998000454894
Ni 4.777135069175889 6.672189546704518 1.0286766326888765 -1.9329214180930065 1.0121232440806245 -2.344024872743021
Ni 7.412534959104818 9.089814834505418 5.74800777469994 1.159670626976706 1.0960584494426993 0.41393835299564835
Ni 8.069801759677851 1.9785374990163 7.693080374317736 0.6577727779509381 -2.8387776260835755 0.5742877727524045
Ni 6.0441781086103195 5.849068829722255 12.564519180735722 -0.5809513008155092 0.9823107887048824 -0.4693065453533079
Ni 6.996415800805486 0.9830187820291655 0.9046598147613969 -0.7820277659779822 0.3846529737679698 0.11530189259881432
Ni 6.283119880009085 8.163459360576164 2.1209053243975156 -0.21988999832455033 0.03233882134202172 -0.25559747902848884
P 8.577905733462003 5.278777679522208 8.621722601054007 -0.17585214337804553 1.7145167460647313 -0.551746911337411
P 0.6370362073112793 0.3141233654937625 7.756238133918604 -1.2570298190541707 1.8084921092716273 -0.2902775469091775
P 5.82435388479433 5.549511564905986 10.412848391422903 -0.16262716004733926 0.082471990552987 -1.4947496464712902
P 5.93090663918237 8.02393802773648 12.955815857901975 0.0643624254364698 -0.06364020255846459 1.5408662383236946
P 6.907087221499236 2.1877827337612437 6.034363821442584 -0.5963007866883859 0.3619452477578089 -1.866088162518541
P 5.838499031779855 2.8201691490907317 2.1567828950654806 1.6038035012778638 1.2099094685276002 0.25601425485093326
P 0.7039917412684947 3.378695654624455 2.5001891964240146 0.7495477910724059 1.4872996179511482 2.2838795707116923
P 7.5995560447847845 2.237635415534791 12.557362967972283 0.07325098617535127 0.8823797221351836 0.20464567057097013
Ni 4.825912388897906 6.5776036418130035 6.56027560697752 1.0291724862534275 1.0202379027679591 0.20435642146532548
Ni 3.9596025584101304 2.5868339661657607 5.103152674249879 -1.9495888514463584 1.2801972583095695 1.2229141083173842
Ni 1.8791997806150282 4.304720247922469 4.17864002161406 -0.270693711239979 0.40231079605904907 0.676385765066435
Ni 6.58225435290766 6.446051017509025 8.136315200347214 0.7054870533077657 -0.5001582406268419 1.2835803158491894
Ni 1.509835893735688 1.6802853744677 12.546507325929007 0.46211645536277185 1.4778436147445708 0.19651429971308737
Ni 5.927138276437689 3.8848694913930375 0.22262200337569987 -0.676885330410673 -1.4351183079619028 1.7631625320968922
Ni 5.8775797107808 7.806273719152198 4.577146220089895 -2.0261411340808007 -0.5495275350885891 -0.28234003722965567
Ni 0.2987649895270226 1.5367750917958403 10.512528938922657 0.36016115927419257 -1.9952151339259057 -0.14680690518563103
Ni 4.097901471139954 4.811234156450937 11.478191193617535 -0.7984362892429926 -0.2260228506951656 -0.43804398779460035
Ni 1.7686396941375209 1.9024992917315369 4.095721335425226 -0.44155457205102017 -0.03473997458434662 -0.8476202071668112
Ni 0.20097873364112226 5.624336543209534 2.7287679702749053 1.4985469087301933 0.1779249667466742 -0.2426054376441951
Ni 6.007257344841083 3.5000736995177926 4.431203964778418 0.8119050131533889 0.29371176940170707 -0.23153015366663995
Ni 3.6924256398121873 2.8798471473863887 12.8065776638582 -0.2349949722867888 -1.5524963663634552 -0.5265943233311835
Ni 7.9128816203121115 6.646242990538086 6.170634252080332 0.4557393481918344 -0.7622544400057969 -0.26707616909204973
Ni 4.086063297444466 2.0105134355742225 8.143915344624233 -0.20150712494198844 1.9678963915062948 -0.2594119676785726
Ni 7.954223316959865 7.129788268581287 3.7966934796189404 0.6567826461235269 0.42550703166985426 -0.4053935487494309
Ni 1.0513915880235272 9.127378977279843 5.295827223159732 -1.32022342099352 0.009499454850002994 -0.2121895443564991
Ni 9.176248208288316 2.214878181008371 1.0607325320660155 -1.220712215570059 -1.405464746761528 -1.922254939518096
Ni 1.5745138660145321 4.524452560452003 9.013004572414427 -1.2284257821642326 -0.5211844651695218 1.1378095652375566
Ni 8.244332101528494 3.359256417539084 9.297410261658483 0.43107115602119306 1.0444610369813818 1.2563829294987912
Ni 5.98844310450361 7.807836211021944 10.69025871265482 2.5764999068214336 0.6341893342040433 1.8497896824688336
Ni 8.027890213054073 7.089641418657457 12.68753968031802 0.45474047461367484 1.725071638762442 0.8665481544195657
Ni 4.89351314008604 0.22918446922863364 9.22708250260121 1.221551937862535 -2.0821580157660526 -0.45807493830354656
Ni 2.3896107276892167 5.700733204511474 2.0519635875399937 2.8628372381359406 0.33433442801907576 0.5392536639664068
P 8.285021228042412 8.406895593882611 10.814193729537354 0.17398192293852618 0.29900952746553666 -0.3500664940423519
P 4.13871927345491 6.875644370402756 3.196431897131433 -0.4719157008413808 -0.2173538621662579 0.7708365252478531
P 2.5015494834635588 3.198089976739093 6.855791532528334 -0.024446048857506286 0.008233186543069693 0.09712496457947144
P 3.3853684140211353 0.5730181580691867 4.634896838708577 -0.4931257592600926 -1.4710864985263956 -1.0210310880932156
P 3.845742856748865 4.611749900327584 0.4814377522447721 -0.8101306948617855 1.4236923255131482 0.3072851372107676
P 2.0039877342358707 2.992787736183097 10.741538776707024 0.8487936586496221 0.6472978465615433 -0.14346395685532712
P 0.9519251938212174 6.149646309818184 5.097219800709166 -0.5244615932588967 0.4185156879536857 -0.18405859044823786
P 0.8286280412666855 5.805842951702161 12.170802479397091 -0.16668461794616454 -0.5543054160932066 -0.3132770931281444
Ni 0.33724089226308884 2.345585221476958 5.912527139229833 0.1308922908379036 0.0038998492750384455 -0.12496949759556543
Ni 5.782469911556488 5.584649249717981 2.5899819277268663 1.8983213115206337 -1.4386147511509355 1.9194766054420105
Ni 8.726802017520164 0.38433255899150814 12.767243309706636 -0.9725531950974863 -0.35797546447678347 -0.5274535860076852
Ni 1.443687340873553 4.2138751323897 0.4700251278055734 -0.02185309131934946 -0.25570083737557253 -0.8590173932601594
Ni 2.2599790492721605 8.636407267291027 8.9967408702761 0.3788091133926831 0.7342798091697419 0.9371444765808893
Ni 1.1676961299045128 8.152402432815549 11.66696502753021 0.5592771582761853 0.017958384250633588 0.2607692530374154
Ni 4.513478352849198 6.970772551884358 9.355886979440164 -1.17145527831646 1.2561996098433914 -1.2057172848231235
Ni 0.7920197758713983 7.566081954257635 7.102074258376314 0.4002467144411687 -1.7349104792297345 -0.2183481077587272
Ni 7.804536595838186 2.300576264499624 3.5153686566968783 1.1271803676584844 -2.1708363922400675 -0.07382819883505996
Ni 8.561591480116123 4.388028637965874 4.5136391976004955 -0.7689886734058369 0.2869497680875252 1.1432333073562893
Ni 3.846505720426447 3.3974455570614084 2.983484475768056 0.3500196999648166 0.21780200544727008 -1.7786030350216788
Ni 0.5399383669609319 4.60054591450864 6.89044484486071 -0.414769333537376 0.0890730408092724 -1.1265908137036018
Ni 7.672156769956106 4.223911844870657 2.0406640139831356 -0.3100290185044919 -0.579691203156163 -0.42272021295333645
Ni 2.526328766292003 6.321419313075157 10.36801314677697 -0.857960926971187 0.3542807892340156 1.5366766257223792
Ni 3.4094675533298084 8.49815431020443 2.1459263339093386 0.08343718267973371 1.4965617599793646 -0.2180012659422697
Ni 0.020767355174655215 3.6012772170341143 11.438359599406247 0.9523453526910437 0.2389426440806272 0.3764925494443645
Ni 5.772543492619277 3.706359390838865 8.895405919620146 0.30294048708882665 0.8180934013522879 0.40715321175301494
Ni 1.3534488398313913 7.894609656564728 3.197804132638216 -0.14502487358454377 -0.9142536880256449 0.4543553233601143
Ni 7.7129010432418985 8.726967457835784 8.726165072305026 0.3959169767175633 -0.1407892382366414 -0.9437231582396715
Ni 4.970562371521814 4.217009307257838 6.573189142724539 -0.36005317294141864 -0.8166489555962774 1.336876970389801
Ni 5.113199496972346 0.8373890250916386 5.95416203288138 1.235616386375401 -1.2054660880442658 1.0201234886772819
Ni 2.746024314306955 5.390909448998107 6.6154830402999725 -0.783003242517374 -0.7434015689653519 -1.279382732828074
Ni 0.9758037460423965 7.013823798460187 0.6342080970270388 -0.9844987974951367 0.181447635187952 0.6345860554218298
Ni 5.317316081933064 0.7226819013692521 12.148216199863477 0.7393536241482234 1.0780234463178593 -0.49163246254401777
P 8.75275776481524 0.08446555313988227 3.7191286258661487 -0.5467430303649164 0.6029787129291937 0.5852823240906952
P 7.955565221742118 6.426170606248666 1.3836472121092611 -1.2165786530176597 -0.4564080921240849 0.30581446620251207
P 5.871375698945043 8.490856554059851 7.422477002960726 0.15005343714738673 -0.4386453688240252 -0.16480565575589684
P 1.3138718398835862 9.232764458329898 0.5142445668322535 0.23094394214586678 -0.05818920674622236 1.2776647216957029
P 3.00753949765923 7.237820794681264 7.648325092491019 0.6218475248092387 -0.4513872418707258 0.4738311726965388
P 3.384283860840959 8.136014650440504 11.33142817051801 0.5246711381665417 -0.2528104032016549 -0.877332132408947
P 5.131600136520768 2.088104943600086 10.177867077357512 0.3248450004714018 0.8772174612079537 0.43336432293074395
P 6.437172387237409 5.5880132028022595 4.884878074723531 0.48698802179347106 0.3301265605853153 0.6854615021154582
