# total energy = -340870.205803187 ev
CRYSTAL
PRIMVEC
9.23294083245396 0.00000000000000 0.00000000000000

0.00000000000000 9.23294083245396 0.00000000000000

0.00000000000000 0.00000000000000 13.51334218825684

PRIMCOORD
 96 1
Ni 7.279019485867974 5.4548581935357445 1.4457926197630648 -0.4253512228182804 -1.150801092401218 0.029759233540303586
Ni 5.288222082952653 4.425099103916793 5.484768304364308 -1.098826756216456 1.7359772299313523 -1.2934294407291274
Ni 8.226642336582493 3.890521080498661 13.088063434151561 0.13088174931494231 -0.08865395099398281 -0.3922402991969245
Ni 4.001297900909561 5.465651501008685 7.252759156428677 -2.5062380851813932 0.6649983491650998 0.03997679750325373
Ni 7.280007410504077 1.1055245995615963 7.184084544808718 -0.9718155456005134 -0.5161929254922013 -1.2201537719634277
Ni 7.795048531772729 5.9465953729209895 9.262436076128147 -1.3507167044863706 0.2717920865104803 -0.1164023247518447
Ni 3.9181091067853564 4.752157556110104 12.566718984386949 -1.260953579588609 -1.9723770529854678 -2.802014193311297
Ni 7.876630794245701 1.4545943819649076 9.42073114824156 -0.05874765035285367 -0.7099990822455063 0.44517391397116235
Ni 2.785005713877589 2.677848206152225 7.853845743619761 -1.636531330528188 -0.3679310330275986 0.4493236744734778
Ni 2.390565261737724 0.6664142578709752 4.389484882432298 1.224447257132459 0.15255563474395017 1.708862375992431
Ni 7.772547855714939 6.96460092925247 5.588482848568151 0.26508690657616285 1.114956057678151 -1.1705222249792293
Ni 5.9557452169806 7.780460485744289 12.973699616346957 0.9573134953295964 -1.977811850847794 -0.9232700325916422
Ni 2.493374054476129 1.2924731792982125 10.109844590391598 -0.5803128959005618 -0.10475702720343248 0.684789415749098
Ni 3.73301634809413 3.236394943171515 4.041313465142004 -1.555662679906579 -0.5945236401833052 -0.7474942509774868
Ni 6.5910915532812595 1.0817036130088273 11.995549894376849 0.06987024262857645 -0.5159946934384662 -1.4756054694426717
Ni 1.4335432775694374 3.4813910199845886 12.347343394234837 0.05900270378645322 -1.091758536515765 -1.4124224090262838
Ni 1.5482902624057997 1.96281236018608 2.7372898772478558 -0.9839840626422474 3.129888981747958 1.4500913843319672
Ni 4.992675656768877 2.462997680151086 7.2027461641964905 0.4918996001624754 0.9535581420522221 -0.5286172672984831
Ni 7.478746455290262 3.5251182263078116 10.579581519095472 0.22241173630513955 0.5463020861727559 0.22360292839976326
Ni 8.221924303974562 8.356706769748719 8.408744545837889 -1.442816962157741 -0.011566364681360726 -0.5546607425500965
Ni 5.48995260046872 0.35774689990807573 0.518571797725155 0.7707678767934467 0.8869339171647692 1.6866565293193536
Ni 5.204525477099609 5.043576857879504 9.45839323593435 -1.0194886833067605 1.7644182588808646 0.6611069845304938
Ni 2.025928741610394 5.406874601630806 10.510352931044052 -0.7255077194040667 0.09092757751950792 1.3895876705199552
Ni 9.03998130031117 4.489461932311891 5.405890370170913 -0.4394017873740755 -0.14366501712253968 1.4208713111245854
P 6.090352256884794 9.14024180146486 8.73883509569939 2.0076531025789426 -0.5638807184864676 -0.5822327386310939
P 8.68127232800046 1.238506641933509 2.8467611598686164 2.1278285212199743 0.3078464090308763 -0.14421549030937098
P 3.1103376061928496 0.3258461671024662 6.706671349352916 -0.5728749515652779 1.6174791989927435 0.8964097178656883
P 0.7584075840791809 7.695618995266229 4.567955776179475 0.3357570193982153 -0.7150363875590976 0.38238783188287695
P 7.255789407508762 4.037398698359689 4.3151347822720325 -1.047478483651467 0.5562818230932871 -0.3406503429347746
P 2.534589900976734 6.556624986303939 8.755834785792786 -0.33989006772998237 -0.27971442668135055 -0.7862888552471814
P 7.468174738389904 -0.12809597024643743 5.116894715289148 -0.30490378146278463 1.3414123963663092 0.7633057640884467
P 8.418096591294981 5.971865931136079 7.225205292021922 1.4114507891416337 -1.1552051350061847 1.1420865953463557
Ni 4.750421763291529 2.948558022325555 10.439204814657625 -0.4438138003988421 -1.409030095515283 0.003799833362064423
Ni 0.9544921584646207 7.91949933710016 12.348856673186775 0.6546010650911758 -0.284484080155852 0.24056423884445022
Ni 6.081303975170952 6.044242951906294 7.464986604026854 2.382996111799896 0.8073644449705579 -1.3715758073235669
Ni 0.6012241580048969 3.00525751008546 9.720511800949794 0.2694438979932779 -0.45260825876202054 0.10858539981058718
Ni 2.8660432328596253 7.823476755647138 5.5688213017215915 1.0457805271237537 -0.489317441257596 -1.1878167503936188
Ni 5.6810467705007595 8.377425488285313 4.070488633904832 -0.9820719332211988 0.8412299873697512 -2.070093628402351
Ni 6.610859278943848 6.313798650514084 3.619075398965542 -0.6665626083284262 -0.9220670134224764 0.07070533693536209
Ni 6.955958896921698 3.432401037562498 6.469660842799335 1.5704478086355536 -0.20181128644596857 0.3084603884657913
Ni 0.471621371864889 7.2272965530506825 1.2987700447358048 -0.3905341151390952 -0.720667617702946 -0.5997393800562897
Ni 2.879726450716681 0.9347982963262267 1.3498762171260716 1.5856083184260756 1.1621070043323405 -0.9144267232683994
Ni 8.410017768336195 3.9287823860314806 8.158031432252152 0.6303108250852435 -0.5843814095429807 -0.39523666282108705
Ni 3.7627925812850918 5.9883467299720055 3.634453784702864 0.347891083657588 0.1562672792675825 0.3988490627626937
Ni 5.941729613264668 3.376984928535475 12.493273712398068 -0.23334226717471424 1.0639952503595675 0.6905119200551721
Ni 3.2749332369200648 8.296434134005898 2.8911928395538453 0.5128247803509167 0.31177608310258564 1.4196027288248068
Ni 4.51266431184953 7.32648603310355 1.4094277602139422 1.955886511529612 -1.5680613106812478 -0.48968433767871145
Ni 8.250814174875186 9.527378997649981 0.817764312121988 -0.14995290701378047 -0.6133646841492081 -1.150383031027193
Ni 0.4694617870762484 0.21504995751646425 6.132408300973113 -0.3820769855106775 -2.2232182482758938 -2.4830230805175106
Ni 7.8376954840546045 8.38213428795272 2.9031790429425297 1.6095671432345182 -1.769038274151379 1.5989148057269948
Ni 5.124715939207308 2.365377799987354 1.4853733124968114 -0.4318430011902111 1.7505690117025983 -0.1191030115124594
Ni 7.992891981328054 7.726835567178985 11.105980080503102 0.36860800448996517 1.3180528957047624 -0.2001549817894682
Ni 5.64133589330562 2.0765898862673877 4.856303278636431 0.8260319394730742 -1.1005349971568144 -0.7042796632632258
Ni 0.6254255417072684 7.228884618820867 9.537338570593576 0.840093816882779 -0.41091782100176966 1.244135993810638
Ni 3.271738639498647 6.787762419389995 13.004442538410817 -0.6317989795949958 0.05861138188530551 -0.583286376706589
Ni 1.1901352665265486 7.1444863094879745 7.070153751914706 -1.4485425517876085 -0.7342170742526065 -0.16613183076648808
P 0.525797496979495 -0.03336784705492546 10.592473473949594 0.4343243728511681 0.5415182916308674 -0.7298968496106978
P 7.04581387410447 2.080190733071876 0.2924921694583272 0.747796355598938 0.3738437989676078 1.0432047959767774
P 4.93586537372268 6.9635391410921725 5.509430411798844 -0.03764892070102548 -2.425734788319003 0.2356639733293554
P 3.1557729065130733 3.920768193656363 6.074895391153015 -0.4210945044244554 -0.6735297836748787 0.10169278645581195
P 4.642617949729462 6.463529246997128 11.097412834990577 -1.610694314860426 -0.27302724446916204 0.44058089528384126
P 6.325810706136235 3.529753162451024 8.737024516062569 0.4440220597549063 -1.5581736192538906 -1.1038604619856216
P 8.844436852946405 5.592493637931919 11.02983232682275 0.9950086958875252 -0.6799840239406547 0.8403923219598044
P 2.0515778503869804 4.4588916662358375 3.0557580015773307 -1.5446786700912492 0.9050990181095702 1.6851334078066076
Ni 5.6857832689897405 8.271117411088188 10.758011787904342 0.6235670786035068 0.2036941052909782 -1.5362701343125802
Ni 3.272403411216399 3.8984706422901083 1.5198047943001394 -0.12323580273391033 0.037365328022335643 -1.6868241652454692
Ni 0.45183887349746144 4.722252061751802 1.4562923197273319 1.6992618767881893 0.34968417100226873 -0.6455505248531334
Ni 6.621818779346227 0.9889679583824655 2.57641327496384 -1.2430656435645946 1.263562477966366 0.5697855140066769
Ni 1.4870481679079246 4.814913852853969 7.719402126762848 0.22682117822674483 -0.12456943394366933 -0.12479311991870122
Ni 8.981001276241757 1.6527240526764864 11.643905968155355 -0.8741280236493527 0.49009082908851076 0.3964337684529817
Ni 3.1058134653359284 8.20688384386043 10.718282444828155 -0.8944345964171886 -0.8297500117546097 -1.073771613020041
Ni 0.36003482257000446 2.243198298028907 0.7369308411255389 -0.10131869094584486 0.12964324892215093 -0.42679438302271006
Ni 1.5348747998239494 2.50691877822532 5.542550816047718 0.0004879953800120628 0.7481198003766277 0.4083402900825806
Ni 8.411208817663834 1.987131925527163 4.997044684224989 -0.8510850257869601 0.037020028867774946 -0.8386637693044717
Ni 1.2973204730734853 -0.10343940257621648 8.167842354853304 1.6869462926456302 1.7259208741366148 2.3294983969920717
Ni 1.089348487762972 8.847696080951492 2.750370184088673 -1.1842583436183993 0.4303394200614911 -0.034443526389850355
Ni 1.7517196409783433 1.0894685159897881 12.574705477940494 0.5316807367151553 -0.986470576509527 0.5165760198632329
Ni 1.8047259525285169 5.660826630752479 5.198920158907288 0.5496301221047244 -0.6829184239786302 -0.9086779937100801
Ni 5.330121167052058 8.972470039197276 6.201610113497012 -0.860722291766408 1.0588101066142024 2.6569142435144433
Ni 8.055482085142481 3.3368124043141187 2.450698480078627 -0.8092482922568321 -0.9277836041912796 0.16313495292169322
Ni 3.8208770101236462 8.892300416624527 12.802904989351708 -0.33910948081021597 2.117941086902933 -0.2059286510484518
Ni 8.971694472193233 6.0141435657969815 3.535022401608259 0.6910330826659647 0.05538130498378204 -0.4806093719606368
Ni 6.578784043562329 5.750653909113677 11.514664189989848 0.05328534168670178 -0.7924283924860159 0.4256594980873185
Ni 3.7536889019281032 2.375783323958273 13.012699557121724 -0.11202142207532965 -0.6872684734172099 -0.7840041729780627
Ni 4.399856244523277 7.455821063968353 8.672132640175427 1.3561435319288968 0.6154534483574368 0.06939304588184177
Ni 5.3877531818049205 4.466010263380095 2.73272234157047 0.7740198080718411 -0.30285384091229134 -0.23731796399301064
Ni 8.361267842367736 6.350121038536794 13.05873961504629 0.2439637514443024 -0.2066375041900183 -0.10882965461090935
Ni 4.242831625026011 0.8786851002896163 8.574337334141733 -0.5853831113346176 -1.4376061073807629 0.30264352467369815
P 2.6424952768845684 3.4581055439822306 9.983724469417368 0.8563691570040347 0.12264702010997587 -0.17411022098627432
P 2.358342299307816 8.28400659606015 0.781945119357853 -1.2503850600441433 -1.2842166638816075 0.23727759767337847
P 4.5424036132783945 0.7765041475068659 11.06142652600295 -0.9821945748419924 1.6346215150999845 0.2231056770483706
P 0.047910651674796266 1.889789033579161 7.218421850618697 0.41794027506618986 2.341019253147478 1.4714413107626532
P 1.7836194504899003 5.285470666676402 -0.3395644701335144 -0.7994968692970231 0.9915557043419182 1.3574913042060428
P 7.189173741625727 7.498855799752251 1.1441958476536966 -0.2523501757357847 0.6123308435680551 -0.6646823605865779
P 5.191950212105472 4.979195563603357 0.5332484799826286 1.7463593444966248 0.009483514010403022 2.7837750445954508
P 4.341171674550641 1.087160280858706 3.0991500521595206 0.20547253734763965 -0.08390538056540388 0.9739241073030841
