# total energy = -340896.3611231769 ev
CRYSTAL
PRIMVEC
9.02882766927237 0.00000000000000 0.00000000000000
0.00000000000000 9.02882766927237 0.00000000000000
0.00000000000000 0.00000000000000 13.21460194187378
PRIMCOORD
 96 1
Ni 6.4860661699601065 1.9824868238876605 11.249485250681076 -0.22239193881079763 -0.007328672450929314 1.2808351490038845
Ni 4.5336814582212135 0.26734810791274694 6.137310538358651 0.8820151397069131 0.13970963201921746 -0.6755265023899334
Ni 2.7372155751257154 1.4643043342529576 4.8126388330208485 0.24582728701560247 0.674562081594135 -0.0536272984071528
Ni 3.2530776559955012 4.380245557244559 4.819524217161416 0.48119224104730024 -0.31018122781164 -0.017044614187112582
Ni 4.914038890282148 4.630723300265292 2.765195009840118 0.8378073348414474 -0.48109171091369407 -0.9924422207119296
Ni 7.274228670834301 6.079443877599002 2.682629990417315 -0.9513503357676261 -0.26321925723980477 -0.3940580691319536
Ni 5.206040212718653 4.5579148322485965 11.578713333345712 -0.596810893555585 -0.5116762685687704 -0.5255975066355529
Ni 5.699348281546561 7.836399609895758 12.448142508193701 -0.9059791067216785 0.2625227453934124 -0.44602623466912866
Ni 1.9173438307402815 6.448677793712941 0.27546773282438075 -0.9198090706262353 0.6298642244661281 0.6100081089721494
Ni 2.824605600167085 1.4042897153408818 0.37233441560760616 -0.6571819384444746 0.9661647750726393 0.7613746085040048
Ni 0.5613484128416751 8.913069276817264 4.6745203385410115 0.5576285669291687 0.4825137880722013 0.42286702294384587
Ni 8.486610649605876 2.153619227507262 1.3886301162674495 0.9903426578704235 1.3332519720427038 -0.7189745462712392
Ni 7.009674985150121 0.6480025884109019 4.784650369478568 -1.1799064944076065 0.2870217589760412 -0.5147957880343585
Ni 0.8831647307003949 7.4472300418248665 2.698817775921672 -0.24489320523710725 -0.9862021533394886 -0.47511775271844636
Ni 7.452665396208057 3.608551638421761 3.815293739196354 0.8095545106433413 0.054998210612750446 -0.67193647104583
Ni 7.657466298988653 3.905879969306909 12.770789478217296 0.04996656172611394 -0.527885274228465 -0.308343660382269
Ni 8.005500527242571 8.935776778933086 6.829174269723213 0.15735228480164512 -0.0022862249310154174 0.4492573400119166
Ni 6.912741489040591 0.6350922674266417 0.31794746511254485 0.12697290117883941 -0.07234235831815282 -0.3624211589529629
Ni 1.75843646006892 6.45718294957501 9.16288610963725 0.6946503677035778 0.36833161090012695 -0.4237823356692637
Ni 0.009015284637236042 4.9396175596635095 1.549940960920215 0.5314117993244848 -0.9070011202282895 -0.7900825179616586
Ni 6.569817577366217 2.012814656733405 6.976583428090598 -0.22938611074044363 0.14729798588943663 -0.8260350247968676
Ni 3.3350774707930757 4.466470863489532 0.6082206698929993 0.05859749792823457 0.34180451114387583 -0.6200860620334419
Ni 5.799198089061027 5.61751098565081 4.7736821493710915 0.3843722093027574 0.2578785617531817 0.21187612688113835
Ni 5.6730653635906325 3.0000537835128744 8.953328820329968 -0.7144290929924019 -0.24024285094928946 0.7753300422428325
P 0.13560216014994558 5.573450305601024 12.460286281691031 1.0030313090816854 -0.14730672764018501 0.6900414081766567
P 3.980205280407286 6.144632014885777 12.518443670708384 0.2872477589439182 0.9626192238132261 0.07993431173279783
P 2.361390614660067 8.543257515719064 1.4489020567740785 -0.08705446771734685 -0.5003317900902287 -1.5861161113004296
P 6.373566974587086 7.759410794571059 6.04380438531201 -0.8609876296126526 -0.16715435849373148 -2.223101263082055
P 4.905289956067344 1.1877784228011519 12.73440962204422 -0.18862641232457836 -0.8184510418020228 -0.7577321266554111
P 3.8314824275834987 6.080446077493578 8.293326016785015 0.5175088160901474 -0.07097993075298743 -0.1465233125069412
P 4.770065200922743 1.0451319711399678 3.6642378372486184 -0.24691563498377472 -1.3343688592559664 0.6898766004640183
P 0.09026119230690907 5.525769065571735 3.740076379901526 0.9184810958434311 0.24221411574304733 -0.1599691535992019
Ni 1.4632389325632293 1.2248688477283083 2.693109750936534 0.5893490379609011 -0.0627130627585049 -1.3488166592501802
Ni 1.844544391551464 6.492458580098477 4.997789394805471 -0.014011998008375869 0.37996893802873916 -1.1888719311310105
Ni 5.976172144318376 5.609041945100257 9.357920529301072 -0.7218169008160407 -0.13723237412331848 -0.8981837790469757
Ni 8.600563486267426 2.4509475583924094 10.13590392962442 0.8835729711123362 -0.582886313054693 -0.09133998246657819
Ni 2.3423488166631405 5.133629013128636 6.9536158957318595 -0.5014093394251236 0.055096169643195435 0.5583446191595868
Ni 0.2792273367532191 0.05700801922835089 8.977617270207412 1.5576516853121496 -0.17154631691384004 1.083038640144264
Ni 1.5825729506406943 1.097562374633638 11.506747254970133 -0.53237776278218 0.3157224693448434 -1.134163740954853
Ni 4.079007743887781 6.809605188178149 1.6338928083052409 -0.2836186468317632 0.40232725111928125 -0.21529389431343568
Ni 5.695926355780399 7.880649895331005 7.989152028601967 -0.802751885899211 -0.2742161225709407 1.4478622378911323
Ni 5.050383220083752 2.8135994589825177 4.845993128971653 0.4785000389271178 -0.24932244465305448 -0.03497728740613332
Ni 0.8300490391707045 7.542628637194957 6.984776186508053 -0.23526082435366583 -0.7512969125530288 0.44671220499255965
Ni 4.984779756714541 4.654234368062351 6.982080178503367 0.2987385331923371 -0.7963529243514027 0.3777475048973882
Ni 8.056883586702272 7.124494589288059 9.117612858003307 0.0162632559363978 -0.13523359852573483 -0.2512291747574641
Ni 4.653593321282938 0.5126189258956294 10.637279256162264 -0.24777618321185713 -0.6863341345283985 -0.7236524113628827
Ni 8.010565699682722 7.181746386869144 4.722436328095155 -0.03535035447483589 -0.2252101249858831 0.5276155655068462
Ni 7.151048372080358 5.891572027091634 6.902184983484401 -0.10249034265644284 0.4596767355730277 0.502195839882161
Ni 2.279110906198242 5.283001941559715 2.6898458296582555 -0.7432557874161071 0.5475524136400892 -0.4700981880166678
Ni 2.4454399733861862 5.2208474904403035 11.328296986354557 -0.07317179619798365 -0.6380665577712624 -0.2977052068318163
Ni 1.0824571455919796 3.4464209761975773 3.6300384430083352 -1.2497805936909252 -0.21775495425941854 1.91382892023793
Ni 3.684637570958554 2.648877523157045 2.6281464314639478 -0.024865652893428146 -0.35301812047150816 -0.06546208625855178
Ni 1.1872005778168924 3.3319173810354066 8.112946287651685 -0.6124216035096485 0.28496539066764476 0.47571424865186457
Ni 3.6869489508955926 2.61082101364683 6.965376846927115 0.5054513707049811 -0.1787870576366534 0.5185858512044101
Ni 4.116034967019784 6.739451195557895 6.174218580962651 0.012077242879508234 1.2027180929854835 -0.5542498802649228
Ni 0.6790825226189715 7.354341460605153 11.16618077025498 0.6208149697796664 -0.25451838703169716 0.6318313754948279
P 0.13153467319043144 5.611001200750011 7.940773763060417 0.5744816339307655 -0.3823392380331286 -0.009810558332518588
P 8.624697543188137 1.748631152992267 7.917330411472451 -1.1572244794290585 0.4219360264891443 0.1429206827573474
P 1.7185200120156197 3.127333170123908 10.335972823713604 1.5053816722638396 0.6719105029039009 0.2709150832221657
P 3.8308233231483277 6.219372652068591 3.752524424898378 0.7879284477331333 1.490206507185298 1.4110157584867442
P 6.989116344069514 3.924136259278357 10.516273099161598 0.07172632200070872 1.3363840899137822 -0.8506757061636834
P 6.28146390139285 7.707783956758624 10.277036246850287 -0.3960391041177244 0.4662777858293131 -0.27158074183062264
P 2.4616196329454523 8.507485299662251 5.892827034166823 0.19169528105788922 -0.8935915316906029 -0.9584039001802978
P 6.828358063682946 3.881917460115898 1.6799723342687838 -0.1382844695369167 0.9091986421002407 -0.6108408892860899
Ni 5.101477357051322 3.100833560298882 0.43341533909219854 1.4224890492336661 -0.5145209371064171 0.3815038866160268
Ni 1.5556218994217161 1.0567791591039484 6.9969073196463505 -0.33514586817677766 0.4665899177530932 0.24683978744051682
Ni 6.816042742455916 0.7411828007711093 9.130457268544049 0.10028176504089827 -0.41816756058564764 0.07498185282352893
Ni 2.709442900569744 1.4997424836782471 9.14458377264362 0.19518478226838645 -0.028672428234028036 0.5675872208037773
Ni 6.356484432239914 1.7985695999913178 2.368651598040403 -0.28702150186572506 0.3488907285666959 0.932213357827859
Ni 4.0498085145269185 7.002876277757193 10.25261507320302 0.3588568386404723 0.23458359578098306 0.5252411517373987
Ni 8.093007927046369 7.28894566027716 0.17894685414892308 -0.2051002416098855 -0.46216942008789436 0.3722098629086106
Ni 7.726934100690099 3.9478008171493597 8.343157923615092 0.5190604768479835 -0.06638356963155664 -0.7368372854842729
Ni 3.0651877478323746 8.294567480618385 12.30453900077734 0.5052138007728783 -0.30921757834679003 0.3838893561290679
Ni 9.25644462988559 4.928981600421983 10.303095249874815 -0.4413229156561883 -0.8743414252117393 -0.4391449341682631
Ni 8.805490792638327 2.1586663422916534 5.647538158528182 0.02518164147195018 0.8876885359426067 -0.11860678860233123
Ni 3.6337691546879607 2.652615457898974 11.653389865850587 -0.32451718481833786 0.7729240039045011 -1.040180150217841
Ni 1.235288115100737 3.382262125289015 12.574473867877433 -0.6125357604900096 0.22909377631100541 0.7216659770604732
Ni 3.1487224633693884 8.319387728457906 8.04009448126117 0.15684526325823955 -0.15231780770153122 0.6032072840002322
Ni 5.619885567383002 7.882004219512863 3.6912484787315982 -0.8439211610486692 0.16390088455344032 -0.07057215379160749
Ni 2.9165371256316197 8.536928307375847 3.494429962678874 1.7418041210257744 -1.2982718564230933 1.0703091083927374
Ni 3.6268350148768467 4.048020806606866 9.095716144631023 -1.2668128665828635 0.39678035315912313 0.8104286857181784
Ni 7.330685931562029 6.052429624584871 11.367148032718129 -0.43878266573283786 -0.07099150071721322 0.309545393999854
Ni 0.47595917605830396 9.103676862171985 0.32373042936907925 0.8062776396642823 0.020007553470178446 0.30211336320184096
Ni 4.5964950137757965 0.19144365481632258 1.4803521729251894 0.35409335581355794 -0.17620849827619975 0.46186988656960465
Ni 5.910984007031601 5.682852613011528 0.3968305285262692 0.534723380196221 -0.3907372322888368 0.8355054261811482
Ni 7.983298639487977 8.86697711049469 11.169377878206953 -0.37707259031755064 0.5666765360640499 0.4835093192162512
Ni 9.004558389715724 4.7811616303861015 5.839585841929613 0.3662919547622788 -0.7856069986888083 -0.24388147614314126
Ni 7.913532886466521 8.647296699369411 2.5712575927636006 -0.2269217083603511 0.45174565365140906 -0.3306240690470241
P 8.574136107065431 1.5217728237031405 3.457402739546871 -1.0424398927862948 0.30612274147155016 1.193131734848629
P 1.8756938477342027 3.345243930984891 1.6919048331937425 -0.8865785907078796 -1.2089123947216533 -1.7993014439112947
P 4.765866795958983 1.088786353935197 8.243480566713117 0.14594532851628414 -0.19161480552894097 0.048155990879936425
P 8.623505737908102 1.689320782654757 12.26519949482551 -0.7415395760559487 -0.08910312271625945 1.1536033377367036
P 6.288479300654875 7.694249743767922 1.4465365038697662 -0.19161531974957322 -0.2675150564016812 0.002902004138143389
P 1.8654732145751127 3.1279561592475624 5.97730797086556 -1.0172705926095191 0.33029342518048277 -0.617641200037375
P 6.721185876758568 3.8678686039360892 5.776314524801562 0.650418394468396 0.5608360181228728 1.7000694602911497
P 2.362690765874651 8.531583241271447 10.193202677110477 -0.39403210099002456 -0.18760825547270915 -0.3987279638037972
