# total energy = -381169.04656394746 ev
CRYSTAL
PRIMVEC
9.25966002102110 0.00000000000000 0.00000000000000

0.00000000000000 9.25966002102110 0.00000000000000

0.00000000000000 0.00000000000000 13.55244842154008

PRIMCOORD
 96 1
Ni 2.7887965414938947 1.9725575354187737 7.349817879933107 1.948420799280186 0.6822597073487088 0.8401676075435079
Ni 2.881976497456844 3.7411340264265567 0.12952226851023918 0.02351942327817885 -0.547173947254748 -0.42122074558967454
Ni 0.10006543894556333 9.057336174615768 1.1282886133449002 1.4440976286423775 2.14621113749222 -1.668928515911971
Ni 7.932167140637253 4.443738488173216 1.3651516354583682 -0.6913351872874159 0.6102713899358652 -0.39920053256484156
Ni 8.740442839336032 4.860839861158512 5.796883122846813 -0.6700971038442459 -0.9525605540256432 -1.3794606093882824
Ni 1.1447532143284755 7.135095630223794 1.7717247753193601 0.21786422614377315 -1.2724415256235504 -0.3264218580402185
Ni 6.750458624286704 6.565608036898414 5.552939238930218 0.6402082867046136 0.5927369805965276 0.4943575747846648
Ni 7.112316867263558 0.8544091754550746 2.7679928639561866 -1.3446095631473682 -0.4904052750051361 1.4972639282527118
Ni 2.7416648734176343 8.123332815968176 0.4692471468107305 0.694676592955823 1.0208950767359837 -0.45357370799908336
Ni 4.639654368950725 5.407011631258738 7.29681373564978 -0.31635727471536484 0.5155617196661056 0.12429458301572786
Ni 7.110890879663608 8.285460198354668 1.245327934559735 0.7433041241555393 1.8435763545692703 -4.097130534824545
Ni 5.7208585384840385 7.474073253983272 7.966440845198641 1.0500647563214045 0.02854695839975729 -0.3838978407695001
Ni 2.0221707923053365 0.3476029968072266 6.143595340387058 0.7589490297816478 -1.8025181510763795 -1.0165198304864236
Ni 8.511173664175283 4.314603273440106 8.234548737172567 0.32568266588134875 -1.4382882210494519 -1.2035819836476755
Ni 6.26906743372705 4.022368412047811 6.269877653954294 1.4504616231871923 0.2608633554131185 -0.2529219890788547
Ni 1.1281876830537347 5.592510394828823 13.117008051891876 -0.38243076930567044 0.3220175583249357 1.1819273814923774
Ni 4.908841937250327 8.224364963390588 5.644689503429321 -1.20144719669286 -0.08643020386978664 -0.31150457460875386
Ni 7.049258584434612 5.363472711161573 3.590138606979412 0.4405379578610477 -2.98080793581617 0.2583223341588196
Ni 8.24481029209636 6.335014730394855 7.370851197032366 -0.26349693638122357 2.3959920098389316 -0.6083042389071652
Ni 8.697283565288203 3.5402457083687033 3.3987238468014844 0.5184287568012556 -0.2339649883603777 0.4996051963368492
Ni 5.888958401402788 1.3031304345202948 9.170928124509427 0.4327914811464094 -2.0653555994967334 1.2942393382249324
Ni 5.607899949316592 1.892952240634567 11.411798190382378 -0.5250056386878248 -2.864828043313724 -1.9498192222896098
Ni 7.497213143673366 6.557866961355831 9.514644842123804 -0.6456279150582881 -0.23314712044477265 1.5974508195869586
Ni 0.4418913340410455 8.035754954147887 9.743871422849748 0.4253566221349191 0.9902670674374817 0.44331552060618495
P 3.1202182829055882 3.9819314779635224 6.755610698966001 0.7212679702911061 -1.5474559757260704 -1.1138060032341077
Ni 1.6393857183162333 5.27772826196979 7.234824943520796 -1.7601242594912008 -0.3097289707655698 -0.03227042999793152
P 5.668559980272895 4.988502789992973 0.6389628203540981 0.9469930872401949 -0.6641133754569852 0.178976290829324
Ni 2.8875971109189833 5.5820192003434785 9.289146200409157 -1.475436290854659 0.4870656691089418 -0.10067462960394274
P 8.744572647580043 7.262638183481634 0.05927848972310508 0.22758016787995644 0.22451618424265204 0.38368752453090693
P 2.977888053043073 2.3827975005367787 11.45592509887303 1.4396249375830046 -0.02688011222029564 0.39996389309342734
P 4.810976593458971 9.209435345503914 1.7531721210644298 1.128687034110998 -0.7164229834939791 -0.3070766207443873
Ni 7.119557921180185 8.348120315814796 11.801132621705536 1.1649668423786388 -0.6072038067541349 0.16686845182219648
Ni 7.185282986014232 3.202879265403973 9.801279461305388 -0.020941378138357482 -1.4828487812686462 1.2364705068455804
Ni 0.9304106106684992 2.0095035777811074 11.165197710086396 -1.4660656482730363 -0.8147514814632485 -1.6478485553132203
Ni 5.171584782370934 6.980635246101966 0.5068793299597935 -0.33372533368016716 1.3569246330692952 -0.3658589809899183
Ni 2.47291250912581 1.8653214159706057 4.343370258354157 1.041748008925593 0.5284686575357608 0.9689145699036346
Ni 6.653019224843385 5.503756556221562 11.933973552266568 0.2536429264052793 -0.3891588320581233 0.21467400134124962
Ni 2.1361942423428752 6.77450596063131 11.40124125231288 1.207188212941695 0.18892054652622947 -0.7202708964851595
Ni 0.7407033317466154 2.4532635111576715 6.474289272543192 0.006448326728505024 2.4890111797801455 -0.10918061019242487
Ni 5.026226643773461 6.030779349979606 9.997965745773259 0.8380137944252987 -0.27610536917385353 -0.02477540717246701
Ni 9.148534563394373 3.4955030325053453 12.999114990049017 0.3239903657805904 0.3437068703729113 0.025515113551968963
Ni 8.291858623234962 1.9560938604011722 1.3864970030908625 1.7824640606389817 1.5971497434067718 -0.9510896259070716
Ni 3.806442406572306 7.939241520678562 3.2812641370344564 1.8335192274435843 -0.09150556151016499 -0.5153069233428222
Ni 6.87452880514207 1.132206375380866 7.202272609705062 -0.14823052500603506 0.6082250489297977 -2.0132501370507456
Ni 0.4087649013214341 1.242146315473094 3.946649396456454 -1.0962091160879508 -0.6181721328401806 -1.032046722477429
Ni 6.917873272384698 9.1668594300197 4.960534913714478 0.8800695859447681 -0.691977191746789 0.1733787421368885
Ni 4.942454502106284 2.8730779644467686 7.948605814573557 -0.33290618021298146 1.64606472393992 0.3181094815197812
Ni 5.5045065886604965 9.321792056788265 13.126914961847628 0.13363205836656986 -1.1004632633786144 -0.449476140890942
Ni 1.1796621315480242 3.079003537403145 9.145530729774737 0.5242934431121486 1.4843058254301469 -1.0371706739675557
Ni 3.599377895467917 1.1971443691370183 9.561577427515655 0.6097995925057691 2.6007857759519917 0.3077271098441926
Ni 2.602844054596554 0.6567348852929522 2.0903024427057915 0.07018314588330493 -1.448609914690434 0.49600616613168125
Ni 8.675291873405861 8.13932424833904 2.942493929653152 -0.6448684111844442 -0.011789022215128083 3.3518402334769117
Ni 1.6297741915061823 1.735232456284283 13.180257083711465 -0.09944512807221582 -0.6033188698774319 3.4249647213767274
Ni 1.3646979121311116 0.8530813402483681 8.779126919831551 -1.5001993567319516 -1.6357926525899507 -0.1666581355836033
Ni 0.12609897230438583 5.999083534689815 3.530087861633996 0.09126490625426864 -0.7266929979614194 1.0769160721862938
Ni 3.4135550438069355 7.52294573809064 7.759115211689587 -0.3301790110898055 0.49899918732173415 -0.35065373400438965
P 8.598131128792996 1.897535772205834 8.295128209089132 0.506398822219915 0.058183807429583664 0.7402558242475187
Ni 6.432352273581034 7.254387826653354 2.854294744664313 -2.582377705758449 0.2031821986515662 2.681128893087434
P 0.6699845324148227 6.156247739455703 9.008556287105801 0.0767217183327711 -1.4503086425490956 -0.07465095184667143
Ni 5.443429873015896 3.3349034939759417 12.914466884570444 -0.8264433159788799 2.0811586279672607 1.5253393463326892
P 7.364272208787143 2.9492942237661595 12.009338848855858 0.5185783950052424 0.39993921050307896 -0.1749345166597826
P 4.2628602948133585 7.708574136897083 11.806066168414972 -0.7399341792420417 -1.4779927387279255 1.6813577428142592
P 6.2604466905091725 3.1099493202540023 4.097338321166207 0.03937233115003542 -0.29050560375958356 -1.0292660744084983
Ni 4.048258420680664 3.9031595525559095 10.319579655588415 1.1056586915366249 -1.671071787507219 0.14755715308809428
Ni 9.04336334806821 6.729781804087432 11.591815235386422 -1.8179149452474241 -0.07030990126915633 -0.2701686919744444
Ni 7.765743276131431 8.65734665282987 8.419499328886047 0.5455911761486604 0.21388158734694135 0.08026341293744242
Ni 8.40858589391656 1.1098813357478867 12.680565101641806 -0.5879794113068841 0.013049891205422687 0.705197804202121
Ni 1.7843364318851493 4.194959209940428 11.336555121301654 0.8012691307060974 0.6499224286685839 0.2751455763637455
Ni 5.823761137173918 2.8001025860363535 1.739402081065175 0.51994133679104 0.8010009646463754 1.0834464171056437
Ni 1.5103986581389621 4.293630144129157 4.886267812770344 1.2646413128528415 -0.23060738474205444 -0.295213293647898
Ni 4.180597477683792 1.5998191922474982 0.514591700557184 -1.2712601037209397 1.281626534556928 0.11748398785179767
Ni 8.401428176937593 0.6787488003586697 10.431644687590959 -0.8101304377514693 0.19325336957362846 -1.3954194467103838
Ni 8.997259502223082 4.7902627346207405 10.468954634581072 -0.18947513347811884 -0.9172351392514719 0.5299035902100744
Ni 1.7378992382893836 8.3115076212031 3.978510959655591 -1.6635148010955674 0.07649391859268116 0.49297097884978325
Ni 7.7866978861229 2.0673579318362107 5.1697439620146355 -0.41140684482304635 1.5336887467386489 -0.19708714149742185
Ni 4.278833207864744 3.8767602626373594 4.777779787325336 -1.0239503186225396 1.5711463773644747 -0.17009621473087477
Ni 0.8812621887008811 8.620169118974038 12.285402640478335 -0.31136856325152185 1.1943437528788592 0.13537860874403135
Ni 4.631218818927646 1.0179329145303488 3.665490014079093 0.49256294477808715 -0.14802766496660957 -1.0323172025299965
Ni 2.6817178362613063 5.936127108118009 3.272048923661275 -1.2775770470779029 -1.0383994041683342 0.7064548165376736
Ni 4.989752844057864 1.9211756835218836 5.706651442545059 0.4389927248611149 -1.5315020234999754 1.3617757905140095
Ni 5.379519701490877 8.29632177922961 10.242655958264892 1.2545407340837298 1.6615579344795126 -1.2943563234187707
Ni 1.2397295442809715 4.53904816587635 1.7014013634584626 -0.5501410003028718 -0.7510667988200936 1.1120486542233687
Ni 3.9463558652426984 5.394612946866968 12.3675978620918 0.9259411516659021 0.8445173998717713 -0.8425255662527231
Ni 4.6945548915487905 5.034338105705642 2.6068673767535553 1.3590614769066403 0.9315924364144085 -0.18947179104400916
Ni 2.943710648942979 8.47143120457149 9.838115313716816 -0.9568069880068233 -2.3245832190786415 0.449819897383606
Ni 9.044983788522698 0.5218734969766674 6.316796349856536 -1.3817144384194655 -1.5513985053135861 1.130944205576291
Ni 1.0625737341365673 7.533122104144827 7.10937044353431 -0.4491359839427039 1.363599988206942 0.6747412874844767
Ni 3.420564606230065 3.1250610849495737 2.589506440707154 -0.7831600798102125 -0.294243473535461 -0.6591331486335745
P 9.035677830484065 7.955344068966306 5.3649801837672335 -0.4926259368055386 -1.5334563190128687 -1.4532836660170196
Ni 3.131922492816864 0.27326274455114596 12.214740325070956 0.9270575246585324 0.2638304084612424 -1.3194870570481274
P 1.3987642003143261 2.2902749804153655 2.091820100937167 -1.8941016170123317 1.5891708389663535 -0.10008096188400183
Ni 2.650383147701372 6.651287668472017 5.55937655438142 1.08224725459122 -0.03711978767043285 -0.4014893285990182
P 6.339440847750543 4.680841335473948 8.612634533843654 -1.1952315548004513 1.5033433016775724 -0.8110213249968549
P 4.76959517408121 0.18777756583208163 7.46136807485411 -0.4673874739537241 0.6894577677590449 0.50704468333403
P 4.891165246806794 6.143747198806793 4.623390702583507 -1.1368518293099776 0.45382670455015395 -0.5329701449505402
Ni 3.106726958664505 5.965415411875417 0.9568478651919828 -0.12909123307342285 -0.9863713319275013 0.5596569102131072
