# total energy = -381165.12170237605 ev
CRYSTAL
PRIMVEC
9.30743515086225 0.00000000000000 0.00000000000000
0.00000000000000 9.30743515086225 0.00000000000000
0.00000000000000 0.00000000000000 13.62237215325548
PRIMCOORD
 96 1
Ni 3.8955896546274915 3.651697630071389 11.065030449962745 -0.5493123337539895 1.2306549286050676 -2.757508654699754
Ni 6.121220721638392 2.586322092336143 11.789522114618885 -1.1777434253180168 0.02868451241888608 -1.0802145404319072
Ni -0.016211690137834706 3.09476864696333 0.9753009748423049 0.7974387012164137 -0.5075313931624614 0.3309745104079074
Ni 1.854664633537667 0.1298005566042192 10.830616186382274 0.2857670606333337 -0.5114489830493127 0.3299113592507157
Ni 0.9323164481667038 1.8620454294265767 3.1734136797786148 -1.0876733107027978 -0.20251885403595443 -0.05377539394924286
Ni 4.452742016173549 3.9151073456477232 1.5005856099772177 0.5664721333627277 -0.4218668638141057 -0.08806002616372577
Ni 0.5718553164839022 5.967880731386453 5.39530408869651 1.0591240383101952 0.15210749146293803 0.4163431057823991
Ni 4.556938750065534 7.755913438355766 3.7384829454647814 -0.38969747817041267 0.5444087258047849 0.028704052802911856
Ni 1.349047539125144 7.16589652411899 11.040265227136501 0.8120577366811692 0.28747298758084683 -2.1642271144536664
Ni 6.865219839136357 3.73150888448173 8.949148932515108 -0.3638771746731991 -1.3671218853172713 -1.1751214143141375
Ni 6.102335936192493 5.246452143561384 2.905447974810576 0.32593874775621284 -0.19157855297436682 -0.9078488129405655
Ni 1.5858566057096708 8.578541766029657 7.300269823497763 -0.24412444539188277 -1.3876608858108874 2.77479546680466
Ni 8.048213431913409 1.9094761177618653 12.783220165317458 0.5259088672283846 -1.5836925894606015 0.3818754110228326
Ni 4.32510916116142 8.796735962780868 11.952677725733931 -1.2084513959248349 0.7495727307730704 0.6337830999045602
Ni 1.7273575387476205 4.967508319109148 10.429165111326512 0.5632983636204363 -0.021703453115362623 0.07307332294690641
Ni 3.0841023265488405 8.212731651500253 9.340751810685553 0.36561652596180905 -1.4162145290788641 -0.31193960526364345
Ni 3.9115891352492267 6.666143113703961 7.091343970436561 0.563119671950727 0.5274299318586013 0.4727515664791149
Ni 4.0136637739802135 6.7265297514432385 0.07019667414143378 1.6149847147056637 -0.8464328717269294 1.125221958380533
Ni 7.753242204534685 2.556622067517088 6.365094131324662 1.6203333806120868 1.6679111303910499 0.21314985138723935
Ni 2.053806511014479 5.624641146529944 7.709186392100177 -1.6725452867289519 0.11867852238053112 0.6912480268902482
Ni 3.3216466804917832 8.557041591372178 5.569397797325612 1.1413828844111116 -1.002466694827467 0.10572144799923082
Ni 8.871437435421964 8.851072767824316 9.812112890887319 3.3756810446502508 -2.10898619170249 -0.7161514750001473
Ni 4.047691756035515 6.054895940422288 2.335120008396497 0.1352492822550187 0.9400721917506455 -0.7875489529065275
Ni 0.15542299418628672 1.5748924473778476 8.25203787989679 -0.14162073299900124 0.09083141826127583 -0.16062298513311693
P 0.8158934677681969 3.1964058362532346 6.8905770148233 0.8764173339041617 -0.40018937884067207 -0.2886433537398642
Ni 7.471459612432868 0.540033196503849 5.307507985871168 1.256954228621229 -1.9382374309892814 0.13596224916164323
P 3.0238739152031475 6.341602165595017 5.129980764501311 -0.38267219589251517 -0.9467449757851308 -0.1984493119522711
Ni 1.4252661236576554 0.2067814200564049 5.4126726929944855 -3.05404966602014 1.7806645455363979 -3.010987030502711
P 0.7985025256264218 4.3075925686482694 2.521977933270304 1.4087423890715352 0.32826533900686045 0.6728420135792348
P 3.1976623399669832 0.20157763319450148 3.4124723533824977 -0.7518306735693115 -0.13938798701374058 0.5749871128122742
P 7.690212255279079 2.122616377353331 3.917985204523954 0.8539998854409099 -1.2522434534091207 -0.2492085447830095
Ni 6.272578228253082 5.489320350276655 10.251979472818096 0.20337143184423684 -0.6653130521920413 0.08181533080559458
Ni 6.612280987841262 0.9717427424736665 7.7936588099167805 0.79813495595249 -0.4428223830198503 0.34024230886307855
Ni 8.745256540256833 1.0582739648938349 1.3936636591416351 -1.2351736424110276 -2.071150608911956 0.15645137025393055
Ni 4.6349815918417105 2.3174954496383138 8.48635627689762 0.3150580962879671 0.34236732562588135 0.4722823401521802
Ni 8.53768212674553 5.1753433407981175 1.3924108784018532 -1.097697527708019 -0.8485329487890677 -2.9687864858752615
Ni 6.552378336717652 6.068931552276608 0.4777664569114076 -0.8787621799872544 1.689941113607896 -0.01924085050748299
Ni 7.897330604479466 1.2939102946788628 10.42614112572209 -0.5942171646864798 2.7673546942558986 0.17599895336855495
Ni 1.8158433225002868 7.551540782455793 3.7265359220057594 0.09532262126341004 0.2649020442588664 -0.40916021488071463
Ni 1.9482601990595787 6.180797612539918 1.4754797350330247 -1.464642799783581 -0.6455222427183592 0.39779593890783105
Ni 3.606668259944598 4.3517098101532286 3.710298171050158 -0.11569604271343945 0.19871053603345779 0.8125796706229103
Ni 9.05140599697046 4.846390668538678 7.781779730732651 0.18851096979263662 -0.7234760336860185 0.007484481302503238
Ni 3.681611725893527 2.649482345680584 12.982515615470394 -0.6035847219443089 -0.43990829469684883 -0.22509185424046396
Ni 2.7186272796764355 2.14501006576281 1.5928092595924142 0.4226538784917753 0.6476364608478846 1.2563212230229202
Ni 6.846995881569541 8.1621922799028 9.389955565372468 -2.975748004794759 -0.32333602002604317 0.5115076042013901
Ni 6.251450350992269 1.2685568419658866 0.4996594053223703 -1.0674880940041744 -0.7773205903103 -0.6899887005618504
Ni 2.7999091088036088 1.7755700516159083 6.4942748127634315 -0.06260456220509864 0.6234791468753907 0.7457857529268124
Ni 1.1998586648460348 3.8164299206613164 4.624604732653129 0.27487381075959755 -0.2704222027461472 0.6219609104586514
Ni 3.831759265969052 1.3355889882356569 10.583547534289115 1.2433908881144975 0.5156074853023765 0.44619824147061865
Ni 8.604304745878967 6.4798827261518035 10.818356433110052 -1.8430179109626388 -1.194533500292162 -0.7858995902285627
Ni 8.83772590615383 8.506772135387308 12.349742206713474 0.9715733476827203 0.3570161858873077 0.5315796923609167
Ni 6.642064779574567 9.097049657801751 11.889156343914726 -0.42104616768502323 0.023713284456539807 0.17860965151852468
Ni 5.441871047071532 8.17249561035554 1.5266864497140014 1.1352096657208641 -0.33597222073281496 -0.5157751212284923
Ni 6.776017382895107 7.262731076991899 3.9484167937274584 1.1795154296167751 1.4182744969316865 0.21124852059946844
Ni 2.5613595518896672 1.038719044133937 8.720606729623556 -1.2021601635994845 -0.05376922330165578 -0.27700911193504546
Ni 5.438250454888953 6.773299611899444 11.906592892487593 0.8434835592906184 0.51575866616826 -0.12506539974348138
P 5.891559765069858 0.9678801569832536 9.789731302143231 -0.7387237038737083 0.028945479389756598 1.1813650812310041
Ni 4.747787703031604 1.6976388990587319 3.086734469143271 1.7295749259494342 0.7368665960603116 -2.9744719662958126
P 7.270139795185558 5.046705282814989 12.093314928811617 0.5788177994122742 0.6442377195789808 -0.4226119695102463
Ni 2.314768371207733 7.7789400323395785 12.84265465246476 -0.9238881257916153 1.9020944054098208 1.0575872899506946
P 7.418081473185835 8.244246626128055 0.5463948282693846 0.6230443733308173 0.704828079567528 -0.6699340959038204
P 0.19139157642171112 6.935723658630041 8.632238219550839 0.2745513944231723 0.028694025500582837 0.009176267182629358
P 5.637094494448433 4.444179176050224 7.158624625218605 0.14633947863090926 0.2671594728344754 -0.17834174256911867
Ni 5.223509316491822 5.866978829454965 5.030783053903062 -0.7835043505235086 -0.9746784689706052 0.963192836928509
Ni 1.564682191274274 0.6921501898077387 0.2652302498460331 -0.21701679054181333 0.1751155223223371 -1.4822638552994538
Ni 7.197122968264377 6.074516013226603 8.22902990078281 -0.31106028798248364 0.6815958485124648 -0.8385516692066396
Ni 5.461360815787015 2.32477386374314 6.336555674383206 -1.9673317772520762 0.16508950554490276 2.2199740303069833
Ni 4.880902637209646 4.544988003632546 12.881600683130022 0.4525727775383948 1.7187940332838465 -0.17810700085049327
Ni 7.994062775568293 4.167878663114318 3.7366987101912583 2.097677965778523 1.1849085756078883 0.2869957908341122
Ni 6.740351292294474 0.4680113343752585 2.751446225936063 0.47337454477509444 -0.22242484893126208 0.5605521683338669
Ni 8.04631471519041 8.481009155537999 7.370547472322971 2.1564477276185636 -0.7982277727766124 -0.5320211507737096
Ni 0.42454002885351616 6.291062793997566 13.052629453441071 -0.22607067321396548 -1.0717674381058186 0.22822500055280695
Ni 4.163457631528906 4.894109887356382 8.954529560640427 1.13230174804545 0.8495886437470916 -0.4855474326922024
Ni 5.280675581749935 0.624011389526378 4.958543397797422 -1.1440236644680684 -1.6499617450014812 0.11413306910169375
Ni 2.576781971546569 3.3456505551418436 8.649007425040182 -2.353290100095031 0.1365011523842488 -0.3167833065091899
Ni 5.98560208746777 7.5786812626727675 6.686582240780941 0.38329697396070767 0.8566131546940408 -0.7246795670758165
Ni 8.926639831912663 3.6448473579727283 10.08879687014179 -0.08204338765600064 0.09992386748084725 -0.4872752140165866
Ni 9.207352068999064 3.7836398274499303 12.42722660239465 0.3505922846388349 1.9145043490383995 -0.6913567845539706
Ni 6.706155776410674 2.969881485251615 2.0692931519723063 0.05212963081570377 -0.8662532488869662 2.120945935167528
Ni 1.5883230759625848 2.6556997122049113 11.018264312480504 2.191200043498084 1.3188951891003995 -1.3025172619630085
Ni 8.922823783596833 8.80923584787394 3.2825424234329366 0.23924731980523958 0.5185300582658101 0.7756686565291738
Ni 4.344878152924402 -0.007874089939492571 7.4614085134663695 0.401636909920476 0.17275139296553474 0.5140442545803147
Ni 2.089472601615112 4.053778818471009 0.222571483392515 -0.4767987399652949 1.4072179820072088 -0.2746452396885593
Ni 3.0390543415522164 2.228842132057147 4.2215183412825095 -1.764921423769528 -0.18307925725410404 1.865286235442536
Ni 8.813684801764103 6.451150674564081 2.93808635683282 1.229150061924767 1.8620376465982513 2.803776941638674
Ni 0.5103946007552435 8.126972946178167 1.1080854950808046 -1.1631210474191518 -0.6532214111348299 0.558444892182877
Ni 6.887352919368169 3.8387770718962115 0.12909133006356988 0.8506150281290771 -1.0471902629870866 -0.6322746336798336
Ni 7.517773408578158 5.676334640057062 5.763093894632688 -0.2201867036293627 -0.0756379983502891 0.4454899025496844
P 4.7313042357942034 6.941829335935368 9.719275881311114 0.6215917000446909 0.0746254979253747 0.057319145436443224
Ni 3.1433162274886177 8.348257211321707 1.543959187432335 -1.0792357214584059 0.9931657291415155 0.06655994730842085
P 0.5407908217060649 1.2452882546742419 11.866761724761755 -2.502442365584387 -1.0846977730142418 2.177376507351431
Ni 3.503839718985361 4.152977459812749 6.282297051793057 0.3188903255498637 0.24855034237372034 -0.03535806778431975
P 8.701278910275624 7.741635833193613 5.196240393672999 -0.5820810435445782 0.6195571861131652 0.08569358281407823
P 2.8557723331733893 5.643246708928342 12.309733266980729 -1.2225191868718106 -1.496619095579861 -0.6331074139937742
P 3.9821581067873266 0.9513408451363525 0.3185413755616662 0.8790938522950603 -3.43718311781979 0.755384452358841
Ni 6.0052593900117515 3.3306935072307744 4.5983810347754455 -0.6580368302456022 1.476740097267747 -1.9302263877593469
