# total energy = -381165.5121768908 ev
CRYSTAL
PRIMVEC
9.31066875264003 0.00000000000000 0.00000000000000

0.00000000000000 9.31066875264003 0.00000000000000

0.00000000000000 0.00000000000000 13.62710485630520

PRIMCOORD
 96 1
Ni 1.6553903448195997 8.340171164697145 6.988292791966369 -0.4102200236037967 0.7427641924916691 -0.6892950169289355
Ni 6.926848895891856 6.843071498762091 7.126621397118285 -0.8986779450745749 0.20716740855155935 0.13377192637854382
Ni 1.4741209355376017 2.4224218551935035 4.860338525268465 -1.543578237938219 -0.5669963812973139 0.2846578867295549
Ni 2.9568076862962958 6.725198432784892 6.0528461815433365 0.4807939771676171 0.5043550523170088 -2.1530147906776147
Ni 0.9205057803303304 -0.06053983014193875 9.280166967856074 0.41322949985408186 -0.6693630538916988 0.9212465744037103
Ni 2.8425099171070305 4.088780167763588 10.30324931652585 0.8396929818999345 -0.1758464869510907 -0.31580911552137875
Ni 6.450868889660705 5.787334772762517 9.095151876548591 -0.4770201119474817 -0.7580884815535653 1.096605323085105
Ni 1.0905493163383384 3.768260397126536 8.562046262394604 0.539949918702483 2.3793358893394894 -0.0786706145290258
Ni 0.21201882379197387 3.9346606684649643 1.6413852369331143 -0.918051207394864 0.832113884001096 2.101901259831251
Ni 5.879463839732847 0.9427145184247547 1.9866955941002529 0.14104377744960872 -0.21201728044469292 -0.5167472553337746
Ni 5.299297450540806 8.03086143919726 5.1322268110546405 0.03308521258974302 -3.2634559912045473 -2.1262676044907574
Ni 0.3172601055186781 9.010511380428614 4.7194066571428355 -0.3519063754645681 1.3295495834904523 0.37410142350436865
Ni 1.2171744109110012 6.3376046046992025 9.869280909686669 -1.1382345685901172 -1.0400413106471313 0.00464444075054684
Ni 7.719652337278785 1.1814121323629425 9.976131074967942 -1.054974534918196 -0.24668706391273643 1.481354970331939
Ni 1.9631544993121999 8.721173039330079 2.616363084601486 0.26809612571613184 -0.537902549255151 0.2868947464798737
Ni 0.957146054938551 2.2595037739558235 0.33718493657643533 0.5620364661888771 -1.0125487616538174 -1.1508265463225147
Ni 8.685401450113302 2.4148522815252993 8.505234424007584 0.20512698108276284 -0.03127181353008807 -1.1796362714653554
Ni 3.2299733958306596 2.91401585286571 7.974609172000227 1.1373678497144477 0.16048671666556877 0.6833951065047328
Ni 8.127720325876627 6.827978904769275 5.269383203014886 0.897556429875622 -0.712289935162212 -1.0190852772207546
Ni 5.893671920197397 5.065357588317812 11.6101701942821 -1.027885392010888 -0.9562529152755661 -0.7787197846506717
Ni 6.072194682207414 8.65995539250543 10.69282166171424 -1.1965597866935715 0.9082601894463713 -0.25224913138154625
Ni 7.832590748835138 2.2328380187458157 1.0169708257229029 1.3563353362247286 -1.3750897340140962 0.8896559440816225
Ni 8.610348149572843 6.508380890335363 0.9819142958637125 -1.9167851746527764 0.12150545030636493 -2.7520286054217897
Ni 4.183897959392582 2.9136434261169675 12.433098304307986 -1.022945017286477 1.385180285480879 -0.16221681198279805
P 8.657003910521638 5.807352710507459 8.587637566434488 -0.7515355109263959 -1.8332040101960108 0.9117175518673524
Ni 1.7839334371482893 1.4508163317350007 6.956555515505353 -0.07822864189560075 -0.01225824854206276 0.07886807525181257
P 6.664222863346923 5.445419085410171 13.555466830992065 0.18724135905159367 -0.5287895312102894 1.4666819417007968
Ni 5.410308553672413 1.5188400773929327 4.384480488797527 1.8517285513627595 -1.44648232682447 0.8116928971425827
P 7.437790463161269 0.25925650153568003 12.440061753442611 -0.17675434347734076 -0.8556225086459974 -0.1600797110351372
P 4.718740013262584 3.9620619665037395 9.158136688296029 1.0599485910940198 1.5068572283681017 -0.27021085806628947
P 8.6821427160618 8.183156047427042 2.5869283365145734 -0.4755242441282455 0.429705386021918 0.2787618329600941
Ni 5.745939539639718 2.8789053211279523 0.6299551901646373 -1.8507864991644642 1.222011908218089 0.4622848626198361
Ni 3.4133097735681814 2.0554790903256204 3.816120958607515 -1.298475487793467 -0.13121804960843853 -1.6874296600399519
Ni 2.7876793890233236 7.712529675709073 8.838990241294967 -1.428704691126075 3.718984766047472 1.6524019790118576
Ni 9.146828881137315 7.736960870426622 12.475928311480319 -1.8151083290365644 -1.515841177034267 -0.21664680879690432
Ni 0.9366253410828047 6.003770577794584 7.04902907721827 -1.0176997097271376 -0.2897733535792493 0.09004800312803202
Ni 6.529208856258822 7.559043301883312 2.8723757491556134 -0.5389654433020267 0.16714715940487987 1.0690166148335587
Ni 2.5530226053089993 4.362718662801594 6.166578793141385 0.5360482696552317 -1.0848327559302091 -0.317201367883215
Ni 7.663425208887292 4.179345042389198 4.75979820017777 0.8241054118743226 1.0442743748918726 0.3924094777849371
Ni 4.3253177065590656 0.6124641679099165 8.934460907268395 -0.39289773027526526 -0.2188330178149457 0.7195918681402639
Ni 4.399011649466612 6.696447087781921 9.950253002331527 1.1256829571773517 -0.5277598043941943 0.9383757778848291
Ni 5.866568563557616 5.194738640831174 2.165360809341664 0.5479524772919854 0.054564208399125375 -0.591458113884104
Ni 0.6756724357065997 3.8944478902694253 11.125318051829014 -0.6955080877181828 0.16022729235659502 0.4409652752064535
Ni 4.9742433842378055 0.2876950080697051 6.440987476949678 -0.40297928288098345 2.575352166370236 2.341488993695045
Ni 8.419349091479932 4.086638713958315 13.383438260413257 -2.101352072196 -0.02307590798285703 -1.9077310348703078
Ni 6.45909021013921 7.294108223496172 12.488777965378828 0.2026633500336187 -0.27492960369819747 -0.03274736963435005
Ni 3.839524255498533 6.424705910561501 2.362258176067795 -0.5480370665859916 0.6853779412627163 0.2244112832336716
Ni 7.690072342759862 0.8137561702712165 3.891751520608525 -0.04893606357907056 0.3478473749038461 -1.271354720317275
Ni 7.328930124503653 4.339777175079018 7.206939880819099 1.066251393383596 0.7432239057369071 1.1567627093012915
Ni 0.18213437040595362 3.6913077201674875 6.361895208319101 -0.18635638534347906 -0.7186469877284913 1.1938899531708922
Ni 5.506636732234822 2.492484637300804 10.460001872938088 0.0003080181587220502 -0.18692022826674906 0.07647026444359734
Ni 2.859399470162531 9.213837763904923 5.038213264735669 0.15615826449354397 -0.004059514781354299 -0.00750247902463224
Ni 3.408784788570953 1.6382494037086972 0.9043508390367254 0.6701058455949943 0.7546779132101197 0.9538221943468862
Ni 0.7529975394143911 5.073988578219934 4.751062930786 -0.7887378310083062 1.8874344894048012 -0.43741355329945314
Ni 2.2366553929204325 0.22817748935306623 13.117995750580954 0.01837516007307803 0.3161510722418297 0.5939428279791706
Ni 6.17843872295511 2.37811238276179 8.176658131728347 -0.46670613161598334 -0.12493633036478484 -0.20539591847343336
P 8.735753546543373 2.8141216881840854 3.4697743240119987 0.16646607417745526 0.1284903662646303 0.08657881363250897
Ni 1.2170626828863782 6.40840292963527 2.2030801904543678 1.0938123337210002 0.5059961874648575 0.8991379154301289
P 2.9668352765062043 0.7164838899007432 10.935873875412105 0.9565118253639077 -1.010240682345931 0.37495374420233485
Ni 8.404964108309729 5.911194598725761 3.0326300480729085 -0.7318390609387333 -0.9017234167691179 1.9050280341168482
P 2.3011224631278675 7.222965403817517 13.498668958608123 -0.3625795389076981 -0.34799469911498776 0.1803942542227732
P 4.900456334643074 8.51090089698971 0.535369037719474 -0.4028808096299062 0.5695816255259869 0.669427331470731
P 4.014071361965717 2.231450729106747 6.020727167664858 -1.7273851173869672 -0.4413121170229109 -0.2778637466258569
Ni 4.122326507156625 8.068495162157753 12.065302682185482 -0.32742613093501677 -0.4769118685043916 0.5012118787023369
Ni 4.319666130646889 4.279984060568308 3.997852177057954 0.4877508681014245 1.0505897755869391 2.5345585293926414
Ni 5.1409881503188215 0.8730111281299915 12.31358842277006 -0.3993902799781444 -0.980656283820595 0.7858581954676659
Ni 1.7377059669605488 8.115607145873758 11.441794199041588 1.2364620222051481 -1.0165524834965718 -2.1014178924369293
Ni 6.5208758077556945 3.0238538117387765 3.0373319357757906 0.25922684825096004 -0.025575277365943047 -0.48229421586222737
Ni 3.1086646930963053 5.8718942660646425 11.797788548563295 -0.9666782243739481 -0.12776582939377998 -0.0028462111995434854
Ni 8.945150486024195 7.816101554534535 8.073459610718498 -0.9080874113139328 -0.5651608707504717 -1.0443219403003563
Ni 4.329135080733683 9.060602778134564 3.1232507867108295 -0.4442393179720349 -1.060639189403141 -0.5854720715039982
Ni 6.959538653762785 2.3410838532680054 12.33367432839665 1.1511767305730818 0.8368971643223523 -0.30992231772329853
Ni 7.305020327234345 8.913903881804647 5.878079343294394 0.5428624643635876 0.6516229562994584 1.069214846887294
Ni 0.7134951652420797 5.565768789266512 13.022484117665163 1.6498622433091392 0.8056742017523286 -0.9336580606941857
Ni 1.8561469837295814 4.0010829791033 3.2478843292445885 1.8941851778650733 -0.42002698239188946 -1.4638904949985885
Ni 2.3202279553383898 4.7855906146619756 0.9844095550802914 1.431829867018618 -0.6574112808464614 0.06200575227883514
Ni 4.341508959460673 5.666836098206678 0.08953418359846292 1.3982016374412114 0.2802880397966334 0.2015552045711045
Ni 5.7852491829695545 3.349624799533107 5.909366914456304 -0.06680008834368495 -0.8835675717956977 -0.855459500705572
Ni 1.5732050720407105 1.9290029664524553 9.931052541300074 0.35170968607272973 1.2837723772553375 0.2626505292205283
Ni 3.0092919258629207 5.7804076352358935 8.14577929892318 0.6294713599030837 -3.6359818426916797 0.6601988708939275
Ni 7.694066619640132 3.818091096108366 10.284771363386962 -0.4582929678516236 -0.8523461518875707 -0.6698201960337754
Ni 0.07103016058716073 0.5094388253382338 11.56272116435848 0.46851130314552214 1.347570702658221 0.2607666819342542
Ni 0.7711989656923396 1.3935557191157453 2.621609646424405 -0.1929353241125774 0.2900111806216683 -0.26968223925632906
Ni 4.619925886152315 7.597663955727974 7.61321835888923 1.329817492439858 -0.11236672122989036 -0.23545468553202673
Ni 4.916647587544682 5.258023256111349 6.737881425713339 -0.1675302537759115 0.7954586946719074 0.6205465466096282
Ni 7.848335089638254 1.9393284980613585 6.3090906817485575 -0.10407928441011753 -0.44786868719450607 -0.4582988813888945
Ni 8.159246250157734 5.858756912502729 11.2809672939981 0.7633101349638209 -0.15362958453441927 0.07662427352295836
Ni 7.040010763497455 8.479719467451194 0.7879479276501897 -0.12908146288140995 0.7849269419026481 -0.04519819380319313
P 5.913699168611058 5.6411572738808395 4.824676801942567 0.7296343399779305 0.9362924129932391 -0.5556359619791721
Ni 8.1563227001801 8.014232584865878 10.220642270454011 0.9876041758933377 -0.3037143891403737 0.31687972287773813
P 2.1438932004772386 3.6605266493838684 12.741179021537018 0.05176530549774956 0.08808162343028056 -0.8210206023014118
Ni 6.638348514977995 9.0027369720486 8.49976999253665 -0.21292076609556881 -0.17680190888582453 -1.5235601429450791
P 4.04974053382659 3.695553385103159 2.1041208169120886 -0.3441632411840395 -0.7155979164895224 -2.3996046668908546
P 1.1604724384148601 7.198860082505117 4.4354042602869175 1.7703449087779446 -1.495342542860283 0.2597140723000237
P 9.24207702212837 0.4911470855737152 7.482030105577593 -1.4859058229274151 1.4623357489169588 -1.6901234048220313
Ni -0.04011129190650646 8.952599020999058 0.6689315115543492 1.9809465398220336 2.142078346270769 1.1661441505161916
