# total energy = -340859.050971346 ev
CRYSTAL
PRIMVEC
9.36617675673686 0.00000000000000 0.00000000000000
0.00000000000000 9.36617675673686 0.00000000000000
0.00000000000000 0.00000000000000 13.70834643114177
PRIMCOORD
 96 1
Ni 1.0432703309720055 3.9942154462670034 3.204394795088291 -0.5096713223235997 -0.6611990300236678 -0.33497566114750055
Ni 1.497033496553274 7.627093159238658 10.337066215422496 1.2061410026241033 -0.3714225911206248 -0.06580275742742216
Ni 6.809706913232149 6.4245041615476115 0.8551787692405662 0.2870279296236283 2.532448939248806 -0.8654199543523934
Ni 2.6588515267999946 0.5631788425131812 10.60392732372108 -1.1356076724902313 0.10842959095901325 1.8186968177187708
Ni 0.7806661500116816 3.368077163560677 5.569783398350699 0.9977232666052107 2.4049260791037677 -0.02466613528811236
Ni 1.175118001248545 0.8577628974091603 8.437555927382808 -2.4524752896376407 -2.09516445532805 2.1466937335555936
Ni 0.886250124030322 2.8399465544903326 11.006294530939384 0.007330729333458342 -1.2561029363645273 -1.9550329052800652
Ni 3.6725996686186533 9.263673323366712 6.57974573152222 1.6174506597476532 -0.281101022616232 2.0110549291716397
Ni 8.227071710249142 0.43021097749592446 6.583598040024368 -2.2329431888731417 -2.066370156804177 0.08519658857300166
Ni 3.179011519446006 4.74607591964762 2.5600889393170077 1.393120366263562 0.34363436526376306 1.7732176023400494
Ni 6.355185087333172 8.022879690664086 5.827527470189301 -1.3706952044908265 3.728654685037069 0.567474606485313
Ni 8.310130965773212 3.5016388441846353 13.052113866175905 2.734316789964323 -0.8541554371821677 -1.5046661342540537
Ni 5.154740944120588 4.568596236187355 5.643246069164581 -1.2980926505327515 0.6978704173027723 -0.27094825045294624
Ni 4.6920611782620405 0.8196612903419611 1.984132758465313 -1.2036735149202173 -0.5376814343832804 -2.039226506509849
Ni 6.269353443487593 2.3654279412048083 0.7713758392816041 -0.639291431317299 -0.7149731384213299 0.6712862390563407
Ni 4.008124218758348 8.312163426130533 9.577733406221277 -0.7912135462423084 -0.03021997522680602 -0.81040400312783
Ni 6.451975157990113 8.504273077692806 11.977818074680277 1.3523683811571807 -0.2854592995849278 0.8783500321505001
Ni 6.839004314143211 0.7085109974737539 10.241725092310613 0.15175267922668056 -1.135015033211555 -0.9412584987492627
Ni 4.2278640917680725 8.21778982907815 12.070980625077354 -1.8448192258374356 0.7590891549039378 1.3402055205424015
Ni 2.5096576971605113 6.93648748188053 0.43568550781322485 0.6874649056987322 1.239503637244949 -0.0678573259636057
Ni 0.2800243331196857 1.084256720481854 12.886215460281665 -1.0978793047015223 1.2264113228373654 -1.3007897377489404
Ni 4.916493505829452 3.2604878910973247 11.384562565349448 -1.5255519765641277 1.063878265165729 0.4145335633774861
Ni 8.111792806664312 6.788895268467322 2.999976114025598 -0.3292307882439233 -0.7888429891276028 -0.034146563974721836
Ni 3.3117770750452067 5.312476726966877 7.222708477545853 -0.019960245172010786 -1.8248026735061929 2.412582052987129
P 4.803837131737939 8.137287539810062 0.6466736252566785 -0.5131919338823484 -0.18332685448853586 -0.823583992153214
P 2.6547866060853518 6.537263563583504 12.014611226853845 0.07546701999006357 0.30804669796714046 -0.9261828353630629
P 2.8651041052726574 2.342714962557326 1.9705611683373947 1.2927301006692575 1.3898221551282646 0.34439798290266493
P 2.8169619567167565 0.21008802785664007 4.756645650123366 -0.582178745464707 -0.10767702906370488 -1.5431115827144457
P 2.780162248219454 4.4954370295005575 5.461418606451466 -0.6684451700631198 -1.1289503150747138 -2.1707924263760097
P 4.017359269045531 3.8217934982581365 9.032401813527798 -1.166882828454429 0.13791525912295605 -0.4014970419085021
P 8.78471514229607 8.066245089071444 13.156105590145032 -1.3569290039446695 0.2584945980706258 -0.2154928976981192
P 4.712292120067633 1.2319519618394412 10.775569069205686 -0.4322937155743845 -1.2779174611364572 -0.676779400960428
Ni 6.708186923310476 9.244763012484539 0.6081224417049106 -0.9884153589407234 0.18630599172151785 -1.9186417682455406
Ni 6.473320674830365 3.1685963308868303 6.974203202465141 1.036995581842272 -1.7794558699402776 -0.2790667657950226
Ni 4.764321231979701 1.2157297436879195 12.904557244234393 -0.48757011954918617 -0.3956575524085896 0.5011745977064982
Ni 8.631924700780038 2.2301241517031465 4.401475544225694 -1.3998306884042022 -0.4165256541068504 -0.4049744589341413
Ni 8.095186575265554 2.98652722081326 9.061326440603738 0.8880600603494125 0.11430044791749347 -0.734969893258231
Ni 5.971462191577006 8.04596731638204 2.5433646940910513 0.3260662744730126 -1.1266219240518534 0.8932354339027649
Ni 3.1448249742652594 2.4874785905884544 4.4404210438191365 -0.3433713414103635 0.05162466615482722 -0.8943158114511371
Ni 5.828506235660913 8.952229213681727 8.058437444122767 0.6585981020657109 0.08207244112172317 0.39928589318979624
Ni 1.3399158813732672 4.644115719418139 12.040835585169345 -0.3915360740410483 3.8609034899028667 1.0230954268214123
Ni 1.4427471360416007 8.643248408485112 12.693833252975622 0.512549158092027 -2.9673471823255735 -2.5633769962862303
Ni 7.384715236995545 6.271713720031579 12.186390655136849 0.5986060377827948 -0.8163573924977876 0.0036095717281292676
Ni 6.426817607207789 6.281866655641422 4.715986140182506 0.7386522272058247 -1.4720884574283486 -0.43944883856192707
Ni 3.342647993652259 1.3974335728677783 8.61743709856481 1.494511305208239 0.5084423350125049 0.0183281088852265
Ni 0.7768035387150952 6.240786604363955 2.010726144145229 0.5400627901312633 0.21129094380162966 0.5697214935379608
Ni 6.837383965563411 1.2420018695049044 2.821739643482976 -0.4088663377893797 -1.3629438426801819 -0.1625932214856103
Ni 7.132268674733446 3.3886827524367438 11.190671466967073 0.5667001902131337 1.5510568057034513 -1.8579035698252198
Ni 4.986599338891886 2.879134638061906 2.7605045164316873 -0.5711206878783325 2.0882417600662877 -0.33573593635229276
Ni 3.9506533581476466 2.667271719708896 6.755117088593392 0.8128519504476905 0.9393800507796273 0.40144073474926995
Ni 4.2963402100739465 3.519022468254626 0.5349847772246652 -1.4248567781348946 -0.39584215761556985 -0.9676344176396303
Ni 8.323618260310274 1.7799763303519514 0.9892630825278353 1.0748795013722392 -0.9697920874125814 1.1958771588042503
Ni 7.087217364508955 5.539662710502272 9.869132024400551 -0.373436279116544 0.9458345481557194 -0.5495761289383374
Ni 0.8752504860412074 2.8563935608841384 0.5995355308496481 0.9329129549980448 -0.14165878532578827 0.09044909522119261
Ni 2.5595044898870682 0.5089009115605936 0.2874217395261936 1.6387190822081261 1.6512149006822916 1.3778549554640591
Ni 8.713541565082785 7.562813088122092 5.135050430714155 0.43158511954313417 1.008776953316211 -0.07377060612424714
P 0.07509238557044319 5.918730616407799 13.688387288756228 0.37746879731470473 -0.7020407466303781 -0.23521274472454973
P 6.339103361833078 4.038901475597782 13.341922107541018 -1.9333024555815088 2.8101771887380638 -1.3545895571782156
P 4.350870091181427 6.411663133207117 3.9147059717356725 -0.2901883296294809 0.278227814833495 -0.6600052668258827
P 2.3053720158078366 7.368774004146879 8.280073967926764 0.25607030489984933 -0.20686864636421792 -0.917688938959439
P 2.386052262434398 2.8273396805688846 12.555926602951844 1.0372958866915103 -1.0148136464285942 1.0837768038618691
P 1.01902129933558 8.421007766279974 2.6573904032251456 0.5016283974144651 -1.4149588022948922 0.6760021564747712
P 8.494522887683722 5.523168873224656 5.459403941829993 -0.21574383736666072 -1.057077697304128 0.1410466056630861
P 6.055917007438592 7.66480138688186 10.055606984022896 0.2796558055292732 -0.31444797350779397 -0.48619586490947886
Ni 8.857518434265918 8.560207885314565 10.928389482487356 -0.9613329009016346 1.116846075612012 -0.06527902371346822
Ni 0.5184562850930314 0.3467480397534174 4.7745481603859625 0.8525677809800736 -0.5181829593390366 -2.006384263168848
Ni 2.090230935588179 4.674789948313192 0.6326075009957346 0.34879559774972835 0.5815089730911921 -0.7795687629145285
Ni 1.888549051375298 7.112065831458139 4.322912990164986 0.10107237926299367 0.6898071806786635 -0.4934831425995113
Ni 8.054968212250177 4.682292255899433 1.1310726184082769 0.8889252365631851 -0.6522572474493475 3.141943084699015
Ni 3.9195670174750714 7.012316048944454 6.022296179334261 0.40250979944373266 0.9902927784690944 -1.6382087182306109
Ni 1.1874532560438995 1.146213979761481 2.195446818860079 -1.4343860577815686 -0.5299411283162292 0.7177373314300284
Ni 4.6459233915331755 6.198919794238494 10.936697281275116 -0.13984230094233982 -1.1632814842564159 -0.268582321323931
Ni 2.2568833187117474 5.312411163729544 9.256533486821153 0.1978124496992206 -0.13244395159573966 1.7618710669789786
Ni 4.682526410318479 5.824918989961125 0.8462125282264489 -1.1666894814967004 0.3179557295507363 -0.3851353127210271
Ni 8.330830216416897 8.939893958886374 2.021295874620975 2.2212935204493554 -0.40091854369721275 0.8947886373224977
Ni 0.10371073866627092 5.025459606276795 8.269779603047818 -1.9900258764154821 0.6811448770179753 0.9657770527159174
Ni 1.3672557513411028 3.125305861893567 8.138988437510013 1.4206329698615339 0.9818613598722896 0.3893850891363165
Ni 3.5014889853564455 8.233187823674628 2.4321207394552253 -1.3955148346376676 -1.056004004623975 0.9877229608593892
Ni 0.9113645903995423 8.495319012708478 6.663750970899238 1.2481296883510633 -1.5898521813040942 1.9762200808806416
Ni 7.5630566087179005 6.936618608355196 7.314430509956959 1.2375562837105911 -1.544950178585081 1.2417955186029195
Ni 5.679406067789049 2.3513412113549883 9.171102715340982 -0.8019502159335221 1.0089762138112108 -0.9246805397859236
Ni 5.067672964942446 6.528300132422415 8.05666910995013 0.4762485238887798 1.12162061418252 1.3051657553294491
Ni 5.879523800482701 2.45760985289492 4.699303106134302 0.40485233153398015 -0.1609795971415873 1.8353588517554844
Ni 7.105462676841036 1.5112700852312835 12.39479932750009 0.7066774740714411 -1.087822177575836 0.9706621487223607
Ni 1.9427792148264 1.435872362298404 6.422223497506101 0.5442020091106177 0.22310027773173188 -1.3092301552068097
Ni 6.081823852361865 5.254930936942081 2.7437802712057304 -0.3741826703642653 -1.541840686421822 -0.05465985343672521
Ni 5.030695299086668 0.05601535674191042 4.243048537534381 -0.6704195201806713 0.5164569777868654 1.1560731394334347
Ni 1.0692802038396585 5.825593354687979 6.36618378870461 0.6312829591905257 0.7463987039204629 -0.8275838573412262
P 9.052765755043408 4.819413083692893 10.467364720062626 0.3810678275198727 -0.381862041286394 -0.1946314808680777
P 7.332601829492622 3.2204943163242326 3.014849602723413 -0.09209845789915751 2.5349192551661694 -0.6180299508353615
P 7.458408315757769 9.283651378399734 4.2882590727638235 0.6534569241844036 -1.1133977120520955 0.7031856588680986
P 5.654660628784246 1.10475928141354 6.539045947021284 -0.2939282562878873 -0.09906563324561002 -0.3027286281883367
P 6.439180960533428 4.98367709174219 7.882285884527331 1.0238240774573206 0.12964839112847348 -0.5966394009747273
P 8.852413867930709 1.489353231608558 10.490792337997037 -1.0971421694251815 -2.173918373599501 0.3208754743006925
P 8.751924157452839 8.411960039528028 8.499119807238436 0.47978996138313507 0.04982026595623678 -0.08040122406688734
P 9.283192435738403 2.0592007919761754 6.9312826974539705 -0.3106820787074585 2.1242654864590644 1.1464124764152193
