# total energy = -340864.1015978005 ev
CRYSTAL
PRIMVEC
9.28196982700639 0.00000000000000 0.00000000000000

0.00000000000000 9.28196982700639 0.00000000000000

0.00000000000000 0.00000000000000 13.58510107771512

PRIMCOORD
 96 1
Ni 4.661117518125648 1.6030982949425372 0.2741309129895861 -0.49578890791455266 1.4196636639697293 -0.49746989516140133
Ni 1.2907043176360191 6.869947883577042 3.08448397562239 -1.1533948212703231 -1.141557719426079 0.9749713176206757
Ni 1.8388510471890385 1.446817768560619 0.385406880351764 0.5344238466779312 0.42340129818076117 0.7467141782783526
Ni 2.216061019965351 5.747887676164523 9.03994712815662 1.189114900379752 1.0387076794373724 0.4174347961846811
Ni 1.2731242667381542 9.17455889592129 9.955270949273965 -0.49715210681066646 1.4461272574778965 -0.5552824352944953
Ni 4.0010859239882235 3.6980945821408064 1.5052969632131101 -0.04355423044186693 -2.4028874514071843 1.1390426663137092
Ni 1.6309534864655006 8.693548654300827 12.785984940972005 -1.4744155628996285 -0.9937959065263465 -0.707147471729324
Ni 0.025254383570702824 6.078028779826225 6.017602227898985 0.10145264542054785 -0.14436641406493847 -0.16486941911429673
Ni 6.503532841737486 0.3520047836458205 3.736445825171323 1.3883116320210092 -0.5387764672196721 -1.3687100557399976
Ni 2.0214923679479035 4.01412709162893 6.689195443682863 0.8078562970053119 0.14000556599308145 0.8363441200323597
Ni 8.181536633377895 1.4702640244043397 5.0933807104824345 1.3332997945615037 2.3815197843646856 0.09681128999379457
Ni 6.605755175706961 6.917991359526011 1.7389881899556963 1.1114323607956083 0.024408510751351514 1.2846100426652844
Ni 3.523259398026664 7.673255964335081 7.549050212970409 -0.9449567735364566 -0.5805118992852454 -0.3817586829393103
Ni 7.588632245203174 2.3015108344140027 7.5463333803950094 -0.507332646888094 0.7777522785310799 1.103841178711912
Ni 5.8115712713124905 9.060195745386658 1.0561944211525716 0.0926162780758405 -1.7597033699036984 0.2979137232981966
Ni 5.047553768933893 2.4309757498962736 11.6055884812427 -0.2591386594125279 -0.9931302479178896 -1.1572278218631682
Ni 0.9507985816910259 8.505486663148954 5.717874426651194 -0.5764079044192009 -0.9473823522588136 1.0994553909393905
Ni 0.5153228995687954 7.010579008790111 10.707206111497468 1.0569270306588765 1.3993108113449901 -0.8277113840580262
Ni 8.407032808939 8.60868360395279 11.629770797295608 -1.1118776758631432 1.9056679816936921 -0.7114450706634134
Ni 0.16468442188504767 5.398059514448771 12.398483120024862 0.3369674947665487 -0.3885811051777824 1.383874422185262
Ni 6.51368731675452 0.7055318103472111 6.351116399404554 -0.7944986447514834 -2.6699042280162084 1.4729441205604246
Ni 1.098381902322522 8.431175212521548 1.486399800793383 1.335101880767249 0.8339707347041767 0.009786132852486373
Ni 4.471885998772547 0.4615357406760034 7.453275135259464 -0.22952649297304986 1.1748159672585767 0.09522774755675857
Ni 3.397674345942127 1.5430810778857287 2.3466360590418063 -2.138324278544976 -0.7580314030633848 0.35759545542954546
P 6.4776918376721975 6.256548905971229 12.930313074776741 1.0018817688582746 0.4005796723005553 0.13762780978952427
P 5.162548093418396 2.2128494583968923 3.147083436691757 1.6824355492594703 1.1793447083668658 -0.5324808640189475
P 0.6005583005138877 1.1349250176260568 11.64800151428003 0.5872463897956015 0.29552362579946523 -0.2118499016288932
P 3.5331632598577207 9.065347238653985 0.7781325939310711 -0.940339072258787 -0.27358157431073526 -0.0053550936643262615
P 7.819632628885944 5.589639372174184 3.394142556413807 0.36520977744169364 0.7238503863063017 -0.7293756869999051
P 8.3761702591843 8.716790706807824 2.007130375997393 -1.8635993346584163 0.278139883105379 0.38923930758707154
P 6.303200086442543 2.778010038686863 9.37566205471387 -1.407422898929163 -1.573997987880657 -1.2364111143625542
P 2.870263537036325 2.025121618159659 7.461277121468043 -0.24310526009874905 0.7402853919338734 -0.44711483974761707
Ni 7.83803877510055 3.9751613821942757 4.895092773145676 -0.11788585127590666 0.8643740295863822 -1.5861050555568361
Ni 5.464936107225496 0.4756972420777313 10.04893994802571 0.2592762134316567 0.5772573969036898 0.6057349355180923
Ni 7.022970438541246 4.051719069525633 1.9855442269118202 -0.01867237959852268 0.8448274749130226 0.3553297993238203
Ni 2.5180963189181114 4.8387187292554 0.1789990757893177 -0.7783292340804724 0.7212759407109062 -1.1019133655615796
Ni 6.996145545671748 6.593892818237335 5.5594581190065515 1.1521408942585643 -0.49209320423052033 -1.3989238603192167
Ni 8.847907812923578 0.6464864155338063 0.214519318015268 -1.3023591391185894 1.1751417260291117 -0.38296067366721137
Ni 7.350104183971212 4.757835643973459 7.197155884765816 0.12493170237909451 0.07678265347769357 -0.9808735420377236
Ni 0.2457865616554729 0.24774412909705673 3.807944838933865 0.6615512711567638 -2.759321282428461 -1.197890589689853
Ni 5.700958036597677 7.888077874567494 11.717040806032047 0.9409967604474438 0.8159912674076205 -0.24099361307238498
Ni 7.686919023955809 6.322237406607021 10.993077788151632 -2.049374650687445 0.7093982154367138 -0.025674779058284813
Ni 0.07901926573585241 2.2068997157223773 9.474004525285611 -0.16156735132425723 -0.49340703794593727 0.46684985628269926
Ni 0.19570662152118518 5.190096979936275 1.725701978310921 -1.9646658003841388 1.0769703224629967 -0.5960735011689283
Ni 7.683113416316884 4.13767011034624 10.343886606603233 0.8684150324249754 0.2494767108427316 -1.5655457433482456
Ni 8.480982262742216 7.41737061948168 0.0663141054037523 -0.515244445536003 -0.7529298201707614 0.5019711254658645
Ni 4.322399874321588 3.828496976578032 9.333602664727863 1.2341693695162292 0.310357091267872 0.009320248959661367
Ni 8.932670761603253 2.0185128556257204 2.595732571146159 -0.6873980570165388 1.2156435427979 -1.4078790126299754
Ni 6.131465080258647 2.4617176340429094 5.106136921648716 -2.2685269995150223 0.666854171426916 -1.019028198730574
Ni 3.7201763884164243 -0.004596431470233768 12.179518666647931 1.5573418673812147 0.7673135996962591 -0.5594833607497204
Ni 3.9723860732088156 6.673940526232683 12.603985004329846 -0.4176363706725259 -0.208556318479286 0.5540747881396393
Ni 3.6675012095117867 5.203695065768046 5.270244933206015 1.4367291040924481 0.06144473756904257 1.336889568795291
Ni 3.2033563071106563 4.886019647616287 11.175307917646094 -1.7056734367414885 0.13176775146432143 0.5062486697952959
Ni 6.881309014674711 1.7963210613315848 1.4141415218970264 -0.5433270627048321 -0.38218934271882565 -0.3215305913861882
Ni 3.3285051066121953 2.7828180990697007 4.7389449789326274 -0.2239140318822789 0.5067970860995981 -0.2786008819021976
Ni 6.811981981857313 3.7625578627562617 12.522963617697126 0.5705753568978238 0.17376209361823622 3.004982476179844
P 2.0065112686083286 6.251926484985413 6.802848523523891 0.47943952002225176 -0.9516123311797612 -0.044065365750330564
P 2.6492876807926753 5.392026234045597 3.5779348414342005 -0.4440881371061513 -0.8676853533478024 -2.4989304957763863
P 3.8011708573365777 8.679616417554419 9.445014148849866 -0.20863550845665357 0.4394256986334754 -0.16898164151045736
P 8.208315116398138 7.77129212990174 9.16851726174525 0.3319759550892282 -1.2501294923899116 1.3152853602619543
P 1.3493849310342783 2.1282907130539406 3.8121829863678482 2.1185116146944223 -0.2232314039929575 -2.7928273846057063
P 0.5534523035198724 4.988789617806975 10.340571086972442 0.4752640484883235 -2.244012559313426 0.5584937431429414
P 1.2801599998852407 6.60413083098303 0.2810673290592664 0.35650942145421827 0.2829231634266353 0.16505145321811573
P 6.295505333436034 5.219734309670638 8.891910847396392 -1.3119511536823985 0.6485864834659797 2.3611507337900304
Ni 5.880387795788083 6.912691354741069 7.701135288979658 1.3443162002766653 1.0495068269354053 0.7284182081826422
Ni 0.13773886340748584 0.629135629291262 7.727735558178761 0.49100871291708986 -0.28382639196719506 -0.8384274849239497
Ni 1.1416822916776121 1.9493807441751931 5.805402474149492 1.4067484985699579 -2.268888496619499 2.5866827608917062
Ni 7.378571985504343 0.24409631494559897 8.738127170904404 -1.192793891893236 1.2964494585023736 0.06288301267746589
Ni 5.479805822926858 4.874370775453236 11.192397880535825 0.4391377350794114 2.001635949850585 -0.7203020068334111
Ni 3.599037399890534 6.835344699972374 1.5691875462887568 -1.346003101060785 1.8102970236908498 0.890440130545815
Ni 8.94551700787709 3.1317737556194554 12.055296207737527 2.379424592398554 -0.9316839676869504 0.7591428909600088
Ni 2.656806076372016 8.631925656459787 3.444611411084853 0.7865734763671357 0.4913655820358763 -0.2885564504530127
Ni 0.7407095478856581 7.5821627122169994 8.037380216015402 0.40735427202022745 -0.12729531751526463 0.28217420107575275
Ni 7.465284147852736 1.84468012425549 10.872767679533439 -0.44040066095223507 -2.1969809118459196 0.9466950963838019
Ni 5.14129238245952 5.411462678913669 0.8262429000629686 1.8603738857425833 -0.07977618888837874 -3.0344411477605933
Ni 4.885620522912693 5.216030803700074 2.999495475075335 -0.011125677599516324 0.5632551690873268 2.4552459104042423
Ni 3.263633419323294 1.7465047291410662 9.557702832023372 1.662168828590634 -3.9342853452291275 0.8861353325228738
Ni 4.4172894521087445 0.6924553712210695 4.6294901340552235 -0.5857008996853527 -0.2767663997966201 0.9773863548200714
Ni 4.15887012948601 5.396054608960946 7.4901997395238755 0.05326425864077923 -0.6506819325424278 0.2738371419649671
Ni 0.8247234415983539 4.033665638165365 4.634326040347614 1.228295941454588 1.494587409861813 -1.613137119973964
Ni 2.667071935027263 7.658182045296997 10.86325830142105 1.0679177253424252 -1.5773591910434062 0.3479108811519298
Ni 4.8361661875463655 3.105570754729977 7.131539783494862 0.3373891556849996 -0.7956163032956943 -0.6992981508882343
Ni 2.0472405523146815 3.3754718740584453 9.444783027800574 -2.1962404341354693 2.753749444767638 0.042433229463546274
Ni 1.6167892004728175 3.612087849501093 2.0119402927742005 1.1052342024046966 -1.9991728330220733 1.2831342294507064
Ni 2.233464713436047 2.854901876932858 12.175946036452267 0.3230927936669855 -0.2045430835548348 -0.9817477171125609
Ni 5.308210046290728 7.98699582727 5.767975715316139 -1.76116967003658 1.0435796628176932 -1.4567446279824268
Ni 0.3595018306945035 4.76579957410565 8.269821161419053 -2.198191130103937 -0.773467792223113 -1.459842293071144
Ni 4.439658999449745 6.457067300663192 9.688988869990416 0.4795336223979548 0.5820136806417525 0.2200270381230469
P 9.048788204439733 3.3732906111434513 6.478598686126643 0.8868660400413113 1.0327198372850537 1.4856826511730155
P 4.360205337524864 3.950267139053793 12.91358974969613 -0.8146139274441196 -0.39605890161206625 0.011034403437290674
P 2.9614774547624703 8.585228066139218 5.5586969974787666 2.2784355168779857 0.43021215045500744 0.9012343929478414
P 4.855871809540118 8.148437128889096 3.3815896203872637 0.38814067520625417 -0.9968472917581606 -0.4338674878194076
P 6.597540632388792 0.8524988081805984 12.734320568584145 -0.652769925419708 -0.3351461252870938 -0.2907256901901896
P 8.117361093827823 8.700584387447911 5.604968545383173 -0.9089322758127314 -1.6030655946705745 0.11576443405752967
P 8.682159677293603 3.0330785701933736 0.6552810819676643 -0.10562194630688906 0.8569090886679047 0.2582122909435166
P 5.915547897583813 4.614958282056439 5.405525002799959 -2.8037334899952486 0.9171117262997304 0.42028974913497297
