# total energy = -340886.9543656017 ev
CRYSTAL
PRIMVEC
9.09266248115323 0.00000000000000 0.00000000000000

0.00000000000000 9.09266248115323 0.00000000000000

0.00000000000000 0.00000000000000 13.30803064157665

PRIMCOORD
 96 1
Ni 6.745473528652023 2.2083531329414 11.250024007195593 -0.7710627823260463 -0.026656940465896027 0.8720595711560981
Ni 4.6517515921721015 0.37820202362640065 5.740671580190932 1.124448056328986 0.5982612528488664 0.5333385840335524
Ni 2.9566792588063713 1.5505171845321788 4.493403783553318 -1.7373106040307953 0.6235490808813778 0.9387118210680091
Ni 3.3922632570999487 4.472789808341307 4.5869590975464805 -0.9617116243972921 -0.38110896517045334 -1.7904324235564393
Ni 3.6414294882916596 2.6960017168571264 2.442143671802155 0.18770081518651544 0.8160378043748397 -0.6451656307098889
Ni 4.978969238484407 4.714445500286791 2.6574542833456807 0.05729343440483036 -0.031773435756854956 -0.6105840360802774
Ni 5.638187271597534 4.326570702265553 11.624564415622896 -1.8393021526739486 0.7653868149871915 -0.39027520505075364
Ni 6.002075625875981 8.0313305850487 12.153891946023919 -0.4247680966213007 -0.25611787030833316 1.1674325303103121
Ni 1.8882186707366138 6.621094997962996 0.09792433833676054 0.24051898742881156 0.7767904288384428 0.20455928150475094
Ni 2.838392812009562 1.7197316341354243 0.31676017514149946 -0.2648889316327438 -0.5671617032305845 0.6768992143677439
Ni 8.116574296227123 -0.34023652051659997 6.95416468187684 -0.47149815368798803 -1.2083950887656028 -1.0382286829184249
Ni 8.489782629594409 2.5412900639823697 1.356181526902934 1.3705316823297684 0.09897564463496503 -0.07580949093114685
Ni 6.787736224071469 0.9064520735181274 4.626723129303865 0.9607770283981647 -0.11657021778827664 0.8109593614106679
Ni 0.6440642017477988 7.645783508634041 2.2960745946580747 0.42114824048052624 -0.4070033164387119 0.003861539837935285
Ni 7.510039149787891 4.262467431459379 4.0885993571754815 0.19399359017376266 -1.191388012684645 -1.1536658155435227
Ni 7.712569114885294 4.081305223297367 12.705070053740446 0.8358646092927797 -0.5034497668939201 -0.3192227691886179
Ni 8.69219439007898 6.997485763214278 8.888620450822883 -1.4051495295139542 -1.077818272285589 -0.2079587941046031
Ni 7.094559028338633 0.912976058880316 0.2753003618230729 -0.8675007481408221 -0.7725157127224889 -0.391983445991112
Ni 2.1351299216219517 6.622722584555095 9.142550327911806 0.3213166756031692 -0.7406718287390148 -0.8248217212150569
Ni 9.173678148802281 4.845052504805922 1.1221427583552275 0.37651774625534506 1.1103303859806815 0.5945876606520212
Ni 6.416500998472258 2.0073598278108387 6.937383263919411 0.6735048439742143 -0.782221112935711 0.3984531128758557
Ni 3.7403485639087313 4.51689831425347 0.5198611594455175 -0.43892304796544407 -0.1868775479542717 -0.26607652418294175
Ni 5.860912040164514 5.794790198277636 4.535536453898646 -0.708596802581341 1.4313891799367735 0.12704052119198123
Ni 5.650980647771192 3.901552377826837 8.411700299421227 0.2732807552408648 -0.5814053576337922 -0.18297667023796874
P 0.24463172039014505 5.670975412665202 12.231544193259635 0.2183205969549014 -0.6244831626598728 0.7786375093495106
P 4.130560176199074 6.186065652083486 12.539118960717673 0.367678036476528 0.6846348924491047 0.16890116598150912
P 2.4303141178562213 8.722954867403416 1.0210196213419263 -0.7836552742790761 -0.3942519303103146 0.8514673488270433
P 6.336149139732662 7.959225771219913 5.7357742721545915 -0.01821318057391702 0.9419863780542229 -0.9887172064518585
P 4.951336637068809 1.1660066716454485 12.767964000430702 -0.4855975692038475 -1.0782728433245041 -1.3055892160201128
P 4.086106149110935 6.120525740598252 8.12640255515115 0.6202071609923383 0.10381677477735024 -0.2325267132519544
P 4.845534415919784 1.465518975241951 3.630537387852125 1.0611932621343982 -2.114779658455816 0.6594643067207482
P 0.02863097576091884 5.722858145036836 3.4339512962477703 1.685372520400607 0.46044472408730375 0.02178727107842054
Ni 0.7433133410145534 9.335527541759712 4.859693510004801 -0.06583078245188018 0.3904819217449211 -0.5411182279789712
Ni 1.8475108206090627 6.658120319767639 4.631886852352208 0.18668368677591074 0.09828427499489525 -0.7054559429595141
Ni 6.445806649792584 6.201468622402019 8.784671314296595 -1.139831737873908 -0.9052789953308602 -0.5528262604445189
Ni -0.3004852184867521 2.350726042768784 10.148943492314894 1.9389779086997314 1.0385914655744823 -0.13564291814901155
Ni 2.3909792597700505 5.257432028333917 6.7522948440788015 0.000683913440902048 -0.1229396116497302 -0.0553018578960983
Ni 0.8429989280825417 8.817254870457434 8.809037831332962 0.1363926518308425 1.6849542019162658 0.1408550584775703
Ni 1.7097933539948362 1.040100573652104 11.472546918654503 -0.40884011253713465 -0.2972984583117009 0.27137968156341
Ni 4.487247141757168 7.135585121654583 1.4552597241142053 -1.7705115162627958 -1.2733090158301683 -0.09843288475761756
Ni 5.979944085288431 8.405775520519482 8.099453721957484 -0.7126753435260887 -0.823342308456053 -1.4754298630967557
Ni 5.371644962319214 3.0367856156577733 5.064597569287665 -0.6700940185204525 -0.19030071470320772 -1.4963121058624036
Ni 0.9294701487019327 7.284268339274802 6.724827729121173 0.27408576764066345 1.340752394184807 0.12022966891773487
Ni 4.59639546271565 4.8525812293772 6.4122347212152 2.2193551657760615 0.14463329457307997 1.498692176058806
Ni 0.6594817203263728 7.442580686509735 11.030308000658367 0.7083659175174575 0.19180712404540515 0.3898324610863802
Ni 4.945517333052362 0.46718009130412663 10.711873866345888 -0.7398503612789838 0.4651544708581473 -2.1509512232803667
Ni 8.459049430257549 7.542554510979787 4.524677087044205 -1.3086992224040042 -0.3907470024808496 0.3697811988624599
Ni 7.215936980394179 6.170789979040313 6.397969242978633 -0.04495136789970968 0.9110341526470827 2.1203563812126447
Ni 2.228038747309537 5.520700979102987 2.3096090228275767 0.20221880629703237 0.5023020264427219 0.7868311009038965
Ni 2.534579679038404 5.216669622231212 11.455419979521098 0.020623589787622545 0.8323154584889407 0.28712511732312485
Ni 0.8672172347197392 3.6961127607212094 3.469842763035459 0.3127451318840743 -0.8201901359803165 0.5659972506088381
Ni 1.3153536536300434 1.1730807630904416 2.4566091886142885 0.45082828404346226 0.4538817261578054 -0.08696884998207602
Ni 1.7364621331827093 3.2274041928465125 8.170159175023567 -1.5368514607373467 1.0035164762482203 -0.8249255937827729
Ni 3.7984597701104694 2.5646672993359396 6.924953594246782 0.6462650344216547 -0.08252495527810949 1.0014868474127012
Ni 4.19438157446695 7.1439958344908545 5.827905675196229 0.0944697863448115 -0.740470511361486 0.1406653110642674
Ni 0.34664957539597496 0.0794316812919953 0.35864461579987617 0.7460017255923603 0.219599463667325 -0.31243068596744905
P 0.5499369592817698 5.416535437208586 7.696100484518751 -0.9076420962463981 -0.4495116221145678 2.4902951886988918
P 8.735120849862803 1.4553988418508488 7.689007298482453 1.2731778895689427 0.540933879882307 2.4292690267245063
P 1.994757397550221 3.2013355293853354 10.331290474404007 -0.9326710141905681 -0.797237126728569 0.8919987332821863
P 3.8789207408003734 6.424902618646003 3.641675899446106 0.4284959390948492 -0.0013310601065977077 -0.5725317092932461
P 7.060825250368292 4.150736794343599 10.060778308666967 0.8847214828944828 -0.14658347632091528 -0.33425138138696625
P 6.808549328592792 8.171694016457906 10.167268844369188 0.2148393232745203 -0.9572561597290998 -0.37735644010655656
P 2.6705240764601195 8.660479183189343 5.650323248270584 -1.2143677614092698 -0.32597937118616116 -0.05823394394122874
P 6.822351990306802 4.142098764944185 1.7019636622939573 1.1674839523735376 0.972592532975854 -0.48372889142622494
Ni 5.576893633511801 2.838110939471265 0.3950898257353801 -0.5322651484637155 1.859107874545966 -0.09859666402899149
Ni 1.7445091395179522 1.0549125209064665 6.944276411380144 -0.13356340991216353 0.6653058531031897 -0.26779993463195173
Ni 7.211108776593034 0.8735602760976663 9.165121044099347 0.38169337691901356 1.388251468207035 0.16350827710071195
Ni 2.6150133717407313 1.3725828715667885 9.311882072861634 1.879976490464859 0.46893322117428915 -1.022021477030943
Ni 6.478722088135611 2.0984137503431817 2.441704496202164 -0.3605961899290822 0.5539724582338201 1.0326200784823958
Ni 4.390337544558275 6.511928491679462 10.343892904664624 0.5262117431807841 0.9594842777286701 0.2037092747996298
Ni 8.05982698940424 7.140740661306654 13.176507329639104 1.0070717976996464 0.5350802493150074 0.22221016181729472
Ni 8.236397402990775 3.563605389734208 8.118111865460218 -0.4843739812093915 1.1412967524552087 -0.6613211574238288
Ni 3.55569477333685 8.43979117102812 12.475426678257662 -0.5116613561704348 -0.32137503964493036 -0.2930965044152114
Ni 0.5612400480674654 4.9869980594945975 10.210493543483851 -1.4644257986767681 -1.0178210657963502 -1.3046782741700693
Ni 8.605986856672834 2.329840196947255 5.849212511292698 0.7579092756632237 1.4623329207034814 -1.8593482726915462
Ni 3.617270283960879 2.9861122074020563 11.797209526797088 1.136744871418468 -0.7949915252275017 -0.6862539161097666
Ni 1.2997870153860478 3.417440839633607 12.438111300518448 -1.200555795226842 0.44351426688055234 0.9059940191200139
Ni 3.5817816221230783 8.492610447639903 7.898116714183453 -0.825959948584558 -0.2774695965112318 0.2560451080888687
Ni 5.822822876844365 8.222449258676352 3.321165001012756 -0.6052574816610414 -0.6158334574046749 0.952033992098212
Ni 3.0067070880227633 8.436826963044743 3.17424485065627 -0.3249730414088339 -0.2937480219562812 0.8289629970769401
Ni 3.559450042959963 4.291182059715535 9.49086204201748 1.1042525552177176 0.6570014470025524 -0.8966591148723332
Ni 7.115335762209853 6.22687352149882 10.973921672537754 1.297162168298682 -1.0464582699170688 1.2089571319166599
Ni 7.882429143527865 9.247783348386724 2.4628903998870406 0.6978079394959531 -0.8748787857724482 -0.14138856238353711
Ni 4.553214408381109 0.36997043624188597 1.7044259553059162 0.36646267601218824 1.669014390757558 -1.53752200444181
Ni 6.104522654553023 5.751981943106649 0.26101851679395854 -0.1326082450877458 -0.20305904281014062 0.2032346491560564
Ni 8.35006477722453 9.359986803953841 11.419927680618288 -0.7914189773848951 -2.400943697417252 -1.1365096154792105
Ni -0.0142045573976459 5.193228738239962 5.6725084355670345 1.281991888316147 -1.4610903065456322 -0.903105384718309
Ni 7.408692333276458 6.531095824283634 2.5250260185226527 -0.9445857633502829 -0.9734751926911235 -1.0952544654841652
P 8.634046813227139 1.847883619772616 3.625347296082457 -0.3275060922433327 -0.0012202455603462857 0.20572219146460052
P 1.926071424831096 3.523297616757787 1.4955565858955953 -0.9014403383110604 -0.5257921391448622 -1.036841058542279
P 5.076288005496956 1.2928765918665173 8.43441649820918 -1.6868372778715917 0.4244875892664044 0.5596545962202619
P 8.8057435596999 1.9398831792076319 12.451619359966625 -0.18842535205736582 0.9631905229356637 0.9921956519187624
P 6.408472177462066 7.945423109505904 1.0846828072818555 0.8905298620461438 0.5419924030538085 0.6507852908895114
P 2.0488314615905487 3.219429927811475 5.7486703954147895 -0.8355735604149223 -0.40030584981387834 0.28749664172993067
P 6.796101473595111 4.090379700498014 6.2283047065803645 0.6161448179975066 -0.2658438393468454 0.5353586997873747
P 2.660294831118709 8.4821720710604 10.015650515285673 0.04297881755437114 -0.09387457596297381 2.1048850250499234
