# total energy = -381163.2448830258 ev
CRYSTAL
PRIMVEC
9.25531789051916 0.00000000000000 0.00000000000000

0.00000000000000 9.25531789051916 0.00000000000000

0.00000000000000 0.00000000000000 13.54609327464036

PRIMCOORD
 96 1
Ni 5.503036137183216 4.286961415426589 0.7622309561083535 -1.2223309821204045 0.2696369878406905 4.212191772167462
Ni 3.7356591529132297 3.1444201939162197 8.747471146752188 -0.40283093022857713 0.5546969951046705 -1.5862025003666487
Ni 7.883790800725737 8.606177613528848 12.479230108727245 -1.2747074388395918 0.4993557993302045 3.4229129810540213
Ni 2.6162469706873672 2.00600684416291 13.440270845249668 -0.6888404458900201 -1.268073992683474 -0.6184842647639607
Ni 2.657988454150001 5.984414473408282 8.370943529751765 2.7229247460772976 -2.3234830440359273 0.45553571682146066
Ni 8.906040656257423 7.112813569257696 1.0478065646858714 -0.5317578698099938 0.18654947519089163 0.46418130831160054
Ni 2.476426884064305 1.4359070311146047 9.41805687113135 -0.028012940273158208 -0.691319760668448 0.3971796454800708
Ni 3.933399018584886 8.853414919013845 9.838730503169483 1.4092069874127795 0.06686539436398162 -0.980780468103285
Ni 1.1237806922467855 8.528941986146213 2.9441082754165664 -0.3092479173640932 1.9908797397753453 -0.4085246381792448
Ni 8.085575240293883 2.486968691085134 3.8955447686154465 1.086979884180199 0.3287836734041757 -1.114510742610616
Ni 1.9991301430070927 1.7725136856717068 7.011714955885769 -0.25703164037185405 -1.025064891842957 -0.008508808801959538
Ni 0.19823502517614705 0.613918189834446 11.426562651111313 1.3406238390267429 0.21284568988325925 -0.9327108662895678
Ni 6.173685723255479 1.0936916539458936 4.108489270436198 -0.5034502811145524 -1.4442578083693254 0.5235748197785692
Ni 0.6556828115916822 0.29803419192320574 8.780618142067725 -2.445145588745447 0.1199368202676644 0.6339669337805921
Ni 2.3789498765635377 3.7155658578805513 5.767168099855062 -0.03739592414995495 -0.13117099842058697 -0.6649222445115258
Ni 2.1866984143715578 1.8109510206651256 2.066943856827651 -0.5104909900114176 -1.2007167462847383 2.9375820352479987
Ni 4.27119960914347 4.484081174802903 3.9573286428626333 -2.7129491229218243 -0.7740378057939702 -0.16384457739420816
Ni 6.530654077062647 8.427142745213729 0.9626881830981099 0.7362922116140803 0.1780013285105644 0.22956583085141752
Ni 3.768830212055154 3.791385421633522 12.70133182201982 -0.29588872244836784 -0.07339291106985425 -1.2379460629498422
Ni 0.1580401053247341 4.881689629249632 2.6663450806285844 -0.4003644709659557 -1.4368201211443579 0.3059872443349504
Ni 8.432149872165676 2.126964593026139 13.372648716508417 1.8881268874861354 -0.26436056993309953 3.0325660422250675
Ni 8.176490227445425 3.938387634901152 11.833691125489231 -0.6724092969171903 -1.1938526721750535 0.23369939340381687
Ni 4.033661876755776 2.140403314531182 4.784845685489185 -0.2144001788545727 0.022256497405355218 -0.2872449307304408
Ni 5.0479058823550504 8.399219451287617 2.8796422100590755 3.3323407299914027 -2.416685790742857 -0.5565340483134092
P 6.649945868714507 7.84922218858983 4.441655723351824 -0.333551012885832 0.4949620411378831 -0.4423693546428317
Ni 6.661950015954204 6.353414740408669 6.927078776357521 -0.3150161873064381 0.9347438375591967 0.1673389637007118
P 1.2990486462006432 6.750782556591535 7.045634770241025 -0.6421137312574425 1.0481536553416206 -1.4810454095113204
Ni 6.12676126180192 7.5809753116059015 9.205302103326337 -0.9985398489692352 -0.7576742768342822 0.299080232802472
P 7.192529621821702 2.980425217092626 10.041502485151257 0.6282241177595438 0.267212694669914 0.4446648355452278
P 1.608935198150955 3.7849344650983876 7.880249716119793 0.5394899483469289 -1.0566192696104706 1.2688265545787825
P 5.815329071772171 0.6452067173275235 13.07459416288596 -0.5828477465072737 -0.6759021405617973 -0.2851086011137283
Ni 6.217491142596643 4.240027698655188 2.944649711510261 2.0822994264399237 -1.6698795669713307 1.4284455239274174
Ni 7.313080136699929 1.536188399921176 11.741685861896029 -1.587424802809524 -0.4429956753729209 -2.120073045644271
Ni 2.812561517411519 3.976639863537752 1.2385679207054605 1.2076330137885978 1.65834174153506 0.5388551429764074
Ni 8.599921018668374 7.191381962409425 5.626681630347453 0.11508951947769211 -0.08597151906581323 1.268313876608422
Ni 4.39434161301716 4.353701512377597 10.504670057992493 1.8582617244955868 -1.9026505350236071 1.0112621816319098
Ni 3.7532350014931724 9.131944454119058 5.84992082220268 0.7571209754339735 0.6132361289911438 -0.26130815626002096
Ni 6.662523845660343 2.077855876562118 2.0218491717112452 1.1235067754616392 -1.12594803791328 -1.6603369175882179
Ni 7.14942760663645 6.1592659380592965 13.042368071695597 1.6686179266500876 0.012263904969017587 0.6478737736696714
Ni 0.8189577246872513 6.731744367792724 9.139170080757479 -3.079432110648987 0.8101695185195209 0.4589768812925257
Ni 5.5043318816809474 7.89596154368657 11.560736993851402 0.2462157807032727 1.1445347997765318 0.7653752450229657
Ni 0.757978137560442 3.2409253930436885 1.295635284980905 -1.5726149914902015 -0.8646097997462723 -1.1544546299934053
Ni 4.648353811161725 4.005433157340913 6.419384794915313 1.2531968184613258 -1.025494266070892 -0.9111385394354309
Ni 4.9925961029376005 5.257492554863109 8.253742514400173 0.8806593970099671 0.030000403016832204 1.0838490518607011
Ni 1.445060540459293 3.9628772059082764 12.422553318864688 -1.8849708583556568 -0.8144221231482878 1.3096567012212672
Ni 7.9957246146940495 7.836181445751947 10.568377187287027 1.2566662650671647 -1.3671064586983035 -2.309166113192623
Ni 4.935305685502191 5.781843331823654 12.883323764385121 -1.2631588147700439 1.4004336120955236 -1.89544990351011
Ni 6.02048244703442 2.470670076367241 8.322272589821619 -0.9131758815804338 0.23751465338484906 -1.5651816751406078
Ni 5.272893403750431 1.7451642214517329 10.430844089702461 -2.3149469815404586 0.8266009246026667 1.36863883618243
Ni 2.4662923110284773 8.638108460080087 7.836834871191518 0.3304127243671664 -0.6244307121553827 0.3328138776094913
Ni 6.3678900575118975 8.679701858457266 6.433310346138789 -0.6757776991687909 0.7542436538861784 -0.1395653931318693
Ni 4.233400891081075 7.833756552477621 0.22244693664804288 1.1930983105075323 -1.1654368400365218 0.06691758775815572
Ni 3.857949667545553 0.4650464023629458 1.3787887625910353 0.4123288424166834 0.28387318604473044 -1.5600119580142102
Ni 5.769922482444525 6.274374326047052 2.3289933729852867 -0.8000779386114737 0.7655652495465847 -1.3470210008023382
Ni 6.026183722824439 3.5024066326858905 12.526316538243021 0.9796332418727193 -1.3863629929350705 -3.0734607235569005
Ni 1.8023250644373705 6.46087823585981 2.9142117477267657 1.9950968631804864 -1.8528189562134605 -1.8249636245640892
P 8.74075919025394 0.5015197589105174 1.7754864937622163 -0.6254519543310455 0.2331581761883662 -0.19324514204351234
Ni 9.220138377825362 5.613840802374934 11.066900999812432 0.8861191345729578 1.414946203889402 -0.6979740327601721
P 0.03678618629059524 5.092331407991557 0.20261556711026338 0.5412118161340421 0.9874568516821963 -1.3545059963254735
Ni 8.438165828762287 2.743183654875842 8.13525500986869 -0.07405059925851118 -0.43136066223715386 -0.46082833267896767
P 8.956852351204176 6.765711384268969 3.2448987009928034 -0.8553183471420172 2.065246841833011 1.7522271161313112
P 1.1265110110098626 3.331627507884888 3.8848160041742306 -0.12825228211189527 0.14039765922517758 -0.14120241451466006
P 3.5973847043696043 6.004896491790279 1.2294884539034996 0.4819712853051699 0.24026573376742494 0.3241772849804159
Ni 5.453631250548284 6.099365520992742 4.8307946364423096 1.4131137786663532 1.0242534516852553 0.745351236492555
Ni 1.372970869796221 1.2392778035838603 4.397792921040046 0.6538112222000289 0.13400949631064663 0.5074149221892551
Ni 2.093978640241033 4.408150547235841 10.331943614317758 0.11898319810514346 0.31661927012749985 -1.891503260157536
Ni 3.2896453861583903 9.14706764347115 12.178438757619224 -0.31214863595065595 1.0068830787276077 -0.1445564185885575
Ni 7.657831470957057 5.602475272066261 9.063203357450837 0.6225728330110375 -0.3110366338333998 -0.7777880168650217
Ni -0.01427077457894349 5.007784079514582 7.24644184824517 1.2373799060337272 1.1042201593178853 0.09470967026975946
Ni 1.4848861731288525 5.727116637430184 5.018962652402867 -2.5746646533849074 -0.4298257136498662 -0.33729736730214166
Ni 1.546341483592686 8.253392663385785 5.56075229923931 -0.7215824162077316 1.0811887314197186 -0.09793589051654102
Ni 7.987404083955045 8.119893958848085 8.01943581347075 1.6757380826346364 -0.17957150121116172 -0.15591889478922824
Ni -0.01982026315637038 2.928762032904505 5.830293069657402 1.1263164769962923 0.2600593714545844 0.5097733951191027
Ni 2.5017586889949546 6.009116916725747 12.065776550136828 0.5730940095546194 0.7492834816674256 0.5894634520515784
Ni 4.5033044699585325 7.439748416671017 7.616886870360529 -0.037124415656123164 0.6479912730841421 -0.5274319887411304
Ni 2.0145217365765737 7.662329555427753 0.9248450395100793 1.6706688956418452 -1.479096770425382 -0.5940947801760026
Ni 1.845038356273303 8.088870133445258 10.562389922175724 0.05589321162319406 0.535605011470226 0.11404925113863584
Ni 7.243924401792434 1.719739863342674 6.34734695403215 -0.8303251675317893 -0.17042840125931294 -0.4813729895995388
Ni 8.109574279455437 5.1694559715601 4.755315668385887 -0.40922217846690173 -0.9733867467423752 -1.298919774419737
Ni 3.3737669700146826 5.915823312889085 6.065453110891758 1.4940919582826333 0.1653964952623603 1.2374362131929593
Ni 7.279344503169707 4.262258972109122 6.688681224942404 -2.8109562329959332 -2.4059344657636244 -0.07777098553289188
Ni 8.590573147649026 9.052478295136757 4.348715672656684 -1.3667431618216137 1.6344708484547334 -0.16169616359263764
Ni 6.385604735859454 5.797743967874387 10.880845047383177 -0.28214591894097857 -0.685093320142762 0.03522308486835224
Ni 4.456500327636905 2.604751865928921 2.1491421856365966 -0.17695668929613395 0.08897276778598226 1.139585940411689
Ni 6.93775848761418 0.5268247234194281 9.565275658836459 1.3059311727405638 -0.45259103237083986 -0.7665587238081056
Ni 3.335181549935809 7.252318975074165 4.277084140226739 1.2019444480442525 1.1425632778724581 -0.5405464146359014
Ni 0.36830426709874925 2.851581937428917 9.965982793696334 0.6834138755578101 -0.501692160772865 1.636961476087071
Ni 4.037919322962607 6.404059839634287 10.292646460296915 -0.1947027004256453 2.592330188985471 -0.2779149115787665
P 8.972132880959567 0.5451261889181004 6.7995701135264754 0.8951933289600841 -0.26630998034998654 -0.309735398523473
Ni 0.6222350184463136 7.3861231051006175 12.408668491039712 -0.017378086267131363 -0.25512825270155415 -0.024439363989286943
P 2.8137369427773185 2.1641802260645537 11.299866605186702 0.5057305925082968 0.8177684139127013 0.8044205318508856
Ni 0.9379153993650532 0.08351906266484738 0.14080762903669017 -1.054094446306088 2.2064032336010837 0.21639201247362086
P 3.707300859048593 0.3342891229697311 3.5225258426085233 -3.5411467025876493 3.0238944825929983 2.3365393629992535
P 4.696583272430856 0.6041214358998123 7.739709565768706 -0.1304469757703689 -0.32038542203815146 0.542361356357453
P 6.301094428653842 3.1725378495169916 4.897955850355081 -1.240665261653218 0.8788804507326735 0.3841192127516868
Ni 7.778095070982216 4.063834212917237 1.150649805470815 -1.3329457536561948 -0.2805230386255749 -0.3759325631758364
