# total energy = -340859.4636459962 ev
CRYSTAL
PRIMVEC
9.33514060279856 0.00000000000000 0.00000000000000

0.00000000000000 9.33514060279856 0.00000000000000

0.00000000000000 0.00000000000000 13.66292188267022

PRIMCOORD
 96 1
Ni 8.370419091966992 5.709988060436802 2.290028525491878 -0.6316861081662153 0.29479188983976323 -0.2696339025168969
Ni 1.09876470931772 0.6905119425327807 11.752284718997753 -1.5090763475066076 0.07876985911105144 -1.3846820056882216
Ni 5.596612778838667 5.809995420812333 5.249841247509085 -1.9884711303338527 1.1557563795239645 0.06592077106252518
Ni 4.092385576237011 7.664794490448684 4.493830225041751 -1.0545518455584808 -1.013569746719164 -0.12976563343262812
Ni 0.2644570627789124 7.813512614050157 1.5337038423031195 -0.3335762096968126 0.7742846316974537 4.437121904019081
Ni 2.64853806250952 2.236540970862579 12.838610353574467 0.8994397629412639 0.11853428349318296 -0.23666798911383755
Ni 3.3168781127966254 0.2491110252804213 11.778012366266955 -0.12996900769268582 -0.42962362494138917 -0.9691534253873182
Ni 2.0869733494739156 3.933762868545326 5.3674789542680035 0.837878554399015 1.5135086722463482 0.6076025848544504
Ni 0.29378714077423407 7.19070004407216 13.25627200848808 0.15644777070950477 -0.6168223036805055 -4.001110373273477
Ni 7.511324780323255 4.172798476664045 8.08381814236396 0.36991335356495003 -0.07505847169773525 2.6646303812117784
Ni 4.504363997602915 4.5151927606044655 10.264024340739073 3.020218062182676 -0.5194402287849055 0.27929199443195124
Ni 5.4056998200932185 3.699544192934193 4.210120368457322 -0.06799179465894097 -1.49642060641581 -0.9591688033707804
Ni 2.863741056884309 7.923975331806496 2.386666833654254 1.4270136765768973 2.568026836353416 -0.6651171341311513
Ni 5.722403797326511 6.8456732505055 12.471268840112199 -3.07369649371679 2.0575597576013984 -1.791561909175192
Ni 3.4907264346741114 4.614266606928139 0.9423124217966046 -0.4447645943478856 0.6567597633053915 -1.6327554084255236
Ni 3.354601415632201 6.879354437496531 13.554506410205365 0.8292643303674426 0.587251274891608 -0.4494000362373679
Ni 6.250315328792641 2.6542138279448158 9.724256247300298 0.1338950822199694 1.979278408090991 1.227360574124512
Ni 0.6509953592035864 2.852753596493942 7.713839451705192 -0.14527195659834338 0.14566739226454914 -0.002029371725202957
Ni 2.4934440379338576 9.185143480725925 5.434741442246517 1.5500191084675563 0.37387336665396254 0.7690035858041724
Ni 0.45511423867415113 9.168545600883892 9.461914527362895 -0.3630749904868779 -0.0751227492767674 -0.1505846270605084
Ni 0.373029414580239 5.06106510242834 8.961100108280043 -0.49277171835478356 1.4068120048180417 0.6260721044135477
Ni 9.111983984481826 3.9176130754481853 4.324560789588627 0.4893665493279766 0.5403345557354113 1.0492836551810059
Ni 8.87976302894167 6.419766799485877 4.672404928563793 -0.7688156381630824 -1.0671201691417944 0.2500122716312275
Ni 2.670886388910997 7.847847260877489 8.999657039163926 0.23487901553421486 -0.3061911328156404 2.933587055155993
P 8.873853884993409 9.135629895415386 13.367529146702552 -0.0775624690665116 1.318688215295916 1.045359123315619
P 5.29379949069702 3.29655551188768 7.048018022329998 -0.22202581372063052 -0.4921405125286879 1.0723806462097853
P 1.5297028010768567 1.8663933141604254 9.741854854205922 -0.4563607838259172 -0.9378124491821914 -0.537704574311732
P 4.120885760240231 7.643379678099065 11.032754492162969 -0.7665440685200864 -1.2263938393358684 2.0059014099951584
P 1.5451711289161412 1.6214765675150011 2.4434907675048927 0.32092458237107313 -0.43204637545026886 1.1332646261793515
P 4.565219778643528 2.961890724296643 12.05012331075705 -0.099877330513628 -0.7874175695349859 -1.2599001986234302
P 3.4213290000589995 1.9824664513684296 5.080147996676418 0.6917959289739183 -0.10707410537238332 -0.29408972156641605
P 7.314446666786435 4.971522434574136 4.092058846318861 -0.9809864134665042 0.9493021949893458 -2.1546721237753794
Ni 5.503597438711552 4.664470992637054 13.014930620661273 -0.24663332785666556 -1.391758710029345 -0.2687625556555371
Ni 7.745151380032607 0.8322903226727427 1.9142433774305547 0.5471389802517544 0.7189614336451166 -1.0266654035608576
Ni 7.330951195223282 8.669096912858908 11.954565078352674 -0.3339899001954635 -0.8525307570945512 0.6309464017867135
Ni 3.7843446094049593 7.329000150854898 6.990483684285897 0.4525946319152658 -2.9007705228466043 0.2908858699171377
Ni 5.430419272186414 1.2272722536964709 8.203655208229055 0.04674496946502272 0.32271355595069584 -2.3472672909397185
Ni 3.6243869766191175 4.967209599654552 3.2274960093593403 1.3788695127715027 2.0439992453081444 1.9791855912668688
Ni 5.755664902994206 6.341398294832411 8.715017402583848 -0.42299429255032955 -0.3823250969657416 -0.41938960591820673
Ni 1.6274323871658543 4.267279433852578 2.995486027994903 -2.136024426767205 0.06596010894089285 -0.7608557598860574
Ni 7.651445239507117 6.015984631495285 12.572511239578336 1.322137350186781 0.0028068733211758113 0.3731357171569896
Ni 1.3702119253169438 7.14124246960473 7.441114254968974 -1.8439985297083534 0.051534163323549965 -1.4359356616568755
Ni 3.1894067690154366 4.733102945729643 12.065480550424162 -1.4362272247553654 0.40580286837270757 2.163574311361016
Ni 7.698307644910381 1.0675946751261867 10.56311944241217 0.6851879367390974 0.5558863874270813 0.7637086559538202
Ni 4.624451245233908 9.105206672465338 9.70858534691176 0.3544239996800993 0.30736124186434166 0.03270314665997594
Ni 4.9206179133263275 9.049541229553054 6.060230397011191 1.230745174326029 0.544762766710094 0.48407393347046956
Ni 0.2409651816639098 5.08083693004669 0.07623169098876344 0.3195708965566561 -2.0073900787255425 1.4515342874260808
Ni 3.3230019649768123 2.296958000298819 7.5869384850096875 -0.3723705568561909 -0.09155389824959717 -0.8529030528323052
Ni 1.775627742898287 9.055749097997909 0.16432647854853635 -0.18950572960573814 -0.33850938533237185 -0.9263715543351013
Ni 7.774641088930797 3.757496745273528 12.29106888862587 0.10354912293826038 -1.4513625377349069 -0.5607048918616473
Ni 6.96577916841753 8.304344967376494 0.7087808125276387 -0.37190750117684335 -1.2476123823950127 0.2819083490088758
Ni 7.953810440903873 2.0148687241084153 4.058789339024699 -0.9013680903122283 -1.475334218059156 -0.3416276192463794
Ni 4.812171585922002 2.575929339556017 0.5949537101284044 1.2251666517969866 -0.2725225369186016 -2.6245900774604407
Ni 7.521966840514433 9.202030749924033 6.423185327943781 -0.09386789109475448 0.05135804275700188 -0.02431646525817748
Ni 0.30309520938530865 8.32182968556779 5.457422099650454 -0.7251084270831188 0.6811263650752141 0.8850590687395596
Ni 3.359194304767341 0.8737430141454903 1.14708246312783 -0.5382205947162021 0.40517757608388283 0.3815707352982203
P 6.297429782989907 6.071500712159271 0.7375778539993495 1.5054474925047685 2.030128915083955 0.7104461970852539
P 6.835749996134251 4.98929654212151 10.432638449327792 -0.2566632012888418 -1.8615005431478586 0.17968000176456797
P 6.438231707431625 1.263053847304182 12.464806122331185 -0.16453620414459405 0.709722688655668 -0.10801358646751721
P 4.741467231634289 8.82925991873616 1.750766396669209 2.146165114745633 -1.557444711507666 0.5719041030115763
P 8.123495290110073 9.024308344731336 3.6464561823190893 0.8559071297659517 -0.7196430330931735 1.1758107270716784
P 1.0810559477539767 3.5896509187494874 12.329776115272104 -0.6228867647070304 0.3383373785308818 -0.34394803984943995
P 6.783081133328431 9.030628234862414 9.173736872526273 0.9796540678083258 0.020378820766668127 0.06322368384633628
P 6.237946267605524 2.4591560668091192 2.1454066615499574 1.3330270005160911 -0.651518312400794 1.4245089078771727
Ni 0.1776514581247552 5.309333164519934 11.295534030190694 0.19562032714390826 -0.7591752868598409 0.7456661966298126
Ni 6.466339815533065 7.772008579304558 4.524626853612541 1.7562056411630853 1.4907515810554908 -0.39844359979415894
Ni 8.485969461305956 3.381804015103338 1.8146000875352484 -0.37860111114693507 -0.4716418783547039 0.08550563517298822
Ni 7.849480910468239 1.5637667288291492 8.22230495195707 0.7510521435320743 -0.20834548802006053 -0.5491246432232156
Ni 1.4860516840119837 3.1075002461054293 1.0139222847146199 0.5423125053973885 0.7356021275255912 -0.04713012071858335
Ni 9.338594520570318 1.979404525278336 13.488213843326731 -1.3377801989303606 -0.7027105190038929 -0.5698863012505991
Ni 7.348566605381839 7.022704855299822 10.249705168697625 1.6831847687206687 0.9881176251946466 0.19958959620430142
Ni 1.2231181161657034 9.075913001518039 3.5667602206838813 -1.6296862825818963 1.3002096968757544 -1.8193575912312214
Ni 6.921082515614576 4.252968663437597 6.0138170118668715 1.5255134100167083 -2.028749004017293 0.04212649685640487
Ni 3.7772125620487658 2.11748058868863 10.030347103278018 0.021576697729511228 -0.42900424618983535 0.5917956997291809
Ni 4.674086187371189 0.49957284539388097 3.7481494690722754 -0.2835813658359246 0.8762610108319554 -0.7726476103146628
Ni 5.170071538263781 6.693174394994003 2.7538029740251146 1.0697743189351898 0.7714834148032326 -1.7059241192997134
Ni 4.800353298025482 8.848901054387248 13.239384739289973 1.341536323538683 0.9879546172542211 0.4609345192395287
Ni 2.0072512494452552 7.106254362941099 11.647613522419139 1.9554507095437743 0.35039765212952556 0.10773976398084026
Ni 2.1828919183023086 3.9268268591400224 10.141167356916217 -1.0743526823344915 0.02883877860856324 -0.49530811162339217
Ni 1.0653075656991349 0.5263488289433195 7.143030149014039 -0.11419657534977752 0.05250784009072892 1.0224349104192778
Ni 1.2562858704282125 1.9517164985002324 4.875941797832515 -1.3581245669146675 -1.3103714679001046 -0.6565700158920886
Ni 5.734987566745555 4.515286112009651 1.9149127070057368 0.4220805224868086 -0.7841738657867076 1.0186265924167812
Ni 9.012826121893486 3.122436470935155 10.182428678008336 0.3253227114387688 -0.6712217043669924 0.061274530539765434
Ni 3.5673119274885288 2.799328587306118 2.3448715425244746 -0.5794469483558408 -0.5345919968246793 3.551518275629961
Ni 8.047497911148325 6.793489815006646 7.944428624682701 0.5380722420637959 0.31291662446493207 -0.8465370014049615
Ni 5.8296832321660155 1.6681802755294493 5.5629269242773765 0.5444861160099397 1.666439173831214 0.34696111564415083
Ni 1.8002631787268155 6.78729128170231 3.9861031344048916 -0.28960777453566255 -1.429034563661668 0.8955535405129802
Ni 2.3978335287425776 4.531865321570646 7.670610282991758 0.5728019322354975 0.5779706209206305 -0.4482476678004797
P 2.232340157629219 6.265148867076662 1.5203415221648262 -2.568807166162866 -2.686093436181561 0.32189543092477463
P 0.45441410313525776 5.272730078546588 6.921471790974201 -0.9845620466329044 -0.25315853056969306 -2.125806605693939
P 3.7433633425284 5.645332877205128 8.794618145785767 -1.420553265663534 1.8440208983058564 -1.0755834694177993
P 0.4286015060873365 7.155067812712745 10.410025938449639 -1.332652647895808 1.4397100410976431 -2.698085575546431
P 3.332822532802357 5.796394121076764 5.38198856317603 -0.49497875330843133 -0.6430781520532409 -0.36888671207264856
P 3.529579289512435 0.03594869262299373 7.694055488404167 -0.9851300033212326 1.1350517999867613 0.2843928059936264
P 8.305763908735317 2.366812856799341 6.172006569038494 0.2834695228484086 -0.39662968651387176 0.2674831747224813
P 6.229012538129245 7.359040633043684 6.769855106241709 0.119594092216265 -0.2414409850224487 -0.5072634842130554
