# total energy = -340897.3409042917 ev
CRYSTAL
PRIMVEC
9.01746438553826 0.00000000000000 0.00000000000000
0.00000000000000 9.01746438553826 0.00000000000000
0.00000000000000 0.00000000000000 13.19797062750994
PRIMCOORD
 96 1
Ni 6.335841768451908 1.8569934813926279 11.236277252998295 0.4313074404017152 0.9559096730035344 0.9672603221296631
Ni 4.50021066005156 0.29094938827910666 6.0215605929713565 0.6426495491562546 0.2374110379274492 0.34171246565070185
Ni 2.9513800045931515 1.6642541988527435 4.804035183897732 -1.4674219051906148 -0.16279968106946155 0.4130536363978499
Ni 3.5413205558387926 4.513367140505649 5.002756652272601 0.1615210714673541 0.4235396235308383 -0.7121608657835153
Ni 5.0340445482503595 4.600340583946146 2.5408860917219593 0.8886645267026307 0.45785845141736625 0.004983312147204321
Ni 7.337772229900704 6.1447887517413005 2.6251687238070756 -0.16067440719634263 -0.6683317844137071 -1.2422135799769445
Ni 5.025063153779988 4.455925892738311 11.469260577086194 0.8776969719475335 0.08952041275933614 -0.3947522669855008
Ni 5.591738647060208 7.959805936688566 12.390730007831944 -1.183038355168369 -0.39988547444700806 0.24976287462458277
Ni 1.7862424562776316 6.643652913277348 0.27578832550497423 0.30997939621347903 -0.27246237310462756 0.36908263013353854
Ni 2.777505257426779 1.6346047761433233 0.5893607282893706 0.16627401277130718 -0.8958183641385926 -0.9422252335379063
Ni 0.4605805167328721 9.022063234489558 4.556150500008338 0.6353987811311121 -0.36010639477685724 0.919022827279514
Ni 8.575004405516045 2.3414838047903497 1.2494995340867208 0.40910390772148253 -0.0764959754752102 0.7222385617344915
Ni 6.882678840211226 0.8097890367938367 4.898017902360137 -0.3108612845978001 -0.7534576676497733 -0.4901088268106399
Ni 0.7984351474588518 7.239896672088038 2.5795701119412837 -0.059486842511723356 0.7401864044621639 -0.6543699229169763
Ni 7.708218681946226 3.9439683729984685 3.8471821248765874 0.07542279701568945 -0.9965153623400386 -0.494710073028077
Ni 7.590369440647744 3.7075394757909628 12.685665115343888 0.2768355624716587 0.2998302235946191 -1.5090105272656786
Ni 7.943547448505755 8.718373070861869 6.968066111676484 -0.32008845962302296 0.3461604741197264 -0.08370457740850747
Ni 6.806499301570965 0.7551134453357997 0.40638645786993344 0.2598444272303009 0.01871248880783874 -0.20240058329053529
Ni 1.7885148572882072 6.3661314311285935 9.227519846970774 0.6184238438396704 0.0056746817872740975 -0.3315383533311774
Ni 0.22157082123478353 4.896050291643836 1.414189092088916 0.09844599738374013 -0.7813618502592091 0.2589039176939025
Ni 6.305020075379889 1.9271223014690142 6.982993622124529 1.1947525582815037 0.26455083156703474 0.2927933713524957
Ni 3.5547746126156947 4.079554966629502 0.2563719213146084 -1.1489082462538793 0.9315970644000988 0.7489600368897359
Ni 6.037616188206795 5.651740854696607 4.620767845887645 -0.6626802425548846 -0.44280052864297936 0.9759449943878548
Ni 5.321584433267171 2.8002112326038833 9.176997699582067 -0.23501297000891785 0.4101794001738484 0.20593996390236144
P 0.23617550645989802 5.444781030911968 12.485174420467928 0.009691002035518793 0.01094775726075534 -1.0304914621751673
P 3.875895534788794 6.034694529764625 12.484316859610365 0.1453938268881883 0.7333177023667886 0.2982158279196477
P 2.294349518749554 8.565671329936894 1.3913956475078333 0.38715825668832676 -0.2661937664870964 0.19663925532672585
P 6.275668228993283 7.615176485013199 5.804981839988377 0.5503574871890522 1.3663425839490855 -0.5389047652674203
P 4.628051251825114 1.1575628782802672 12.577876658995802 0.7442618600831182 -0.43460950819175476 0.3465618233232032
P 3.9551500287647947 6.113029242379203 8.076524387960358 -0.6080679545266431 0.0937673609611482 0.7074063818176656
P 4.766451294326385 1.0541505973704048 3.762147436266542 0.04702753370244804 -0.693049084654729 0.3887464271110531
P 0.2543420900944471 5.443771074907268 3.6462694126700916 1.105684659678554 0.6438538538770009 0.1548853113183913
Ni 1.4146147164051825 1.2573591559947288 2.6645777481583464 -0.029469213103710538 0.10867024621490962 -0.5225497209481645
Ni 1.9576103483609086 6.654627167364138 4.639363660824191 0.12220247637338953 -0.7361220045848033 0.7670066099788017
Ni 5.8160661071399655 5.496730642903747 9.224628847907319 0.30918543955727396 0.5715991701766477 0.46414197043323285
Ni 8.615420680632718 2.151774390264567 10.025046034025394 0.06140514258035876 1.1378751283681694 0.9013516352519959
Ni 2.274700463979534 5.230147344984471 6.99275953599141 0.6243121842996474 0.1858107972526542 0.4514273510800419
Ni 0.5321872992125656 0.0956635738130847 9.245837924006027 0.30121939063266184 -0.612488452191842 -0.39542152513838347
Ni 1.617354366884467 1.0865142768424572 11.363650740119676 -0.5491902063538283 -0.2963800602624896 -0.8245324721094122
Ni 4.089979155392303 6.877051942470753 1.2355612394754218 0.37028410664080746 0.7989268557261661 1.0676480166208064
Ni 5.694934508826207 7.6013707471275165 8.005228707999969 -1.3578993382777387 1.1350484575526516 -0.22801288454200083
Ni 5.176953322915472 2.8104190022228197 5.047405725144687 0.6177779827255553 0.48018951081439876 -0.7241576331340754
Ni 0.7667703214721949 7.204358845172643 6.835611283406455 -0.056670456108850784 0.6662633319204525 0.06870861822030748
Ni 5.115878037024078 4.524314342199455 7.10652657118875 0.216340333300079 -0.23585552051487124 -0.664954640411358
Ni 8.073245637930812 7.240717261341858 9.109134066544794 0.1923948782280751 -0.33912490742918366 -0.08478161252277013
Ni 4.49728900160939 0.4777326356305569 10.419441067832375 -0.6792504882087399 -0.9505072710410404 -0.3273279147942556
Ni 8.158866461722155 7.020591939638802 4.731287692180587 0.12152987578639717 0.7999149306710481 0.5217539645197465
Ni 7.173419925064364 6.0368316688102865 6.949179934388587 0.7251791324200543 -1.1369348759420872 0.3108054916592002
Ni 2.4667183493732034 5.272448270145629 2.573339945837288 -0.32708905931057214 -0.43479642739158025 -0.5601734448382094
Ni 2.244374731445538 5.157241145895158 11.403191419450131 -0.8361438310960955 -0.14722368100807545 0.07062794673020739
Ni 1.3760560389400127 3.4574130502697074 3.909924739922169 -0.6048571608988292 0.2804613321497041 -0.5049134959236401
Ni 3.678674572478051 2.8010047694647193 2.7374172180116343 -0.21991185270142127 -0.5333828070079265 0.07215826733180476
Ni 0.9623888803719084 3.3324670645453396 7.961662632593636 -0.28538216649008913 0.27798176026095994 0.7459742147885347
Ni 3.73607073292375 2.6352457401932607 7.049141231700244 -0.14550541276538811 -0.4266318893029169 0.4008380681682645
Ni 4.178837248877286 6.9624202772609225 5.892299750566192 -0.4955168852000886 -0.9791794421647525 0.13039452526587866
Ni 0.6361198878141351 7.281449147709999 11.18859290163351 0.20652386143028947 0.07489597797794198 0.41040874257583504
P 0.06493836760937233 5.566588939050302 8.117490728401018 0.3961730585924274 -0.6863837568194114 -0.4222016214457051
P 8.418091508750043 1.6663372331124382 7.932547945518848 -0.5261070992821197 -0.7443680466436793 -0.8225437238141575
P 1.6640197447802236 3.1441553569903467 10.326052600269165 0.38778766274220955 0.5788316833693451 -0.5725707900612979
P 4.0846317990459875 6.303586298551789 3.594229626035036 -0.22110278768572886 0.0124348833292431 0.47315368701354
P 6.891876653825463 4.022032561683216 10.396503343822049 -0.46500097599941853 -0.9230082942898232 0.9000342019921531
P 6.245802387139999 7.604914610608296 10.174922603376507 -0.6201063737484159 0.22241430740830084 0.4806427963017335
P 2.3716923102880862 8.49565071943244 5.8069350227617536 -0.05708646060034685 0.0642662661782377 -0.35414143544267396
P 7.10997304605479 4.0968053758883585 1.577091388661365 -0.8042323270994794 -0.4467520570915597 0.9871030678872034
Ni 5.390946768875703 2.807145662671871 0.7041999399952721 0.25007423521741445 -0.20030847664819695 -0.8915302782862
Ni 1.3102195318836032 1.027936828569832 6.91908865592711 0.3039959249365345 -0.02727606210713367 0.02150007885530491
Ni 6.725468367122411 0.5995585786975466 9.175836250176662 0.5493362450133894 -0.3392593761245189 -0.14078563869221558
Ni 2.607192408669841 1.6920009365890223 9.039765418711232 0.5825993779418934 -0.5494498877731182 0.2982780486161508
Ni 6.273936875842368 2.1437758994059126 2.7610420728037295 1.4938595305568532 0.09225349541978305 -0.17211555915374874
Ni 4.099131881684901 6.903409990700569 10.447539486677433 0.16017638451400157 -0.3381838836721531 -0.44081769388499564
Ni 8.235722310186993 7.113652171500485 0.37170889705139787 0.0955499067828677 0.28376160016753066 0.6731556881649117
Ni 7.501367067733519 3.817904221697468 8.280301046837325 0.3486606148337608 0.1481230528938933 -0.7431442015389071
Ni 3.0596436813113073 8.451266760011586 12.400219085543965 0.8318485461548513 -0.25742759025869216 0.35490890973631783
Ni -0.06769410470791207 4.72187796815465 10.264207222924188 0.5938777790691901 0.17735546739644942 0.16330181751686068
Ni 8.841254057255197 2.412442231584883 5.629422630485593 -0.8202441291467035 0.13627592374732014 0.16050188617422034
Ni 3.5446930874973455 2.668015205560059 11.43997455818918 -0.12831373147744998 -0.19681511878295782 -0.28504843729975426
Ni 1.21245218364287 3.146373653214957 12.501975760003265 -1.199570034274805 0.8581349906552059 0.9076585513066304
Ni 2.872368982153998 8.344391772799895 8.06535896362982 1.1474465741066884 -0.13536575322822494 -0.3755852071387467
Ni 5.807977441638034 7.882760721472848 3.546730132688969 -1.340946512473484 0.5409559913694942 -0.009966110073776383
Ni 2.9794874409025383 8.583156193268271 3.555916223599579 1.0963240443992603 -0.5756424870080861 -0.44308874930735953
Ni 3.482950509245704 4.303927514030896 9.520026551339269 -0.3858971305877161 0.2758611143735314 -1.3050801375941783
Ni 7.24195265395475 6.20213982486536 11.61924265076994 0.002316563948318591 -1.6354111008808156 -1.314931062246329
Ni 0.5880225365831425 0.03492193410181579 0.09937786736965709 -0.3413406841335798 0.17460335857260897 0.49989470255281004
Ni 4.673832918216758 0.3606336473641383 1.6136761431852054 -0.28456712678796153 -0.4208222245996753 0.06031705172250257
Ni 5.917332231539839 5.416664577138254 0.3562412404901241 -0.11809873861766111 1.087365549654392 0.17655919674739917
Ni 7.682077052860275 8.611921904473578 11.467333544959368 0.9462798632232542 1.1201183186053807 -0.2689461324212529
Ni 0.18307436427347443 4.963203348492087 5.83339767357777 -0.4417407199198972 -0.9304760634217781 -0.05298452261683133
Ni 7.8847986684109035 8.745037712878826 2.5481451505057438 0.3870021907264367 -0.006778970595046389 -0.26043938050182247
P 8.433033447141014 1.5809147935363024 3.4759890267847333 -0.3531451329676757 1.2266149542077391 0.5717632065583379
P 1.8372903218366419 3.2442311760989666 1.6182822639637857 -0.3825552106986766 0.6363629448165944 -0.17063717483600935
P 4.752672608833685 0.9257779752015177 8.202037572190935 -0.7830063278411676 -0.18481140945386235 -0.3108427726550388
P 8.405719547692463 1.5857120845586294 12.216239367851992 0.2873976542582212 -0.13658008525130028 0.5625074922880248
P 6.3724166037649885 7.731826403556099 1.2905776910850453 -0.7560377696721238 -0.25565275774645646 0.24244834324104053
P 1.9759248184104317 3.2579467393413717 6.005195698709478 -0.703440455191382 -0.009983079354640871 -0.04171383479901848
P 6.969814598009623 3.9421648801329323 5.945804875154496 -0.34016800398171737 0.17752824552888782 0.14333694435915958
P 2.4195389760107693 8.322515404340937 10.232016678767227 -0.9491214464371074 0.6730111921672474 0.24010555404047682
