# total energy = -340872.7086876352 ev
CRYSTAL
PRIMVEC
9.25836490912967 0.00000000000000 0.00000000000000

0.00000000000000 9.25836490912967 0.00000000000000

0.00000000000000 0.00000000000000 13.55055289437683

PRIMCOORD
 96 1
Ni 9.179076206786412 5.471915823149182 10.14895751018591 -0.26997971589208986 1.6253048656847493 2.278075048214774
Ni 2.365623317842412 1.0880708114796716 3.985095570396746 0.7583872437409067 -0.3289050294733884 -0.35609315985240614
Ni 7.656389974467499 2.815839083442622 9.054750254488098 -1.0558507668755623 -0.778836255623878 0.6611278104661
Ni 1.2787375770626837 4.254514913173391 4.792410171349147 -0.3056450305041833 0.7164160415154437 -0.5169454873875097
Ni 6.954504077331744 3.4889962744696037 3.7704144580831707 0.9711969381799082 -1.2846025864661168 -1.633028202470936
Ni 1.2447223446283833 9.08047462120522 1.0903233716460474 -0.31643775024431303 1.0559356132798847 0.3282900215972088
Ni 2.286306906229823 2.1009544420668673 10.795345990941447 -1.36626725062646 0.21138787439081014 -0.7925314937227834
Ni 1.0345944961447449 5.09223953929011 6.873409133832755 -1.577065056841755 -0.2958918077721614 1.6733042763821633
Ni 6.134981396496961 8.306391995021377 1.5361858540969355 -0.2804389635522009 0.21872246037901039 0.5851357712105019
Ni 4.785991347003284 7.053550064425415 8.49782257570396 -0.4095345675009979 -0.37250759665468747 -0.8043292576886599
Ni 1.687522159989106 5.837908243769851 12.056645437821768 -0.8259121260657581 0.6249626733994527 0.24688401041489094
Ni 8.224242523766735 4.600101897679417 5.50938349983355 0.33905343076129996 -2.238045028876081 -0.5947869211470207
Ni 7.484693598448417 0.6763004058912834 7.527711664856348 -0.3412103292033027 0.9885930221691684 -1.5721889596963763
Ni 8.071229528001442 8.77883709461036 0.19805216321851626 0.22730017474569242 0.8329029555612947 0.7891057558706861
Ni 4.319138299779656 1.3899675722901434 11.933457338562695 0.7154608766910259 0.22645248203341647 0.4252031272761903
Ni 8.779466663419704 6.731368226243262 5.762969187055177 1.7557132749076987 2.6017471114239963 -0.32146091449051734
Ni 2.9764346800145813 1.377755789061825 6.989374782677565 1.8826532659660735 -0.8070633687903712 -1.3552446742637112
Ni 7.114331229621709 6.143776843098101 4.400081406095214 -1.749707177922935 0.6792281196112366 -1.33553614009119
Ni 0.7916263017254211 0.5382924420275339 6.208632614661933 0.3578103996538289 -0.5982350275966213 -0.43737832918614356
Ni 2.775944789332823 6.065525143442491 3.448154849636335 0.4324541524116488 -1.081835363864782 -1.3520048271701746
Ni 3.0942381142807878 3.952877386578531 8.422440969149775 1.3164775807978424 -0.05534402398794339 -1.4402327463703326
Ni 3.4143183036435096 3.524141027414787 5.8460472723036006 0.43495249335347036 -1.2422362056847638 -0.34035749428470413
Ni 0.7363223851704264 6.69479768511221 1.3430063682954505 -0.10907802317628956 -1.1290017371379395 -0.22400119227944645
Ni 5.100701684756889 9.113073323818496 10.17187196317309 -1.2348252579326735 0.9538468769372346 -0.05139223842904697
P 6.89887982135317 8.186218419355285 6.365114719734012 0.8215024270338367 0.05134415879993092 -0.5727037160947362
P 8.091570155562183 4.831153650708924 8.460531733788098 0.05925081524151732 0.6007619077835331 -1.2228107499703005
P 8.559219422162334 3.8347962013670256 11.743776588835495 -0.792866508464699 0.32540370118834927 -0.16432203125125894
P 2.860825478216239 3.673265509945893 3.612306584144607 1.2817530328324636 -1.494341355289278 -0.38578014539387756
P 8.65444170457572 0.15781901295545236 9.08766466734253 0.8892062581387139 0.13656234463948738 1.7857481307068925
P 5.127717593369652 6.250349880809379 3.3640740834753804 -0.4205854259985208 0.5179407614212435 0.08938851516716217
P 2.1972692115317636 1.6952899280926386 13.071500174284102 -0.5240892975211425 -0.2734645891168968 0.531350092848614
P 5.928473568667056 0.374120339116606 13.321927833257677 1.7436774267890875 2.880067228860982 -0.0611644873244624
Ni 0.4012880849127987 2.2377745577212207 4.253640923532183 -2.1376179965065703 -0.38266679657587643 1.003666371562523
Ni 4.671085780933033 3.7148448264571727 10.493263136997625 -1.4117780905740656 1.106014789324463 1.5105753006496372
Ni 2.8412995867617092 3.7038458890233272 12.353754698171766 0.40877146408272824 0.12903775412766808 0.47362754132616497
Ni 2.848567403163703 5.3441689050412675 0.5974219149357822 -0.19714216310507338 -0.14830611543897684 0.7403959493698088
Ni 4.97322325922943 1.7203060298992472 4.8342413153841655 0.6411896767812764 0.6742934013137807 -0.5493300743658023
Ni 3.127429352244034 7.233190117480051 10.49028194351808 0.3311339188039071 0.33698215005456805 -0.6216868308616583
Ni 1.1398621044131168 1.4007257922380636 8.370826510984838 -0.5946113148011051 -0.3994442731445314 2.1378864196766085
Ni 4.119777929608781 1.9993068544522274 9.059832170950587 0.17264829172876717 -1.5626969610455408 0.7134032228310488
Ni 3.6700806324397957 8.314770815204566 2.8476897101765584 0.3215503888805301 -0.41532572026147824 -0.9066524786396193
Ni 7.302563045250932 0.9580463356203035 2.571176608256974 1.1251473963888556 0.576704095503381 -0.07665127010615186
Ni 8.677606133413668 7.084426711177835 8.32003975063689 1.8667466220381466 -0.6425541612289709 -1.4657324333033335
Ni 7.762629711044418 6.6014085589377975 0.269995213069898 -0.026961101969876153 -0.8182859769790682 -0.23284604426458608
Ni 5.074111660926919 6.239832378347385 1.103689672970326 0.31282149364796447 0.9006121859828102 0.6846379777728984
Ni 8.00577288855928 0.35797838001230475 4.945626851140993 -0.5227512954360094 0.0040520585821865705 -0.08005798179485567
Ni 7.2193025702150955 4.273540852926382 0.32710636244230595 2.1224788268722863 1.6178553513852396 0.42421942320668227
Ni 5.146604657649993 7.867212200314385 12.927322436088774 -0.9847327678828138 -1.5455405038709122 -1.5966573771513857
Ni 4.176874265597439 5.846203738669452 12.199982516489323 0.7772858804176226 -0.6439253305448847 -0.8687667593374392
Ni 2.6807410236491234 8.42626004464764 8.059692679570201 0.15686968873827176 0.8560570250802548 0.4582929678516236
Ni 5.937019039417426 4.702916039264313 8.904366634338304 0.006483550841814641 0.4627103801930289 -0.6899113103566957
Ni 1.3329823366796045 4.357301279663757 2.1722484805427333 -0.6721658134478166 1.0375568536623807 1.1282946837685859
Ni 0.42086304570099736 3.804012138263038 13.596082829651671 1.22417292042515 0.6584407505522402 -0.44605940189990917
Ni 8.908407910592405 1.8625978391759936 10.809302975942728 -0.07117636303450967 -0.12837929460806277 -1.0832795525104764
Ni 3.0149309610330413 5.7468429671711085 5.715542287308864 0.360899580102114 2.1680626861496726 0.8310335064527236
Ni 8.7551356806115 2.9859152456141254 7.07792826489432 0.25911834769755376 -0.6758286070113845 -0.05782693831079718
P 5.349548015015227 6.981936612362454 10.579092808277478 0.632641272990633 -0.7454116574168453 1.0629467544903952
P 3.938712088368275 9.136284044480659 4.989205048621942 -0.39536984596484165 -0.8585887903631729 0.6695512586431049
P 6.0293156785403275 2.1008711167832774 10.310818725231952 -0.4875636917912829 -1.0961939465792991 -0.5242803304860261
P 8.283060915616248 2.847002739505185 1.5348165419366109 -1.7915534245347595 0.8613144168244522 1.602680443417014
P 2.383751196205602 4.732950174815993 10.287335808643393 0.46701337844375695 -0.22763416104634343 1.6109707084502645
P 5.159640435349366 4.460198746532242 13.568168859649107 -2.0179118041924733 -0.487549807834212 -0.20801638681541595
P 5.126264030089253 0.973507804908622 2.526093926488987 -0.29112112585639544 0.06293520607164 0.8448089629702612
P 1.5560811543087125 2.918384732447062 6.770940329256515 0.386520880214644 -0.05279014721783812 -0.1563572678782275
Ni 0.6060932994480214 8.011105706709024 10.22691386800302 0.7695432603577262 0.17876905991452438 0.08926535932573659
Ni 8.058536309801273 5.2372533078307875 2.3572139450552387 0.2971768451321721 -1.099348690158197 -0.2925090073428575
Ni 5.440974367842859 4.524414765085402 5.005777521691458 -1.0742223274042144 0.8846356080488958 1.0503246948510105
Ni 8.310400866998528 7.5564737010785565 2.7451385061532116 -0.20717023676503674 1.8524569448883517 0.29203129637549063
Ni 0.8963282239018672 2.1213876532760403 1.9649518400281774 0.6249048235783237 -1.9045603504518103 -0.5475940655113022
Ni 1.708473839629504 7.893552248293586 4.456329675864225 -0.8557268954343458 0.7267711594975226 0.9452961591537462
Ni 6.924358841401944 6.03750007306181 6.95927954191792 -1.5294094026370049 -0.2699210947400126 0.9277442663129118
Ni 4.5740118255509845 4.275531401367692 2.436322043458854 1.6464635020402352 1.3174479151309118 0.8862528319373446
Ni 5.972978528468821 8.263081364284398 3.968130542657875 0.11097292620615727 0.9741123120544902 0.061099181304165744
Ni 5.531178616511174 2.7736487148516833 7.13164252020572 0.06650543992140158 0.5614505117784202 -0.05689722740767621
Ni 2.7952299633014266 8.65477500571008 12.349350494015805 -0.16704714349190586 0.054130463295816444 0.6130924043244279
Ni 5.000239167842192 7.37498197505526 6.001200802020666 -1.2809876154213486 -0.2772168570704774 0.041271605055277306
Ni 6.273866127511372 3.080341308650987 12.282410664525747 0.04714734710976396 -0.8409924174376484 -3.1311915026094654
Ni 7.129644565072534 8.723731307063012 11.56322829018973 0.6475199898746784 0.041114510652122745 -0.026987070111805136
Ni 8.329806399710094 1.8078623862223775 13.163386667844447 -0.8884776075028054 0.5804303953150326 0.3419793461588433
Ni 5.772618254894868 2.5113777555705545 0.8711010313768311 -0.9104998774101675 -2.1774747234921916 1.996341791331181
Ni 6.9319321838437675 7.9575645828201935 9.298118410268652 -0.24044545387839883 0.2789888613692357 -0.3865201088836956
Ni 0.523294816817865 0.25086465379417794 12.234144031088146 0.9766314789319179 -0.6922697832865432 0.10507070178910936
Ni 2.1973617951801967 6.134055560012631 8.644209359750901 -0.6790545701478499 0.7159236752600574 -0.1880754249171148
Ni 0.8415862900928608 3.748785991972727 9.112407647386261 -0.2820883262301658 -1.534608430339441 -0.6415673718356693
Ni 3.1632962576469956 2.8495117563777206 1.5504946569622626 -0.8743072295396943 -1.4458513781086906 -1.3694926995422931
Ni 6.912313708740805 5.571026618796756 11.519189026139584 -0.16324756724015757 0.08235192003535495 0.1392524898771408
Ni 3.792966909004976 0.5955285793253265 0.7446160283970585 0.2531400186269318 -0.4040303498533171 0.44292059916061133
Ni 5.137577751927771 0.4485427790730247 7.6648567491167015 -0.400317162667788 -1.7382398007132838 -0.7148515252418011
P 1.3603963549806293 7.260020858795948 6.735397466623068 0.9728941233766728 0.8620050151335735 -0.009999534414873102
P 9.034229088812914 7.046124855821085 11.993133980833184 -1.1290184493084878 0.22611438196770736 0.6135006955064402
P 4.659735025635141 5.237716226072952 7.093863762462616 0.399085604253532 -0.22075208921452952 0.14006033049041686
P 7.218950752351049 2.494120163502635 5.6798364774541765 -0.9145725048176442 -0.7741092824618538 -0.812493024446375
P 2.716469053579435 0.15754218784663754 10.175991009691876 0.3759186792187655 -0.6989721350073833 -0.8520890415714422
P 0.30837483869133236 0.1340111277608949 3.219123271815637 0.5196328044116857 0.49634452330770645 0.23018572382360358
P 0.4502731674622384 6.014224543845742 3.6649635341909015 -0.21490694328766213 0.3639800187996506 -0.0013336312097589936
P 2.6223948084066184 7.502617792785055 0.7691210684643167 1.7255691472241508 -0.007457741829625867 -0.07628643056756539
