# total energy = -381174.08156889066 ev
CRYSTAL
PRIMVEC
9.18999356712362 0.00000000000000 0.00000000000000

0.00000000000000 9.18999356712362 0.00000000000000

0.00000000000000 0.00000000000000 13.45048452427177

PRIMCOORD
 96 1
Ni 3.642968587325157 0.9545278711500704 7.81158366932307 0.11226233444154214 0.1846095778557014 0.5837514892684657
Ni 3.3853822578192045 1.173442707753635 10.288436730760342 0.6262937335060504 1.197134685360435 0.06929945772677099
Ni 5.437608909797651 0.12055525452538597 1.4293564584315854 -0.5286440067713605 -0.5356785450206387 0.3164804305567904
Ni 4.780561130199463 3.0095942311386974 9.133578027984656 -0.002571360271602023 -1.856890298069357 -0.21889035341544238
Ni 7.413117495533432 1.1439887783923812 2.2212802595204146 0.20597673067756783 -0.16952363005685642 0.4218547796292477
Ni 0.4240805238413343 6.492519080608556 0.10942065832754043 -0.521106817854051 -0.4672522339274405 0.24570464539480913
Ni 8.8615799505772 2.0855403786350912 9.364576787120862 -0.1949598107417739 -0.548747462389455 -0.8424787721751877
Ni 8.865173238059338 7.166136418596243 5.291783929979086 0.20996194057756098 0.25805185410625237 1.0336791158745295
Ni 7.608809218409731 7.876798620626118 3.4066984478826763 -0.9918063869001434 1.3786656242908126 -0.45381256348276683
Ni 2.796147440703603 3.414413447476677 1.8981729519258517 0.1522571296669249 -0.11149588858916283 -1.1140484582622168
Ni 6.9925006802650325 1.8786184836279185 5.8606454503705185 0.4311562595358316 1.6363323271435044 -1.5507097067766777
Ni 1.7575954584303055 0.5469103017729326 6.426171003099506 -0.5023763313240832 -1.1795501395094525 -0.3709554216762192
Ni 3.436882981731986 7.571139434805431 8.17599815997316 -0.6358417822058017 -0.15678278545142033 -1.2468958159439623
Ni 3.4251933099230896 8.67900234851167 3.5689248092085832 1.3733686375579315 -1.833960942966693 -0.5433784847680577
Ni 2.2289777981266505 6.365614459532252 12.276660591586367 1.0136887887955315 -0.0027040291947243752 -0.6113317128795794
Ni 8.771766143510888 6.588407473418329 9.350481174997837 0.2946666771158087 1.7350315781886314 -0.02293938240499275
Ni 4.540242798593602 5.450704650621298 1.2659519399312287 -0.49079839667849673 -0.44145815568247193 0.9089685283673056
Ni 6.113974055859914 0.7500486764312664 10.81088051267728 0.4620899730002106 1.03263241977757 1.317612208622918
Ni 2.8782508431726948 8.078638449194358 10.721488526315392 -0.4564160625438849 0.6378390151414887 -0.6700335975961622
Ni 6.32787115597947 5.255977877068847 3.252206385137248 -1.1533626824808072 -0.8968336927769844 1.1499971084426839
Ni 4.961659143301761 2.6121637696233226 12.012748789512754 -0.1173855146007204 -0.4188707573002593 0.404896040287722
Ni 5.41710603416428 4.656211327332966 10.485312124807228 1.351636902307795 0.9124441456207318 1.0112359563796651
Ni 7.705956640337285 9.128337893656486 9.145321001756205 0.7003466467574068 -0.7609696597561024 0.5632484842191074
Ni 7.056352755523064 3.7560606480800995 1.4373728898143692 -0.06415493741135403 -0.33093208720574613 -0.33774679613473446
P 5.0582367856285675 7.311494546741937 2.4508260806747115 0.07014123690177598 0.07339188262858974 0.10793876736552378
Ni 3.5856505974886086 7.820565050029702 0.47954581097609583 0.8080455301979825 -0.24031535605843773 -0.5883789607381479
P 1.9711892887623672 2.179158843035432 8.641841690550619 -0.20756104444555218 -0.31240600337710067 0.3318941940086994
Ni 7.219272961362785 8.87150514362249 5.619477963359672 0.9195804995551968 -0.7296405106255176 0.9279237293135697
P 4.073639255548693 6.121307670721155 9.520292957008541 -0.013316514603248035 -0.9312908460135898 -0.1064092180948748
P 0.764852837057801 7.6057030005862964 11.078531723130643 -0.5176461129989601 0.04985677562112703 -0.24952761868532508
P 4.091734352869226 1.4870420480105526 2.775480983184855 1.1943856618603883 1.3184935827866067 0.6377881072988952
Ni 8.455437375166516 5.386659585498497 4.0088498009474955 0.9066720190236449 -0.14954281605955536 -0.9214910863143485
Ni 8.683349215465764 0.9350358948083484 7.279724739003448 0.218333709581024 -0.49473578405968993 -0.8699736351613468
Ni 4.890877812899148 5.165401300537017 5.75531433917738 1.717844010665751 -0.2451847683355971 0.5242268515402714
Ni 3.1560643485052067 7.16144033188685 5.738191543175543 1.042868238572965 0.5418707898742797 0.5810585158173348
Ni 4.906978681617062 2.695627291139362 1.0759377950765785 1.0101733194431055 -0.033315583432994234 -0.08885192593740182
Ni 3.4358996524210177 4.581753999506171 7.538135410931774 -1.3461941340256687 0.5384946743131951 0.3992740661152543
Ni 0.8732451351059267 3.669481718747066 10.366651846954007 1.314961144153316 -1.1174790812103206 0.775246995610723
Ni 6.059514154020665 0.9964158617986179 7.825276759728146 0.5620115264882127 -0.7147018870378142 0.2876521934711885
Ni 5.166200829976776 2.8608909453369984 6.886419665597361 -1.028849812806686 1.204168709389081 -1.5832002232052154
Ni 2.1180270058712947 2.2136396988742537 12.421441588136464 2.179592284055827 1.0403246462155051 1.261515622739666
Ni 0.38233957308975425 2.2223701927566846 1.489991116944102 0.08883572798748571 -0.3898435168299738 -0.7800842690983663
Ni 4.601227595860772 6.730705333708392 11.497084465845361 0.4581803535331593 -0.4676181019072915 1.0580986823694745
Ni 7.368775776604244 3.2878580461556712 11.995262988765278 0.46933277060555295 -0.6585353671485755 -0.5568803759092344
Ni 8.2452254624647 8.109351407673394 0.692783069558012 -1.390414794406941 2.0821042797099816 0.2561006439171524
Ni 3.0145568276613424 1.0641185443584793 0.960721926809816 0.16004114448771792 -0.7327726284965961 -1.5619639395342584
Ni 9.196334656010283 6.796634347511086 2.367244927241099 1.0603630529236188 -0.08710511844962418 0.10028922124006599
Ni 2.2513002924849923 2.7566947983485757 6.280044591492158 -0.2437403225795867 0.03198298066449976 1.0588011077531376
Ni 6.863519120644067 1.4650412034268268 13.359801503615628 0.4879213322410178 -0.6393132856941699 0.03553881633655815
Ni 6.759920323237073 6.349927140524559 1.401486883960154 1.132592025592359 0.9841285586399117 -1.3811889049332986
Ni 7.161679271719422 6.432030542993651 11.781077322847922 0.732988601162144 1.0852199640662987 -0.27298070750194275
Ni 7.982943046249355 3.3638409129135014 7.401398415745142 -1.2098336209843423 -1.2055028548194722 0.37764954586694316
Ni 1.7707463392153144 6.371358205507537 4.090843842493219 -1.684944174613937 -0.3213585845846982 -0.581582763751921
Ni 5.9658037896847205 8.29707540613278 12.659003840673545 -0.1933148189391832 0.7591889137065957 0.4029641133723318
Ni 7.9341901304111495 5.590135232920499 7.354401707676338 0.08789727533361637 0.9379944832860104 -0.6346338779406296
Ni 1.2323965164439445 6.606851790494159 7.16901380558002 -0.18906144297946795 -0.37737083828425977 0.019423913052566546
P 8.419964000023164 7.8184145915365555 7.413167121498659 0.23267558012499281 0.18276635399937555 0.2910712464550665
Ni 3.2817926504057717 3.773236746044587 10.828070395632107 -1.3135979452572022 1.0776133553636342 0.3852561545696075
P 9.172927742411806 1.7121141802996207 12.814518749702252 -1.2081487770827515 0.5400334795552247 -0.3076574329485217
Ni 1.396364381549557 3.425533339684826 3.6708657317772704 -0.32921690428685235 1.3367347883849818 0.991449517781357
P 0.10000091492807552 0.3027597428523626 2.957735097477058 -3.9098560085421696 0.18615121131120843 -2.2296411210831018
P 7.186685244197417 4.21459537677893 5.209036308961407 -1.1711027800730476 -0.9664126294173871 0.9619823615601756
P 2.2662340320207295 4.786314066168307 5.4315609750355165 0.6759443066536422 1.5270529865896862 0.9045991956550163
Ni 3.668360539532691 3.515328766764018 4.55949859210082 0.4724551182846186 -1.158976943343791 -1.3242009175840292
Ni 3.7994006577111983 1.1380704225394491 5.366554636586293 -0.4239607702286569 0.37932924756221126 0.04434175934016879
Ni 1.2338117754522542 8.702887141775287 4.337660418545676 0.674224238638742 -1.97193328057983 2.7064270055325905
Ni 0.9950281727709892 4.083729868478072 7.9829972672113625 -0.038366258483024246 0.10126804021356753 0.6327464311099296
Ni 6.404920061990313 7.292002570400214 9.810716052505354 0.8987509644043553 -2.134252679578763 -0.027984658138384064
Ni 5.767594008572858 7.133318951591863 4.703836630961304 -0.9225051294011597 0.8968311216738232 0.011425468228122258
Ni 5.606245291631974 0.5714733165613128 4.072496939349128 1.4672229018059313 -1.0498894070858047 -0.8095799645646379
Ni 7.7157164134984875 4.544111785882553 9.727820472591349 -0.1026582356928748 -0.13939287210974705 -0.7337275362106976
Ni 1.1377120127905915 4.135487912210546 13.188644306547674 -0.3056162341487769 -0.28213743430054633 0.014531875067587876
Ni 1.936469493090974 1.2256051112027695 3.0097743550124827 1.074615191967259 1.9445785427159605 0.49360192756556276
Ni 1.6552373101539737 8.24947123948963 1.685977838613691 -0.39223541410091806 -0.05784750713608747 1.292275529630342
Ni 8.33355968056778 2.888442546031238 3.506635032855829 -1.644093459146162 1.486835533830536 -0.26869699252492435
Ni 0.2616060326892955 4.241117698194399 5.7660206816753075 -0.48059111712819164 -0.28709297853360877 -0.024852026046673328
Ni 9.191463959423242 5.38994041319958 11.419474970227332 0.442523877942825 0.8032280542046812 -0.006010467860138036
Ni 5.588738353899311 5.136002511137125 8.104293235217721 0.6923109209371238 -0.2427046822262207 0.5786851304891517
Ni 5.825665577881364 2.9056094540021653 3.955814348110118 0.3210441386680729 0.33176872417442865 -0.6024377528240592
Ni 0.20369069327131709 1.6701434797090295 4.965393956684729 0.5281169306232969 -1.0523399255088264 1.1132555300472762
Ni 4.943554855987667 8.754066215913454 9.426112984001659 -1.7576238616668505 0.3161839823622942 -0.9133833696055496
Ni 1.7803315024988677 5.716672254254385 9.647737030706844 1.5428537010673686 0.7405106205708021 0.014023053751969397
Ni 6.057409645495322 7.237882698322704 7.2415118267797265 0.55651939302539 0.06512835706821686 0.6425916993351256
Ni 3.9885950551402556 5.806403351378653 3.746699720639421 -0.46916256357627584 0.19770652024897561 -1.4705745918869835
Ni 8.300916823441048 8.942461083902751 11.74407565177547 -0.9863448495649401 -0.21592767124269263 -0.3996689875608278
Ni 5.860504843469043 5.100722125858545 12.935142929179342 -1.2112610974594882 -1.4219735430498286 -0.13906814178047663
Ni 1.357683698653608 8.744784322417397 8.476428239457947 -0.9422702278432288 0.32696384658661753 1.2434286833309682
Ni 0.14423878693003087 4.562004703344757 1.812251107132391 -0.7592511344030989 -0.15979329014296997 0.40966852197570097
P 5.074383604314284 8.77241863305368 6.240836402965838 -1.028467489766603 0.8332747370784165 -0.5299395856543325
Ni 1.0531365020537373 9.085769843484465 13.087617788338251 1.0448742132594004 -0.9438828237459873 -0.07313348676088051
P 4.027799567669151 0.4980829469868867 12.387707878774107 0.27721531440858066 -0.38973501627656754 0.2096690919274905
Ni 2.2174075962340396 5.703640843385661 1.841344788746075 -0.08037474170432608 0.8588317596119145 -0.6587472260490654
P 6.84090254649179 2.5819838307707927 9.96541029510911 -0.9941028962438042 -0.028764216616885944 -0.686102992354199
P 3.208732201600166 4.699367537092855 13.156349750176883 1.089985503775742 -1.089463312723685 0.21810770961314696
P 8.039277706774936 4.877469612294446 13.199255992111928 0.5524598782440356 0.9265890696625462 1.7703209975185448
Ni 1.190646375698804 0.9901942361581907 10.969502558528777 -1.9451508702796632 -1.527138604324957 -2.733795884463847
