# total energy = -340877.5613946741 ev
CRYSTAL
PRIMVEC
9.20576829827728 0.00000000000000 0.00000000000000
0.00000000000000 9.20576829827728 0.00000000000000
0.00000000000000 0.00000000000000 13.47357243784558
PRIMCOORD
 96 1
Ni 4.586783277702817 6.899511632937764 11.923613094147724 1.4847226012525916 0.11101123564326043 -0.1659613666268948
Ni 3.8277308555707834 5.804908955066621 2.9341665082869475 0.559458935269688 0.2961843993119157 0.637284171079283
Ni 2.6216923520282545 5.138098331631593 4.837134147519692 -0.3717339517134566 -0.6627581469806715 0.05593357794282625
Ni 1.6171036769175222 6.4270347790130975 6.7423369473036985 -0.0630917862541623 -0.17675588613923754 -1.822717765952706
Ni 2.6685865359167327 2.601743452050569 4.739747244901353 -1.3838600240075587 -0.48351626119478663 -0.06759533055147068
Ni 2.4721630569947735 6.806082290125796 12.613513625715667 -2.055106153854583 -0.5363616871305923 0.11617143968796122
Ni -0.2837963467476236 1.0772313930267086 8.492486991054403 0.9863155389889013 -0.6832308130127265 1.463197325586306
Ni 2.292346784145609 7.158561953829358 1.8237427969586495 0.25419931312938154 0.10763563430280818 -1.1533225732714911
Ni 4.254841683150256 6.788664976439695 8.208760608146111 -1.5801177276251495 -0.19540641136088926 -0.5870723261115824
Ni 0.9634849195037332 4.258975073131788 10.387638932972402 0.35268053462643134 0.7082494465442513 1.6839489005802029
Ni 1.3836914208334299 1.9708077078093769 7.0251206595346884 1.2225947773047525 -1.1805197025115735 -2.4043938607493813
Ni 2.7473510897741766 7.83272798616248 10.113007849177148 -1.3248809743701893 0.11505763779849215 -0.1077734454322531
Ni 8.570340173846876 4.430294421809562 3.559892708228475 -0.08151888261109833 1.0432302498980743 -0.08538890708946584
Ni 6.049137988942028 7.051682983482826 6.713921502190121 0.36148861983636454 -0.042423973492165645 0.7058022705553394
Ni 2.1048529005066934 3.616117858899317 0.798771630181745 0.9997809204651879 -0.089384144291788 -0.27882713898039074
Ni 6.653929351117401 0.44575711133803436 8.699791688146009 1.7763636041681987 -1.9962667151188718 0.7345004098209802
Ni 8.644336139707809 2.2905700708573336 10.937670702795552 0.04024342090107908 0.5351334711504461 -0.8572515596089881
Ni 4.421235945769856 5.072129795757067 6.36553564366426 -0.016746623330719548 0.12402024630841865 0.08251312820356757
Ni 4.525316362543145 3.0758313154335166 12.72818712010978 0.8039572190612219 -0.6431887094891762 0.8760823191622461
Ni 6.706761255580687 7.928090540324385 11.740359387403004 -1.0481685677399561 -0.8317873538996126 1.1206191695011993
Ni 5.348468549578099 3.068264173863762 1.528360990763902 -0.07492066056829032 0.7304421805912066 0.8992968096054964
Ni 0.6580964431309769 3.607620934727926 8.28108664763143 -0.8596352293498162 1.4719879272947423 -1.5027974564764313
Ni 8.183513788492764 1.2019879654759933 1.7683664181281131 0.6924590164792139 -0.42266082047031084 0.09563989539351271
Ni 0.44040855993654127 3.95498219123832 5.51680799104647 0.49599253928492637 -0.1560759891923828 1.8240084597396715
P 6.110991546371687 6.680156585098216 0.37080098383996685 0.30047274227462445 -0.08148134450494354 -0.7304681487331355
P 3.9353646989206235 8.386537803309508 3.2447599260752016 0.2245195266767617 1.1468853022865797 -1.341809888915044
P 5.4444570959866505 5.475729091013969 4.495524655063779 -0.394480758491669 0.3689216790756421 0.7721588436037023
P 6.824972526745184 3.0090618777140175 11.907593216094577 0.29831661516357016 -0.26320203084862415 -0.06565234789248693
P 1.5475264798564465 2.309110488280065 9.704353666528576 -0.01381865105064717 -1.8819279577642751 0.7321542781863069
P 2.901971174695826 8.121347234939782 6.606443236325109 0.8720186906158338 0.967501748716508 0.5001803521140289
P 5.454813585361315 5.883001487835752 9.913652333041115 -0.15982131516742798 0.20376609617949423 2.3312452044798495
P 5.93650541338735 2.1114534364014794 5.537611186325462 0.8810720590673536 -1.1093675078467797 -0.805011114247033
Ni 7.539441412840332 4.602451495405642 10.187220150593905 0.16033733557189805 0.048239551732678215 -0.4578144855533083
Ni 7.312869042627684 6.835568366096507 9.172484877626502 0.6639606519292048 1.3476874307417435 -0.010457704998214247
Ni 1.2164134044538586 8.656432519297416 0.03498836370336456 -0.04330714742806735 0.150097917232077 -0.28610361803714596
Ni 8.291607920259255 1.8563063612830928 6.368095767837676 -1.1489846080177697 0.42817172298621103 0.1992057305023214
Ni 6.316298591735024 5.0161034896822185 12.217471345683355 -0.6831693636471718 1.4638737828280401 0.9903449718632685
Ni 1.9010095723083087 5.779970528652429 8.840455828274777 -0.7631532976709824 0.5685027906395113 -1.2238782720028665
Ni 5.102057748607763 8.168204595754926 9.850865310702488 0.5289435402896504 0.17776864367446804 0.20225351618970974
Ni 4.176693915771125 5.4973718523649335 0.5987652662245689 0.6711574267879603 -0.3345493722433593 0.26334729817723673
Ni 5.827555145165885 7.385787933593651 2.4918965419934667 -0.34270902523601626 2.339183999710952 0.05821363222625458
Ni 4.065699966979727 0.5654882548543155 5.272383794882401 0.002908946116678861 -0.043650646810415146 -0.7976112222385361
Ni 7.576632716905791 8.423876399668297 0.5603560390086488 -0.4301046783428657 -2.0036666071273688 1.2929023645810636
Ni 8.554865277279045 3.121050049485383 13.494591268832576 0.0859416942691423 -0.5072480575940876 0.275370547890358
Ni 5.812577360088038 0.932829710954728 2.7469782561566887 0.39163454729212555 -1.025812311531943 1.6216454145552912
Ni 7.729439265465832 1.7915529868285276 4.080673149173408 0.12640777270398873 0.42664988702504586 -0.24139007717985528
Ni 7.2693165526440975 6.520786323716722 4.531660978078273 1.4130875534141083 0.81763368810705 -0.6064748990079104
Ni 2.3025651869952775 7.525411821900787 4.2631057013828215 -1.4395526895841724 0.4334234583034535 1.006177568020151
Ni 4.854201642009139 3.452512944084626 3.978463344525392 0.5073802122965778 -0.6625180059454073 0.5244281689178001
Ni 7.134544104248471 4.139870842438987 5.402686842752339 -1.4789142221009304 -0.5320489186878514 0.09549822760932586
Ni 1.2978292195912162 -0.028414524536744565 2.3370720890148244 -1.506474391107386 0.5196670000837308 1.2254852114786698
Ni 0.6150097650250419 7.977562339346114 8.336625047984628 -0.07823789786698139 -0.28148385987694746 0.3803839140789707
Ni 4.568933292905063 7.427361183385635 5.123244824426242 -0.4561388976230983 -0.3835232310389008 -0.4537192324380121
Ni 5.956141317241713 5.08997978055482 8.103801040497016 1.392858627961743 -2.01838154474004 -0.8602777480298216
Ni 1.4348754927651024 5.045313392602937 2.494214554459725 -0.987922478464705 1.002630988319473 0.23548579588027832
Ni 6.570101624676789 1.4776362866720478 13.41701057678276 -0.2830715160790415 0.026755156606657147 0.2550315792226898
P 0.5433069560558687 6.607744011390566 0.32920287847348345 -0.6308358443507781 -0.6857708058257609 -0.12829161999026292
P 2.4932995010874213 3.9226239155477036 6.745112486456109 -0.7798896365890569 0.48213455035591163 -0.5117749989301638
P 1.0355384682463948 1.6192025920974538 0.7358133805521215 -0.6947257010262036 -0.20131146399141459 -0.3655573905890995
P 3.0408493957679856 3.736115049120423 2.7956454710261096 0.2992373272056266 -1.1138959918447526 0.261200427037563
P 7.639839522280407 8.477785379026546 3.2100790350341604 -0.20752993409730067 1.1817234930116873 -0.0882986245370931
P 3.113878755953949 4.572330221419953 12.455617207844291 -1.588219787906994 0.2834741508340989 -0.9566416660735524
P 4.7836394277364285 1.0669761671037081 0.9899625503832072 -0.39682046236843915 -0.6293366340974322 -1.6783528945496644
P 0.6249492330942192 6.020351551364628 4.477860626786351 -0.5471042703590772 0.6374510356744505 0.5205285767530777
Ni -0.033144448306257734 8.321996161526602 5.358978775283924 0.02916865114415622 0.10983469883665602 -0.41818324431493137
Ni 3.1518065214860513 1.2839285094083344 2.4094386338808094 0.8856532506801328 0.8236019898753429 0.9482876376819024
Ni 6.6875672286063095 9.060869539472625 5.337879154264609 -0.11840212879069287 0.24378865931901883 -0.3066271919117945
Ni 1.6150876136525874 2.7675761628018534 12.157540873258466 -0.4485929669550403 -0.04349740906200251 -0.23859888758796327
Ni 4.879830501048307 0.03182618228096718 7.551088550935287 -1.921957462882335 -0.3270299239378626 -1.453383681929994
Ni 3.3274157582070196 5.589116539571957 10.471417868840849 1.0558129716590914 -1.6454083213028436 1.2193117356781067
Ni 6.110945517530022 5.199795390999591 2.4999138456347065 0.2871968511013247 -2.114245640329217 -0.4345881680355161
Ni 0.9234030041817005 2.608196695652026 2.7362535360487037 -0.161254962290161 -0.7185114905918916 1.0980713661076702
Ni 6.061777508863283 0.992713233961118 11.034357046443748 -1.350531842169074 1.3346946180265014 0.1713606832655952
Ni 4.133472833447528 8.016355447101521 0.571935974994773 0.6095321977769954 1.112875006779406 0.31003364649018217
Ni 1.2183374100354627 0.4314817263839976 11.031191182714016 0.7369696972970792 0.3938451817901991 -0.8411723946589384
Ni 8.58788636828964 0.6351639536365544 12.585556627865076 0.25897950812684434 0.6944814462258813 0.32692219471540473
Ni 3.0129283004138916 1.1316927184849412 13.328987781712783 -0.04649814356153928 -0.6826661987585082 -1.2031387254626698
Ni 8.298604304192361 6.35311245929883 6.885534514877718 0.9747558591757601 -1.8995220166969544 -0.4376626931957817
Ni 3.3908435020216277 3.7520318225682394 8.765434339821546 -0.40397738512819453 -0.22502526266858666 -0.035541387439719435
Ni 9.144209360191587 7.016829944573958 2.4628882453992413 -0.3313560621170422 0.7478945717396991 0.82264451105808
Ni 4.259094748120118 2.6155152814767884 6.713544065688467 0.05149791076897582 -0.7423456168970118 0.7984879684165345
Ni 3.4651708755425488 1.9592544685514186 10.84367980811527 -1.069352400906423 -1.7501666340578568 -0.9040322674079527
Ni 8.920546012772178 5.134821078105032 12.119101267007046 0.24792119343015365 0.610107096443859 1.2259829770506951
Ni 2.635160391099484 0.5720823467112682 8.399586979921585 -0.13309238381301594 -0.38623523065342513 0.7153606036677358
Ni 7.108712718305976 2.556635187218699 8.96231074254549 -0.18879970467764903 2.3746341129884456 -0.7123675824776827
Ni -0.25465456651256935 7.597511399485113 11.615136082499234 1.8836534250958141 -0.4393814756591013 0.30597850258420206
Ni 5.128883357530225 3.4340001439668937 10.485821213974715 1.6465352358184353 1.7769400454969588 -1.0365304692803956
Ni 8.033330883907636 5.211486716782544 1.3350950903801737 0.998931427980699 0.48694174193656786 -1.7911513040003346
P 4.7625306009487804 1.7486817237015855 9.036361022439587 0.4687573577180572 0.22782493690091082 -1.1534629555040974
P 0.6158474899433479 1.3367420023349537 4.786931410492322 0.9837061263905124 0.22642188590579718 0.14205679209515532
P 7.718337108856192 8.356103533200496 7.197245512941603 0.5926068827765666 1.4232917476406197 0.5616479725012069
P 3.8523102570199854 9.03524988620179 11.460418416433257 -0.005057617028565484 0.12733491250394846 1.1971092314391383
P 7.497766899596684 3.190599629241459 2.3416528793373423 -1.3135452376423957 -0.3814555498765947 -1.9637404603563922
P 7.968706390209734 4.073690573892801 7.340240553612296 -0.5208422513387546 -0.3350322254170488 1.2550418420898644
P 7.88542180410077 9.22454810043398 10.572954731823723 1.8838719688645231 0.7521008965115629 -1.519908405125105
P 0.15275223452687622 6.284161254484401 9.941839475100036 -0.5180348637969465 -0.18167363515582907 -0.04375786181224077
