# total energy = -340890.6906271124 ev
CRYSTAL
PRIMVEC
9.09538676300687 0.00000000000000 0.00000000000000
0.00000000000000 9.09538676300687 0.00000000000000
0.00000000000000 0.00000000000000 13.31201790344179
PRIMCOORD
 96 1
Ni 6.238407518056817 2.1166056367040604 11.362087167104907 0.3254975464537362 -0.08579822671274256 0.3462607471430165
Ni 4.7212151530177655 0.45170328163167384 5.841273828188925 0.1325884475934039 -1.0948590298179597 0.38082074450607317
Ni 2.876306908711277 1.7069585137730805 4.731730329616281 -0.39435066067170793 -0.48015917179709555 -0.3563335579979863
Ni 3.145594023625407 4.314860560083034 4.888172800449057 0.687214480250823 0.45499964181233254 0.09980302563226683
Ni 5.07993720564766 4.6847426522305975 2.7422354510795266 1.3485641769197418 0.9848078440951232 0.25928315541019215
Ni 7.363188518018175 6.211712558004363 2.7000765145087837 -0.41227793457408995 0.23307975754194696 -1.155849453458403
Ni 5.329105325115104 4.623476127217541 11.78216124138312 -1.3930995403279556 -1.5446161922844301 -1.2481955085919922
Ni 5.613026917277751 7.907401887619015 12.373600587501967 0.19666342369644194 -0.08920879505618828 1.05601428903662
Ni 1.7877801202555665 6.596320081267745 0.4176938115709815 0.21922819637083538 -0.48835507734432665 -0.10924051689608283
Ni 2.8305662088462733 1.5556658509068109 0.38101484550504394 0.016026714445559496 -0.5080091041298284 0.3078502656856182
Ni 0.5843040152291884 0.20239691228593473 4.785923372369442 1.269785318947626 -0.2574640999235824 0.5822101129232747
Ni 8.667003110372201 2.6479945110156473 1.374784985469286 0.4267591589094006 -1.0913595013051334 0.45787104982285665
Ni 6.909556104861075 0.49584774112556823 4.643910732583758 -0.4017235560970113 1.2336577199871335 -0.3330941278540715
Ni 1.0258686692729682 7.495726493447252 2.64252909312961 0.11343321482119174 -0.4084824720873997 -0.28761671224756274
Ni 7.553182051420453 3.8255469447842736 3.6015002834649983 0.7245042178402167 0.5413763667363644 0.7878240609447851
Ni 7.590063844610469 3.9278154731760213 12.795338208013092 0.7720336308797479 -0.3919510500912798 -1.0422174923628438
Ni 8.21116961362645 0.10634508072411913 6.609562964346575 0.0058757420544866545 -0.3264141447307346 1.5772285790028127
Ni 7.022511712660534 0.5775070327258841 0.5638575858602228 0.14755792441904264 0.3684208281798235 -1.3147369439576517
Ni 1.8738497648812436 6.581449123964248 9.361183944992755 0.09438416860954067 -0.23364257202395247 -0.9248564032421556
Ni 0.2599088616568615 5.0285391752366175 1.5969097915725188 -0.3617421306080673 -0.15307782579600734 -0.2291256579902054
Ni 6.646708523751761 1.9814118083498322 7.00087014947525 -0.743121575831088 0.5977712005863253 -0.4370746819027957
Ni 3.539033167403586 4.284500159178404 0.6388772451476629 -0.1282088304684695 1.239546831778059 -1.606865170922323
Ni 6.161997174138365 6.0300413034600036 4.894895200781176 -0.6068345963401742 -2.553284902157551 -0.2546806236411743
Ni 5.199941738162844 2.7526369353439164 9.08510621434603 1.2696181972421425 0.504933036307666 0.48283620440862646
P 9.296485730566483 5.428745286741891 12.396004344095221 -0.061247019735939684 0.9291773992150126 0.8938743530383444
P 3.9118075925312796 6.152101393376161 12.707851502134886 -0.440594522130596 -0.11815864532131909 0.06234050991043457
P 2.7312536811417645 8.735682375570182 1.439069359799346 -1.5208111194450322 -1.1627310110695848 -0.19666496635833872
P 6.485056215400059 7.8196859779952135 6.01905589536755 -0.4574874412311927 0.7450164788609556 -0.008369712120933973
P 4.778961763366325 0.9697774193092621 12.55379202262536 0.006619305088730536 0.32494835881848555 1.732751523905203
P 4.094670342737264 6.219198061283127 8.385759200062857 -0.5782341589946622 -0.11309408631421815 -0.4017436107016694
P 4.789539698133277 1.2509794908396492 3.72864287548586 0.4742443489745574 -0.6719439272449976 0.06491984060183659
P 0.10451326983670381 5.738079389428067 3.830053708908972 0.5926040545630891 -0.4372677717502082 -0.8182476675419651
Ni 1.4879052197685574 0.9473209094729739 2.659887638703752 0.3803147514039321 0.9801888572658732 -1.076790345241707
Ni 1.9136693679850385 6.746239340737788 4.888106404125928 -0.5509521833502576 -0.6392441230191314 -0.7989924188567789
Ni 6.015043010742288 5.693484708291038 9.41027902348377 -0.4506850735973787 0.5109111082679717 -0.6848598639757173
Ni 8.578650523677302 2.318204883573777 10.56271363725892 0.19056219589471055 0.5441621570116176 -1.2479751650510702
Ni 2.480175530461028 5.056107292415147 7.2683218153472735 -1.4448699880320277 0.5062288723009539 -0.8492603138733954
Ni 0.45999372663603866 8.805316656374808 9.418146533005192 -0.2063513404081672 0.9907141822772292 -0.6980403672217332
Ni 1.4048370527637697 0.9662847908049549 11.543755693033246 0.6788920764280566 0.9916400365256082 -0.9740020117288709
Ni 3.989564053685767 6.826842657938755 1.7581846413749271 0.48476401755895865 1.2088612297687438 -0.8580833114816642
Ni 5.714040282300764 8.00504086416521 8.11118584638127 -2.1040954392690927 -0.8973941932661449 -0.8536455874252846
Ni 5.334025929336017 3.028045245527315 4.900766272915369 -0.31274384633249364 0.14175494458402038 -0.029057579487588667
Ni 0.7490487550690792 7.374221222121624 6.786347267600924 0.19766563970871118 0.6336373183553152 0.8107284763467845
Ni 4.87918382974383 4.539971381649715 7.147541446344024 0.9865963034541139 -0.19821457023364575 -0.46929471827876595
Ni 7.96353861451637 7.255853859217835 8.52263294634611 0.1085072382744841 2.1579993883763997 1.8429127528433422
Ni 4.709191051760749 0.13269532561950628 10.677476498401624 -0.48668694561328435 0.8197003408280916 -2.814802860435533
Ni 8.22182031148724 7.480491720674558 4.769921858495411 0.3032878431259164 -0.7072094353155112 -0.2514531178428121
Ni 6.946910858161049 5.930237624872077 7.10193444866395 0.1364654140503069 -1.4583759929382627 -0.3552030439379689
Ni 2.5085258508983346 5.233631050610642 2.6489713555504455 -1.3400718231780147 -0.0913464102244814 0.5457397859113827
Ni 2.2444594879672053 5.331642938012765 11.376876265927832 0.034265348940773245 -1.0705168535281693 0.9549259689340264
Ni 0.997018102565513 3.2553844368428377 3.7183659980196704 -0.03433219762296668 0.6881033106136795 -0.07842764528028427
Ni 3.6537078032950085 2.9915181724197675 2.6640942550663618 0.21309740088274912 -2.156075174770493 1.093352363365446
Ni 1.1668289728139956 3.142756262965657 8.342428777681294 1.3629559268650397 1.4287494283210813 0.6111399085837474
Ni 3.528700808078343 2.5740853984479357 6.932805732420216 1.068166865238754 0.6102400224772974 0.2060296954026903
Ni 3.945515095752537 6.791879991348763 6.117644430288354 0.9238431314862929 0.6341857346596175 0.3357045688937251
Ni 0.6658714434235318 7.462328233374813 11.410795691659898 0.6737267301770333 -1.2152126259080684 0.4384499649837675
P 0.20598777096692567 5.751294986346708 8.098658770238085 0.9386346879731705 -1.8003142014465252 0.19841280228738084
P 8.702547881712912 1.481956836847159 8.270729844088965 -0.37457244960351616 -0.11806737115909344 -0.15501360936613948
P 1.7625040405329886 3.1303228693057927 10.531523737084516 0.4744459234624022 0.3205250329398093 -0.1999032707899783
P 3.9482346163847972 6.278381742735021 3.944244470226361 0.34076758523892925 -0.4755810655081099 0.36670950191567164
P 6.795927438443598 3.8797281635346863 10.15386145112814 0.9981217875952101 -0.46948806523649467 0.8771763235573731
P 6.47649745648716 7.794282562858416 10.228248981037847 0.3962658754165498 0.042500335256055836 0.4693697944910755
P 2.475427738587985 8.867410861580293 5.919029379804739 -0.11831162595941558 -1.101196284889897 -1.1801476638841353
P 6.890674082009663 4.035823190594379 1.488829311060322 -0.6302966840178564 0.3820888125852194 0.8701854940618368
Ni 5.147979793774543 2.6306132269746807 0.6199715742907537 0.8698671914904695 0.3891418627772588 -1.1017184759419543
Ni 1.6296204404081718 1.2028285134912045 7.304809778291881 -1.7543840145733143 -1.417466142097778 -1.4860402916227502
Ni 6.776563360095499 0.7119295722854112 9.01681532216142 1.0232157544493603 0.15970664396643464 1.9332808583149543
Ni 2.9491700518050417 1.726086112066201 9.154168395325343 0.39377704755642506 -1.7838138897986568 1.6340191056292956
Ni 6.391992218379038 2.038321643119235 2.501834374881098 1.0497107154160954 -0.25098594839840643 0.9598180069190051
Ni 4.017414127852925 6.887363361239956 10.597883678666356 0.4519577696622152 -0.24957646964538951 -0.6131265999964731
Ni 8.255345906973899 7.157432679412863 0.11127568987043421 -0.6622284997294466 -0.20547562267143324 1.10630918063643
Ni 8.149048122260776 3.6469408355679134 8.188155556583615 -2.7844700137799463 1.2854561927156634 -0.24291371291323327
Ni 2.9225842363933485 8.2388650662192 12.42676858017066 0.8022116971250249 0.44810574290597666 0.3061433102968405
Ni 0.08142099246799081 4.812705648134502 10.26789213363908 -0.4616202324526436 -0.20152178023000777 -0.5800275034496591
Ni 8.613331233278666 2.486615064265844 5.665967525278196 0.5224011111854422 -0.18416991921512152 0.007965791814295959
Ni 3.6717803367274526 2.613595758402912 11.597829586220245 -0.22304499901376423 0.7024179274641387 -0.48308688696685187
Ni 1.2242845307871963 3.205578099109539 12.769486390310508 -0.4727757348488309 0.9015197853987441 -0.23377858338118448
Ni 3.006498274364023 8.297202876705207 7.902812355475073 0.9459772443811707 -0.06033967743032189 1.2614456887336791
Ni 5.580720103612909 7.777919962131206 3.6195509879692906 0.0573559122116496 1.4624882153344232 -1.2298031221277337
Ni 3.229426203115512 8.476090942910197 3.743499280170588 0.06451592029519856 0.4272191292649546 -0.15690696973411042
Ni 3.431825844017466 4.123302620163201 9.183441897515742 -0.7050026574721794 1.2357007185590911 1.2948440616884667
Ni 7.11688544537067 6.113964436817409 11.590680612250491 1.3739296522677242 0.03716786729954889 -1.1316088357434835
Ni 0.611917609341368 -0.12317245571323093 0.1981457285283482 0.4378493552852911 0.31486886309529644 1.3264249218185413
Ni 4.8179354955042335 0.39455878588463766 1.6514757451816093 -1.0831754228324442 -0.1595122685674414 0.12502529053416533
Ni 5.904352154238592 5.703244058252293 0.373591190856045 0.3942061646740437 1.1430836691523023 1.759928084319995
Ni 8.052800739884265 -0.12235932813957189 11.474599829570616 -1.1526859681287567 0.23755167727037155 -0.34053978549883934
Ni 9.233272792793212 5.013713694866771 5.962518971454076 -0.03495260481578496 -0.7866256697613098 -0.2656818598476844
Ni 8.219746563312809 8.897925884059331 2.5725209919303818 -1.0508563989847644 -1.547355188482148 -1.1002750586272083
P 8.638016112863797 1.5489352647266355 3.481598528819864 -1.2513178562710578 2.3983828786686114 0.6221575998504898
P 1.8871472202804551 3.261441964404996 1.6237866593595711 -1.5405258242651403 -0.05123540113620853 -0.3879930938847963
P 4.768929551803172 1.0230036224530286 8.00030944398828 0.29423755999819 -1.0331754367652335 0.0002720227144640477
P 8.648666810724588 1.6733601551925827 12.605814906104754 -0.8957610285380959 -0.289288700633347 1.1623111499233465
P 6.082039629395226 7.80993572342069 1.2962963456830363 2.1954009689533094 -1.7264183825983235 0.917922909347116
P 1.6914781655586768 3.0872289269792095 5.935615727045507 -1.0854418502691177 0.9982264314938744 0.5075221371910807
P 6.970331478990714 3.9742838039794224 5.972929551105196 -0.13457745299897467 0.7298598257251753 0.16483830876604513
P 2.4584102700162167 8.59863308832304 10.234052747310239 0.2553606804273344 -0.06574876426103515 -0.14958652481329723
