# total energy = -381162.8563043282 ev
CRYSTAL
PRIMVEC
9.22777110732121 0.00000000000000 0.00000000000000
0.00000000000000 9.22777110732121 0.00000000000000
0.00000000000000 0.00000000000000 13.50577577296253
PRIMCOORD
 96 1
Ni 8.945355060965028 2.8885045592853853 2.8913162611067027 -0.12940516476941583 -0.6144144655699612 -0.7473073317776614
Ni 2.1204587240641994 2.093098383072384 10.610271951120838 0.6270015582063524 1.6833554899705783 2.964548022313881
Ni 8.219480139178108 6.217948927661134 2.9516465050764813 0.46810146930161317 0.33658182929235586 -1.1846267827014116
Ni -0.040953770440397254 1.2248481826471078 5.591013243675277 -0.7031321799223439 1.0981685538071668 -1.3894390607572327
Ni 4.800028092544629 1.8470767806498538 1.6043374963692423 -2.315380726643767 0.40649783755720315 -0.25521464176777336
Ni 7.373708788889784 3.9393538921039335 9.554296591516135 -1.2556118556607214 0.8723711888592461 0.5244762485469161
Ni 4.346796892492681 9.124659879114091 6.14512797287634 -2.5231559439826543 1.6815022388119234 0.2371845237389399
Ni 7.133371493398438 2.2813264557708863 4.1786327622624775 0.4519194602251121 0.2077777884420486 0.08887737985869855
Ni 6.821565111572651 4.663872331555003 6.699661642880448 -1.4477429387044487 0.5127967553264587 0.26733713606292026
Ni 5.469687433447184 6.161659524608832 2.395289427524318 -0.11991265189794831 0.037277396294219674 -0.32338307121389465
Ni 7.226082908556878 5.113827672904726 0.656415643974577 -0.37628994651525516 0.12604884670267322 -0.2909768869690472
Ni 2.226107474153677 1.4435740384747673 8.549506754827956 0.04484209601535503 -1.247799301594838 2.4405818806341646
Ni 5.116116160110788 7.2623572763271405 9.861133818662632 0.7890425067329185 2.6589209895318273 -1.614555340477729
Ni 9.259883635233507 3.8814219458150228 0.3276255496376819 -0.010673420553446134 -1.4883013197427852 0.9415166375066558
Ni 2.5449823285594735 7.334463078860041 0.5780211155105057 -0.5745353699868363 -2.1792140747808015 -0.29435197408886726
Ni 2.3903248867305247 2.6512124282214584 13.21777888759203 -1.9322315911148336 -1.2720229500288933 1.6817642342240584
Ni 0.2847634761561017 5.809417050295309 9.481270780215313 -1.7529387974863553 -0.024051384522248902 -1.2352356059972145
Ni 1.4646041285659472 6.000690287421231 12.331988540064817 1.2768463395594656 0.17131697451185335 0.22640491662493265
Ni 2.6107209691077693 0.13927659313918203 1.2284488588882567 0.04360385273287975 2.7042479956034007 1.19859610039731
Ni 6.049145312901173 8.444831534578155 7.325302670596103 0.2885201978984386 -2.999153785313209 -1.4384697409326388
Ni 4.864539439550965 5.406624846486621 10.804323670092506 -1.0348168290233986 -3.06853757522367 1.4140684292701389
Ni 0.9924098591250676 7.47528809197171 3.856574326864378 0.3302111498793216 -0.6160581718209712 -1.2986025002896346
Ni 7.728027511676547 2.55744904716991 7.533926885518621 0.5661720856238056 -1.0074142686407295 0.42458786228969453
Ni 0.43269571848594923 0.7095971337567129 10.419800607294137 -0.7578835646316109 -0.5495887273438278 0.3871155763758494
P 5.729772158861798 3.643456187468667 8.260685827766592 -1.1298152341781704 -1.063790076327297 -0.09782738996313475
Ni 4.347581253027016 0.48812232495048274 3.57229069479987 0.30785283678877945 -0.36019638338750226 -0.15436620559012768
P 7.203714791671832 8.511345307889792 0.41028423107723994 -1.0984948267983339 -1.2599806741523785 1.1593788067679
Ni 6.504895694433986 8.048498770463992 3.2889261487261825 -0.16071117397154902 -1.6012640226854615 1.170339676654778
P 0.39106462965472594 7.455023906872881 10.891665445310595 1.2389755326556209 0.39487362305471346 1.402469925799262
P 0.33956443974736533 5.820850258554621 0.9829135599970145 -0.5560825625982875 1.8352035571245424 0.8123318162781623
P 1.612257692211831 6.829953155404544 7.109021251304272 0.08836187367486072 -2.0885816599042095 -0.020292688810765052
Ni 6.528970948952585 0.3237268163934856 8.968713317677535 -0.7197368783585605 2.6622747364954082 1.9326879619259618
Ni 2.660320238190741 9.070086841466335 10.218942484438635 1.180346924379135 0.023909973848378178 0.13072105536736198
Ni 5.510898658698263 3.9546258530959926 4.771225450946735 -2.2887726371379356 -1.470833244865009 0.9860455731569664
Ni 6.404829745794778 0.49301858023893386 2.0234757737134794 0.9199121718630028 0.2778488342275215 -0.6952450638647832
Ni 1.8889524054123699 4.583120107602429 8.019108319853897 0.13166079357281196 0.3659865077067181 -0.7991441139432947
Ni 3.917650174730324 3.721375485726641 6.949990768802128 -0.06487330363461731 -1.4725782525805735 -1.136866484597997
Ni 1.3009680655616065 8.689736576710631 6.1676557301995505 -0.9741621914558192 -1.5559462725852686 -0.24035083728206347
Ni 8.333378516534594 7.989939335747613 4.836350444724051 -1.0033534683077947 0.22571946052213382 1.6488867667697473
Ni 5.953019622475626 6.585195757607943 12.483928403336568 -1.7294674538372925 1.2355716491803947 2.73920959928025
Ni 1.4586798995889672 9.032123791604503 12.502350725345359 -1.1472750815258306 -0.4902294115489041 -0.09100162529055296
Ni 2.98534078807733 7.5632748883821534 4.867562457328003 1.2121018481932286 -0.1518400967341643 1.4863025441452016
Ni 8.56303928098799 0.38483680701210315 3.1484527136893146 0.44248736827793467 0.23167310700240745 0.34406528215359455
Ni 8.52512236998112 6.956096784867654 7.196323347107095 0.04192697925108908 0.6054965942550411 0.4518202156430864
Ni 3.8142622285339316 3.341708076024357 11.748296036502518 0.764544264481238 1.337033036351691 -0.5433682003554126
Ni 4.013249882209317 5.510907886469255 8.562458854192581 0.36558078762786717 0.4344524137886002 0.26353293182548165
Ni 4.813159210666503 8.434967047387513 0.27606999310436825 1.1703923842695845 -0.7214970555827768 2.2863051494340496
Ni 3.7950961481831724 3.2251336450801382 9.305371009562363 -0.2668314000710953 0.4210824202395974 -0.49684331732099596
Ni 7.306299921791904 5.954440699208422 11.039917891293872 1.3852831296073305 -0.5831063994852991 -2.8784296932575586
Ni 3.2026086560882248 8.03270082652538 8.009573264087676 1.4784038581234151 0.2869960479444283 -0.9828692323115137
Ni 5.730076675304539 2.0023155720513097 6.403817459316936 -1.1543191328568054 1.8587772306794244 1.6265575071449279
Ni 0.2986761864810126 7.976162273656288 1.4219690582507747 -0.10820616209429752 0.06675252293520116 0.3861526982419478
Ni 5.7119348775339125 1.269944299485895 12.95904787618197 1.5607748043221636 -0.7888141927721963 -0.8677272623293315
Ni 4.595190032060202 5.791155291501783 6.302159720181577 0.4063062903716873 1.7589911743280222 -0.7026560116168737
Ni 8.308103651787013 0.1306449361530962 7.358824394279397 -0.350318462152158 0.023855723571675043 0.4849298537128616
Ni 6.290995962835236 0.4803506962208681 5.084722360418289 2.1610926825897425 -2.78142942718141 -1.2185902841310499
P 3.8095560653279192 2.22298848755832 4.8482090532261015 0.16806967121914926 0.1382937255082973 0.27032552926728287
Ni 6.360047373169725 3.9492552903785434 2.6980083004770052 2.294030285992449 0.13532641534985726 0.7507873199064619
P 0.3223832529370241 2.5061610959953695 12.276642215207914 1.9430718762634474 -2.0079202401974 -1.6813083776335624
Ni 8.550775573339381 6.921132760578281 12.828474916642614 -0.5765588281747684 -0.3477810404422849 0.5447540249593457
P 5.273366605588539 7.6621873656473385 5.109383578394892 0.09705734456632963 -0.8046138788086143 -1.060567198514625
P 6.807815732794302 6.598022359287074 8.534893656684739 -0.0691045681071455 0.10377975089182771 0.41494493988329184
P 5.090629056630385 -0.150231802861099 11.021199357836233 2.784467956897417 0.39295892253050385 -2.4087367110991096
Ni 2.296681466701875 6.866448989678618 9.769483597168291 1.2555262379254506 -1.4155236736594266 1.4898090146365632
Ni 0.9994506483921015 8.426662053494551 8.618832229960912 -1.4917568823915535 0.33326921997935505 -0.4208415078733849
Ni 3.712618331055061 0.424582662229624 12.241567457666637 -3.317675157559428 5.082762931703491 2.083090297772335
Ni 2.467552102164085 2.859686230476805 3.1056533890504814 2.0193662772508123 -2.115129842706383 0.24545139173342242
Ni 7.015163746988603 2.540349987521399 0.9990307848119573 -0.05156604500274991 1.7416200300394264 -0.12461339980772733
Ni -0.01713504795538038 4.540275566885734 11.379777619712987 0.3560741336890126 0.12741487381226443 -0.01037337281452407
Ni 3.6231827745988454 7.564695965114949 11.943657176177975 -0.3571329139708301 -3.5719986549714995 -1.0904099929076705
Ni 4.717993208424143 4.107917584818098 1.4539506669554745 -2.811337527594752 1.2543134485642722 -2.7359561253399587
Ni 2.1382498665371243 4.520039065099882 10.399218064096077 0.6618230367609118 0.2341897027766741 0.3790466833247859
Ni 8.873018564157324 4.626250709219882 7.34028118847061 1.7096715021572877 -1.2273289495556283 1.7631123955852475
Ni 2.4958905868810723 1.2662808744019993 6.422185337476871 1.7505160469774756 1.3935026893036453 -2.889325000013824
Ni 7.786263974408201 8.975271494521678 12.027379819612932 0.30359791816716747 0.5930431989830367 -0.49020138652444606
Ni 7.604458430320256 3.1826858985161066 12.006810195294262 -3.1887659585898245 0.7894528547974597 1.5979151608178865
Ni 0.21891225680170165 3.21900640514133 9.316122285545354 1.6266588086094824 -1.194457395638588 -0.11390269825844254
Ni 1.3210292396986074 3.384192733672357 5.435251237658564 -0.3176417978547433 -1.4955181492061986 0.747866289604925
Ni 5.411856992639187 2.1527282392238556 10.518473162513525 0.005938476971622031 -0.772799819621811 0.03170941528813894
Ni 4.414270353987506 1.0479979515819644 8.356495928424206 0.4820455901865311 -0.11691448850157284 -0.24182176540063513
Ni 8.538558004545733 0.9570121295990623 0.7671009114715863 1.890688220455408 0.11120458260098912 -0.7948480576711021
Ni 2.15223916736127 4.728678967233088 1.2162100662213273 1.5804038914070007 0.1525216961822212 -0.48969050832629857
Ni 2.4833500461026987 5.274464710336609 5.371030565438483 -0.45825774373831407 1.426935257930478 1.4768647957710694
Ni 3.396797868847676 4.909552506450822 3.3707312613489635 2.934123387275437 1.45780700780867 -0.42710471517427734
Ni 8.038182122494735 8.271432489864086 9.824884365874047 -0.06655171977830474 -1.8997117641102572 -1.1040023868801245
Ni -0.1412513361315087 5.535001596529839 5.383632009505404 0.8911155593462847 1.2253648838507218 -1.564878284967576
Ni 1.2446509791963276 4.599702412075378 3.377105805550362 -3.330403403759374 2.9271197022640942 0.4739707835981966
Ni 2.0084981786160707 0.4485019674184556 4.025113104596865 -0.526429515618545 0.5226075707692934 -0.46920807210223064
P 7.92730122625269 4.431655474536775 4.102905982392246 0.13958544773652734 -1.4015654117071217 0.10015603809631138
Ni 3.4325739369843604 7.344124555088854 2.704274879757795 0.22790772642270424 0.456720224047865 -0.6493387882509721
P 0.8907281277851291 2.260739298687331 7.387659333075764 -3.920467722619745 2.4044661087482138 -1.8756596082570602
Ni 7.531457534001115 1.4986453757561018 10.644671235825488 1.1022892608437596 -0.1120049670150974 -1.3664328296700465
P 1.249320231318371 1.8923574529084846 1.7346142444597503 -0.06861400162397216 -1.3505526681046804 -1.157876511190761
P 3.7308616343066023 5.678521118771226 13.21095771927461 0.4019480134029917 -0.1913353266153092 -0.1575327762435674
P 5.484359589324751 3.3561310820851356 13.025955675314973 1.0185630861686974 0.5140653376262373 0.4385479240142125
Ni 6.4968306225868195 5.956387758887772 4.753681612736401 0.8515902475581527 1.4196965740901937 -0.5947766367343755
