# total energy = -340864.75820250664 ev
CRYSTAL
PRIMVEC
9.25121861015811 0.00000000000000 0.00000000000000
0.00000000000000 9.25121861015811 0.00000000000000
0.00000000000000 0.00000000000000 13.54009356347240
PRIMCOORD
 96 1
Ni 8.610256896054716 5.706928552926797 12.43727960670872 2.2306618490381327 -0.7750096827889362 1.2344118245443387
Ni 6.356623112057757 8.420838201257677 4.763052652668121 2.628108889246977 1.6761671997522551 0.8581707289891479
Ni 6.22946511645408 4.5184707933613995 7.28195679546751 0.44979007258693504 0.07945017300752769 1.5154827652535836
Ni 3.258279087058212 4.7408145741063095 7.465100388888195 2.026351964540026 -0.12425678779925697 0.5916800000869229
Ni 6.952919639131648 6.135676265276919 9.324805270869957 0.5660391595903671 0.8426345810267617 -0.7008577820658703
Ni 4.65471348534069 0.3137985495436923 6.859276032081876 0.1048452160418646 -1.6228857147202953 -0.37477402409136096
Ni 0.5421963275474628 6.307452886766121 2.4135216648422686 1.1079441451366918 -1.2391629660760788 0.6091056517625382
Ni 0.338458597057782 9.086814904605623 12.795036245150953 -1.0489555824176258 0.4313071832913991 2.031737911442288
Ni 0.3549368671028361 8.097693145860337 7.233754247610587 1.140525678617139 0.336816056790349 -0.752859114833826
Ni 2.6049302966967356 8.899570246110285 13.32404773636998 1.3414992996531605 -0.30122221884613926 0.7716258539183678
Ni 8.682712437820303 0.35667332077870445 10.186875423022075 -1.3634043272563678 -0.6844178913422923 0.393571102193206
Ni 8.588914335424837 7.479101182671142 0.8983552805884034 -1.5151192112665777 -0.1391496457506894 -0.0008168394743405287
Ni 3.131287613384027 4.804786748686115 1.7786540332889016 -0.3690301796290483 -0.7016787353052689 -0.7427989023843466
Ni 4.024890543129097 5.66341082201958 12.987386651028881 -0.5846799146200059 -0.7397883976927969 -0.19313792704168672
Ni 0.09420515600089088 5.36168233699856 10.140690565877495 0.10751453534391162 0.19251186342191362 -0.6553747100324068
Ni 2.2874469869021197 3.8960950818854165 5.419097248043706 -0.3823263825173222 -1.1482526149477514 -0.693607014040728
Ni 3.207693425365894 1.3431658832816802 1.4493041857743265 1.00924258009872 0.960945692765545 0.21726104534213553
Ni 0.6974845026514748 2.0025094631048654 3.6279189154133524 0.1915746963196249 0.4470585325883849 0.31581168662453996
Ni 4.744709337012758 0.9458538107323073 4.56269994295628 -0.10409136859497556 -1.3792114694919537 -1.6772959140400596
Ni 0.5652734916095489 7.432003230279849 11.040402075069428 1.3696539077105057 0.8687744726469231 1.3659299218916992
Ni 5.0461510342663205 7.8067330789464595 -0.005325926378249326 -0.8117021531139633 3.3081638756348832 -1.9262396351974567
Ni 4.427642332041872 6.928903476411593 9.275166933932082 1.711477959238407 1.508743646757537 -0.8527313031411315
Ni 2.542743607249815 6.559835373347708 6.382840139612597 0.5694350726457935 0.5994251912499806 0.2068030832336051
Ni 5.890204438769246 4.285219826234771 5.029264785494012 1.5814179344938117 -2.610349251270711 -1.5073056287594297
P 3.087279567906639 1.755844229435833 5.509328080660723 -1.8939152120331384 0.7517635677768021 0.3887556830824337
P 8.225757760857915 0.28997943777353674 5.124194311888192 0.4841142997901017 0.6461853302236549 1.4768473122695727
P 6.602603755572212 1.1804554557314817 7.5612075953726166 -0.1462201794442256 1.0327979988211566 0.005502674985784071
P 7.772929127259603 0.1794791858500328 0.7401612978147578 -0.46843674115384487 1.5342417910286414 -0.059654221327523065
P 1.5690898855106652 3.809189137127254 2.9370360821444015 -0.3227647209036054 1.1177881278103072 0.4487809145961303
P 1.0259601100362172 7.525866091203451 5.239772557539369 -0.7245291575408812 0.15811281711675348 -1.7605736883237935
P 6.77446363802616 6.269828181919257 13.07155145980324 -1.7051944402225407 0.0960273606399185 0.8229545860993311
P 3.759954153307482 3.363437685532348 0.2569017067236315 0.8970332103823003 -0.4620915156621074 0.2978371044239903
Ni 5.060222137308386 3.2872539027898027 9.381971324142699 0.4307307419626388 0.17702430930927576 -1.4008745562876843
Ni 8.158954713476746 3.443719757984055 9.272540513055265 0.38377365648681 -1.4732896768253014 -1.962915650462252
Ni 7.9725056597556465 4.8926085640564825 1.5455205566347474 -0.14494028429053749 0.6835982236544743 -1.2363272963994965
Ni 2.403448013229839 0.2924152835532711 3.226495601449191 0.0771606056424026 -0.04731009793987336 1.382365184629587
Ni 7.331229709282333 8.37291689043723 7.724785787199833 -1.137432384403796 -0.10780301311860788 0.6359168584181112
Ni 4.54389314126383 5.272417331572595 3.317065953778006 2.6763623249367265 1.116784112025825 1.4563324801456727
Ni 6.201702210320458 8.269506772222758 10.468685109910373 -0.13240872748243002 0.9265062801407528 -1.0543934656037453
Ni 6.361072948062513 8.266814667695973 2.239098269795976 0.7305010588536001 -1.6386694599171134 0.2697310902163935
Ni 5.308746865856745 3.0581937375553867 11.727589046625491 1.9582308433920728 0.5841893481368327 0.06450949253729535
Ni 3.0877513800401992 3.5440307180663155 11.783293407406024 -0.03072648254957934 1.5962488288590573 -0.37039260719421374
Ni 4.513354869638676 7.541889201307894 4.482773117287488 -2.818805553837023 -1.172421498884471 -0.7033041867238339
Ni 5.103795375525434 0.791809924490332 9.107458998253467 0.9316004068342085 -0.7559076718521627 -0.20708641880197884
Ni 8.50297976858871 5.957682825086686 7.4564884297679725 0.1328653554038744 -0.8128457798001032 0.464429933987297
Ni 5.460568609461833 6.2058097512479256 1.230361152878374 1.2288127331900065 -3.002798581154648 2.956705129230695
Ni 5.645121163430387 3.8436591765320776 1.6970610632033611 -1.3239476639226424 -0.5155198106845768 0.2945769456154798
Ni 4.92483980863147 1.4054543361299563 13.307988546514148 -0.8796384119446204 -1.0757683317350955 -0.1942285890027042
Ni 0.5214874753714838 5.465860306332354 5.359264068533605 0.10994808448606871 1.0645212980663668 1.3183316032874457
Ni 8.908969483908272 0.9015432504163429 8.004090244171108 -1.419523538847439 1.2474761139274644 -0.5149533966581454
Ni 1.6430256222050696 6.650913617561473 8.779626350540928 0.49920179025084344 0.3001752656388637 -0.34555909309030164
Ni 7.4364900711578255 2.5304394869040245 5.961567411652999 -0.3692021864305383 -0.168676965785845 -0.026354064513496547
Ni 1.2579159066001315 6.874404549376216 13.424433631320511 1.345326900929367 -0.8691835351598838 -0.3762086996553585
Ni 6.077754387468652 1.3013226228876873 2.1155177203108835 -2.127309929712343 -0.18974407086878936 -0.9653746750711761
Ni 0.4524585848661074 1.7180159977862561 1.2751777548356278 -0.6950270343167062 -0.37189310299914013 -0.05756725689150731
Ni 3.2690105002921346 5.216419707171791 9.948908184803503 -0.8989314558462776 -1.8160444676975884 0.6691923326417895
P 6.120855813552139 6.688381051697151 7.3081025886413995 -0.5839438077849298 -0.3228462248738182 0.910255365499529
P 8.813755945112126 7.579476901281539 9.281896270127216 -0.7805730358093267 -0.7395464568853198 -1.5846099590685483
P 3.2174534606777807 8.092558719701003 7.841352062965995 -0.1398883236889268 -0.03596921900575741 -1.634253590237605
P 1.2221414454142878 8.42417789106582 1.916519388958908 -1.3520719329626842 -0.48591664310616317 -1.2605910540428678
P 6.203432188143513 2.3347299636595142 4.032659716261725 0.27514917590817134 1.2340094468995975 -0.14924971029916875
P 6.592704951985749 1.526867325166163 10.635729733236515 0.6040503487268177 0.2657487085298778 -0.055629416438846134
P 4.68047812832041 9.04177997389637 11.735645932647406 -1.2110227561964368 0.2533271949370734 -0.2910493920781955
P 1.9193780154151856 5.59509982605468 11.653511766291018 -1.0873704347503983 -1.0580565162776294 0.5064016504333925
Ni 2.6247464063062718 8.87451794694006 5.49091353062441 0.4818792398119959 -0.05543915480491097 0.18189115048327384
Ni 2.5087361287602468 6.115018294801619 3.9130867945464036 -1.1030135406042938 -0.26557515906649104 0.6986810861295257
Ni 2.9934907167294775 7.408070328524541 11.508727424450623 1.2887631456017097 -0.14649862991659285 0.679016774931379
Ni 6.865523379803315 2.6102497472221713 0.1559709150149288 0.9977152961854108 -0.2630084267805793 -0.15554454216894503
Ni 8.495828576838864 7.685662384987541 3.9281977345259635 0.41947470943284537 -1.3332200903635039 0.017430279661305465
Ni 4.663085837906811 2.682214974417588 6.698473205746191 0.43708959430113115 0.6213667285180782 0.46104970466115436
Ni 8.130710743991258 0.5665538602229755 3.038166700168494 0.8293990561730942 0.10075227691941357 -0.9502763859771569
Ni 1.1215251951279588 4.29389746900496 8.243614462430429 -1.0817829133602919 0.021062734207570176 0.2459699832410538
Ni 1.9719619402614064 0.6729650736556227 7.474131428197639 1.5669004576039272 0.38340778850695906 1.5312441418528984
Ni 1.0791638665088799 2.0485990327009014 9.486270484436288 1.0986933159623853 0.22174710613794713 0.3658548672248602
Ni 3.614617513734272 2.874233261558361 3.341424411575349 -0.0624235565425441 -0.15911091936396468 0.5540303080549491
Ni 7.724480496995764 2.8140078303921228 2.527177507329644 0.5454546505707961 -0.058598269259182954 -0.17122595745994382
Ni 7.436453066284605 4.4366807723259605 11.040862785741025 -2.0603517185242386 -0.9543636686726532 1.537867560706687
Ni 2.802517817257182 8.758766703506577 9.749138301844884 -0.47075536198469253 1.635689294242867 0.6626671299287619
Ni 7.692388020695353 7.898070357272767 12.066199363663477 -0.293699685216849 0.5446277837941266 0.9157343863362294
Ni 8.57554632497396 4.369970237127843 3.993392920165704 -0.6723478475516356 -0.6188704444587858 -0.9651751574658602
Ni 3.6426487051987415 1.7171556344838812 10.548301094644113 -1.79707229747046 -1.0316317464271976 0.8151839410149767
Ni 0.5826260017844356 1.7604050800602502 6.041806003378673 0.30565711468904133 -0.47374272674779055 -1.5348380298517437
Ni 2.0886383055253988 1.912291582193475 13.161972867517342 -1.0770541404260547 0.04660330168083587 -2.1686964630789296
Ni 1.5450644715723059 4.240073880905855 0.21238299399580207 -0.2196382873250604 0.8493176494738921 0.12129641961935239
Ni 6.964585425414386 6.1384423795501455 5.4759931657419365 1.3248778890463957 1.1527900978067886 -1.123880099640658
Ni 8.56696119438682 1.9373253789270906 11.95913871470581 -1.3013615510920105 -0.6615173325950349 -0.25565430040835324
Ni 2.8806536070621043 7.102086283083172 1.708340148560946 1.6945927534472947 0.9637358539161724 -0.17884002236177585
Ni 0.82380526299854 3.544336008270384 11.567870463075163 -0.47098830393110497 1.0025173455597443 -0.8033429825159907
P 4.33415877106878 8.907119240247251 2.2893314600708696 0.012167488600469368 -0.7000687105056717 0.23103264520493116
P 8.836338168994887 3.4976081046112957 13.474884225225576 -0.5398671291806897 0.04501333148589667 0.08277383806412196
P 1.3246264417982483 0.6207262192521826 11.206620564600923 1.782586188039143 0.9557145262735928 -0.9593081571621221
P 7.090476004110264 5.958043622600586 3.206524071372129 -0.7933745584493691 0.4805605210005723 0.034727119068540195
P 5.45449055903538 5.152484537465205 10.393985222583968 -0.7144861714825824 -0.43360549240727253 1.1238561883812581
P 2.907241608470978 3.2291192469605194 8.846135209179995 0.33118996885282315 -1.6908944786601008 1.0410535539617296
P 9.203546777179447 3.7007371049365005 6.571629751564887 -0.43392096676516234 1.0909067300384307 -0.11036845985293897
P 4.184390797927424 5.169155232851005 5.544369845356803 -2.3521140775090585 1.279494318705274 -0.11627891180010297
