# total energy = -340860.42510486994 ev
CRYSTAL
PRIMVEC
9.34368391947277 0.00000000000000 0.00000000000000
0.00000000000000 9.34368391947277 0.00000000000000
0.00000000000000 0.00000000000000 13.67542589019276
PRIMCOORD
 96 1
Ni 1.3104516928661758 0.5022660004944323 9.324356674078302 0.3849674196845951 0.20502645094915659 -0.03278207952702741
Ni 3.1255464194579075 5.009289193019249 13.491354793448584 -0.3819556294414648 -0.14097667165709915 0.9922997815967943
Ni 4.096476663741707 1.5661042331051165 10.270354231750735 -1.7471952101343586 0.5102428785563535 -2.266803331955696
Ni 4.07036106672523 6.134558411012592 10.120307746509662 0.3009383690571334 2.012765226994527 0.351638209404846
Ni 6.630100696439742 2.041165163018806 6.466534834696648 1.7501758900292375 -1.9486007765014766 -0.897740263751654
Ni 2.5581044849997054 8.1124107706741 2.116996634312662 -0.16010182252232427 -0.8545249047064444 -0.181133703491959
Ni 7.567188116969094 4.202004231793262 10.200787700635608 0.32907549361298166 -0.5270000434100344 0.8828983136428149
Ni 7.7466335698139765 4.982342008119242 1.5377059740667691 0.3722083202467138 -1.5096921267137355 -2.012590906200192
Ni 6.057024520478522 1.635396994276564 11.109602067493348 1.465373250191702 0.8612244282138072 0.23182711608176848
Ni 9.21418996687874 4.2718389266416175 3.238764773879503 -0.6690064418832284 -1.037251663717136 0.3974331562517736
Ni 4.785265023406705 5.219559459659252 4.475925543154427 -1.28647254979532 1.0900160999033615 -1.6515581429543233
Ni 5.362293577735715 3.8966526359082954 6.16713890304721 0.4562743947596981 1.4177289088408616 2.119157732918854
Ni 0.7983654803988212 8.807636928673391 12.299103507357914 -0.5459007369692792 0.6131646523232601 -1.039352512110223
Ni 0.23436762789420523 3.043284624777025 9.7143938162957 1.254159182374595 0.12999754693777613 0.09476366343614646
Ni 5.159451539942973 4.080517651325198 9.735070454806527 1.3239137253609135 0.3936464355158317 -1.4764670461120184
Ni 3.4173122986838553 0.5809659828022627 3.2132331571183137 -1.1892203156093648 1.6249539101032338 1.435241206693012
Ni 5.902022145198971 7.993699264379164 7.929409111666614 0.5639048868561837 0.565017146083756 0.14366861666696548
Ni 1.015583710524138 7.432424161416802 8.997951889213898 1.2183437153378824 0.0011891352120947263 0.0444065511398332
Ni 0.28507673578977755 8.533138177635797 5.620203552049495 0.6219292858897676 -0.34304095465413825 0.05223221783183907
Ni 1.4774513585103624 1.3608048063981244 6.906801753816077 -2.004674736676909 0.5825356145834936 0.189387458860319
Ni 0.39182552335119075 7.704643053537751 3.343341154891245 -0.9205300079526598 -0.4074386042039177 2.127171861472582
Ni 3.6614440764464757 2.72716910482659 2.0490577729650736 0.02102391054983476 -1.075148952983542 0.15487579823669456
Ni 0.03667863187412601 0.9726962005757904 1.9957912987355444 -0.5481843907971333 1.3875503283749522 0.9386534570262479
Ni 4.834160522221455 9.164892689648351 12.436213661983853 0.7654924873271204 -0.13808289504907187 1.2564384653270748
P 2.66507098040029 6.283758358475602 5.551265850873262 -0.8282014363205673 -2.953698481193887 2.6170451752336477
P 6.019191943619946 6.385501734472891 1.970519436391907 0.8655667643429028 -0.29529659739032366 0.8593572930980812
P 7.932984005197386 2.4712829724855347 2.663248027635383 -0.20766028902757783 1.723491952980148 -0.21227670475366667
P 3.0290635376002526 0.9565409707935045 11.915672349788336 -0.8313014154021295 -0.6262353694642893 1.02611801569782
P 2.085613068209283 6.134053852072023 11.80554395169352 0.35785128019409335 -0.9798795535555704 -2.028039636655094
P 8.877172625631038 2.717844108110152 5.968393136357162 0.7610177393852184 0.8133358320626445 1.600744659846882
P 7.583249909910533 0.016360790832147403 0.6550081385939165 0.9067627789652384 -0.29458543025591205 -0.08243316689525158
P 6.089605946881546 0.9524858119007849 8.777941766284101 0.7967822985793375 -1.2390565224052015 0.5809001358625995
Ni 1.1182614549298877 1.9075037621884983 12.667013871294554 -1.0179455071893566 0.65537316737051 -1.1435166429246628
Ni 0.8684711420856297 5.314154917331817 5.116756509886769 -0.15552834421902892 0.12094932069257879 -0.15662389127605283
Ni 7.240476859266714 8.17795671452762 4.1842288071907054 1.9982886306449068 -1.2108378938791404 -0.8842789960404254
Ni 2.2403725077026335 4.274529907657985 2.8202555575194905 0.8242810182202385 1.3556362532751751 0.9851680556480193
Ni 5.678764157681363 4.9423510402371225 0.2246202966571429 -1.387031479757005 0.31561936810807584 0.7094534941546814
Ni 5.228482677960052 8.336715250809183 10.21284946242043 -0.2568822592781834 0.7720804249572832 -0.18405679067602493
Ni 1.2367767438590471 2.732429598966224 4.317906092283956 0.1838971251697091 -1.0068787078522337 0.7636227811082332
Ni 0.8950277609909006 6.097193018358248 2.0489073396513113 0.5876927333044007 -1.9102345180184521 -2.1763143846355035
Ni 2.699876203615452 4.386831646670879 10.071089890593992 -1.5162949767422338 -1.60537573086099 0.35970530268369666
Ni 4.4707098986983995 7.161158325072483 0.6130484564751705 0.1881096205891599 0.8796839204705754 -1.0637520240005098
Ni 7.793576238655044 7.241401883991091 13.359783574748002 -0.5544673955923677 1.847831273190882 -1.512008690662054
Ni 7.9699195883838385 4.659695252993667 6.001419322122614 -0.29159446594838817 -1.4058195589977853 -0.39831273064324946
Ni 5.1923786826571305 8.300723379715276 3.3106289169110346 0.04713114915984786 -0.8552869796834497 -1.6272704740515525
Ni 8.910931356228724 6.324767787922944 7.427055280541786 0.7102111982563123 0.5646322519405115 0.3149956184811478
Ni 3.3982418394671723 7.660120398874598 4.462906988119344 0.2139332665204832 2.815390871728519 -0.9781944525436638
Ni 7.539689654708094 9.066690569919128 6.2274467776029 0.1815389093501777 1.119227431359995 2.5458238178938153
Ni 3.115903737482593 1.4082707215479295 5.343905207457206 -0.8815610828886302 -0.7501314314900177 0.3067488050913233
Ni 6.445282625246209 6.558864448978696 5.845602177590886 -1.164695076774491 -0.5203665972539168 1.138226598170317
Ni 4.5454967461115965 4.237781198153224 11.788053509455544 -0.3641265716798438 0.17026179377446163 0.9231011111139457
Ni 0.5226660659563553 8.439495775739863 0.9793769346962846 -3.0461260402976893 0.009380669883951587 0.17567987946623936
Ni 0.3990752878324375 4.183111302574186 11.921716779022669 0.0474957315881182 0.7169649720403782 0.5665099285791986
Ni 9.303253963573217 6.433416146458757 10.773965722753351 -0.353299656267669 -0.5371160487981137 0.9595328715784186
Ni 4.380711533595462 6.540933919220334 6.839354370251339 -0.5574969264473109 1.6467494087117702 -0.7136587904852806
Ni 8.503303794353647 1.2769078670024354 4.600508620528131 -0.0962595312553826 -1.166400489501372 -1.5660278251909867
P 5.641679075549557 8.565981227193193 5.63245685935805 -2.9903495567580176 -0.39857858271012647 0.5245916910788578
P 3.4282817837991844 8.305339159653071 8.712955509107248 -0.08705189661418557 -0.5327040357733471 0.14350560872653995
P 4.027538962565474 3.0087877431366548 4.4189813948691965 1.1754998806994785 0.6902568666215726 -2.3456634367877087
P 1.2615561940514255 0.08034260196990443 3.8166884531438177 1.6566406996835532 2.8330710626171016 0.5003112212649383
P 6.378176286150559 3.3181944979143414 12.513630756466865 1.3779369736549043 0.025343106750478937 -0.8377132324657443
P 9.236184999213906 5.704496663650373 13.598501621952 0.6247107052896467 -0.888072915865219 0.34384699549520137
P 8.903549845801885 8.596749978883803 7.942372538965599 0.7865022568095681 0.7274201059354312 -0.10556821025081818
P 4.358735188628465 0.021668937760612822 1.5012058065586593 1.0585298563696222 -0.1840015119580573 -2.40253572449472
Ni 3.0622896782051163 3.9442119878989463 6.049871930311754 -1.2017223047311174 -0.5346465042116986 -2.862884032213476
Ni 1.7347483871481937 7.097116714356584 13.614789532048288 1.6948758319053518 -1.7919192925146106 -0.3580482266962479
Ni 7.619550122579233 0.15160874922002132 11.850317017090141 -0.32149408172129795 -0.5653488183915618 3.0989822648667724
Ni 6.409300097836386 3.3709676256242034 4.269180648519547 0.7610979578038505 -1.2758202122877964 -1.1573522632561746
Ni 7.2543428864482715 3.375546030825661 8.074545490921228 0.40650940752142894 1.2479024028316055 0.5988253528824526
Ni 5.435520029906781 1.1539076097126646 4.744893767582341 -0.37279350332622246 -0.2693731926563425 -0.8769197274618769
Ni 6.822066685957999 0.574987893724931 2.8671758015187545 0.22390117636647244 1.302640417804434 -2.4082541150357364
Ni 5.885128764374001 3.095076665658003 1.854183094591278 1.8046614226716275 -0.07397860836999517 0.011777966471534554
Ni 2.957163888569199 8.163240412094364 11.353927259516519 -0.6546815406201241 -0.5043877053271572 -0.913945926977239
Ni 1.1403872988422379 3.9463797226065753 7.19590001123587 -2.623705875083275 0.16407829067156904 0.6801843128769188
Ni 7.9338903425535925 2.203726578722804 0.04959160327905331 -0.10474494301857444 -0.19616385835220407 0.3499055429844554
Ni 7.397301252942763 5.216055578127524 12.365279215518738 0.6253110578778069 0.03958033339578345 -1.001207111388753
Ni 7.64256361647962 8.668098350553866 9.806319783425291 0.3369047598494133 -0.5266262050103834 -1.5717860678310027
Ni 2.066907012671899 0.7113804534131694 0.6264519712945396 2.140374219095469 0.18642297691535636 0.8087757234957876
Ni 5.01582042819439 2.570307336414203 8.048972761950067 -2.232193969411943 0.6542529377231378 0.3628338210103493
Ni 0.7496447084764531 3.4635728785867466 1.1552531002208482 -0.2073802958933138 -0.22137609595177357 -0.9648769094991512
Ni 8.091948102528809 7.214585510668267 1.8885080524444915 -1.7539109315916375 1.2777261710612575 1.0685898117087853
Ni 2.2883056070566696 8.467003581684947 6.747577902067101 1.0641379465850191 -1.1870865570958138 0.70198881034652
Ni 7.262995137910618 5.458841865381961 3.7171726114322987 -0.9716137140023524 1.6314755132718357 0.0435737708258927
Ni 4.264896569366754 0.5441406550880085 7.1362882411444835 0.4568163833060972 -1.2986025002896346 0.5270923460135244
Ni 6.836932487336608 6.380998078744111 9.994945405883302 -0.6551849626191039 0.053826301791836326 -0.254302157255833
Ni 4.817435327710007 2.2747385777658193 13.436393374926107 -0.5160857104903758 -1.0905195219023411 0.4646091398776386
Ni 8.353262915323024 1.4505602357148621 8.692784363905398 -0.33665484862213635 -2.0634277863464012 -0.5492812234057379
Ni 3.553804835791799 4.8850088510098875 7.883800720912829 -0.060594987974237575 -0.88480401530596 3.4358546288163536
P 2.7695894305707074 2.827445522422596 0.07005614016116025 -1.1634298369088223 1.234488443418545 0.25137109965196713
P 0.7622726975167999 5.083478044651031 9.170166264945705 -0.20732167474123647 0.7677622571979036 -0.07513123391719964
P 6.914858812602234 5.439070629858931 7.7958411476771525 -1.3215866198896338 0.9936758360087146 1.3433674632101509
P 9.182598970988682 1.1008354841120953 10.925065241190762 0.9577079025545379 0.7732330505044877 -0.7911513255458051
P 8.367773656706417 6.665251635966034 5.234487863721229 3.3993853302457264 0.21238134865233102 -1.4100479952568359
P 3.2306535217256553 6.07716015968085 1.9494185946236384 -1.2056730618487494 -1.1711873693670538 0.562749947316134
P 5.470231816281098 6.830382564793299 11.901285879403265 0.3020341732244734 -0.24570130296069947 0.21253844305548558
P 2.5862102867262045 2.7082107698189217 8.148311073663978 1.6000103527840188 -0.4939212585781945 1.2917595092258722
