# total energy = -340869.2036186677 ev
CRYSTAL
PRIMVEC
9.25197987859105 0.00000000000000 0.00000000000000

0.00000000000000 9.25197987859105 0.00000000000000

0.00000000000000 0.00000000000000 13.54120775677904

PRIMCOORD
 96 1
Ni 4.633086164054018 1.3924692184607814 1.9638132028869568 -0.11882121860598246 0.9876674250311055 -1.5765240967366203
Ni 1.0293290116597738 3.4925298513455387 4.7960385085208745 0.8711159762959062 -0.614362272175787 -2.6271377835829597
Ni 9.434336312791224 8.71839961259567 13.714670392953693 -1.373727306448931 -1.8902889281344604 -1.8321971661980512
Ni 1.2345194194669773 4.601620180784458 12.644901902824962 0.19852747348837424 -2.607602284653193 0.14979221306620008
Ni 4.700301797236422 2.786613045263753 6.38551938465352 -0.6592653033360646 -0.6265804115085337 -0.32952877910031636
Ni 5.262489097263337 1.3826898758215795 4.107535778801913 -0.6257615151516642 2.2663994116490582 0.9006834055403778
Ni 3.3793133746417445 5.056540027113263 3.21801343376558 1.7639582885253104 -1.568191665611525 1.2410822945859787
Ni 4.862748058408704 6.775465352503307 8.910318055392528 0.32186894856221343 0.40061721040671006 0.020710493074474007
Ni 3.4584548097748864 8.267217566102472 7.102580200393696 0.2561618361723911 -0.6850125875034977 -0.38721070719281697
Ni 8.649916458181885 0.716677783776824 1.8365401932865313 -0.062370077596789364 1.2729192365909174 2.0337225459724846
Ni 8.233928942814064 5.577852080423061 12.56897645586721 -0.6079990489619206 1.077042827572145 2.934045225739334
Ni 2.3483375105791535 2.713670436590654 2.6210766228412408 1.0987264831931658 0.41208690160920647 0.7683435836226703
Ni 1.651469140733072 8.022030849658307 4.97021905566222 1.154333788144825 -0.21993884928461477 1.3167858560668806
Ni 4.471685376598131 7.303827414413929 5.066388759600898 -0.6526205443260373 -2.6112254832280772 0.12439588448028252
Ni 1.4038954135028003 6.066143817858393 3.5382494346812803 -2.133902752438512 -0.13401181030349177 0.5179479605100952
Ni 6.04867608001278 4.860268527824687 3.444219713668287 0.17757452538579094 -1.0719476724374248 1.5073683636765653
Ni 4.54120475274852 2.013341826302698 10.00748073248475 -0.07234287253878509 0.23967232315780013 1.7103613291354607
Ni 8.238240365396722 5.894149513541686 10.493461325368264 0.5312912145862204 0.955763120123341 -2.628050782315532
Ni 6.2663844164773534 2.9141700906437658 0.18341679856680912 1.6873373574364618 0.7766405335241398 0.3198694016336814
Ni 6.2968234299901 7.253774203744033 0.36446601550507357 2.013026193965398 0.3255152870655491 -1.2209307593387682
Ni 1.6402279852868753 0.8624168198423229 0.9785745009217106 2.183492647551497 1.5163001189485565 -0.038607685069868995
Ni 9.411113843515544 8.10310594856779 3.3042844445257504 -1.1333834111454029 0.4154275359466652 -0.9785315241681083
Ni 7.217608214740589 4.817903712361201 1.3118326633933963 0.7979356954574903 0.49084210543223844 0.3510810513497954
Ni 4.9097388637677435 0.7710590705930013 8.11729015878554 1.7540371727568564 -0.40884551185377327 -1.111851193500582
P 6.127262396358455 1.5571544587425123 11.808311984569519 -0.9059145720323301 0.5583898705752254 -2.2255630943589866
P 5.250896366585079 4.78125662040862 9.65201041693057 0.4555318601667187 -0.8717307270617697 0.6632314870726641
P 2.168164456127107 2.7235978109065133 9.305233261588118 -2.26967808240033 -1.1053720135341416 1.7075398005262656
P 5.010751979127067 -0.037536207210506205 5.639425856328846 -0.15782562489363788 0.24250336484869203 1.6355275718540219
P 0.10315772427490129 4.42810855178201 2.794769590647595 0.3001007036471864 -0.11311748335298584 0.40577741445141086
P 3.4658563936077735 2.9881859289726336 4.666842012321878 -0.9140369440291484 0.6676532702894437 -0.7326132201005964
P 6.273036589947161 2.6968133294112544 7.839492989171653 0.37076798825576146 -0.9659868547338781 1.4993305809737534
P -0.27402236185911355 6.731879275707395 1.3136432758385161 0.20901731727610454 0.4190286230343622 -0.5863141077893194
Ni 5.02313112808757 6.162734486877565 1.8721806698378394 -1.613487304224531 0.6150161037097021 0.49439408444955496
Ni 3.548569092940283 5.956785416727491 13.203909297397676 -0.286869549668893 0.5824409979871582 -0.3524475926800188
Ni 2.2845081020002964 1.098265513083323 5.282736129838199 1.452338528494931 0.2632387976238305 0.16862631505356765
Ni 5.460842292004911 4.937763110555012 7.213035886327824 -0.7723187662203344 0.12131184623832011 0.4839839448598245
Ni 7.446714990307808 4.090429793366133 9.206937452693445 -0.6830006992797916 -0.9546724581623237 -0.5864958847828222
Ni 0.7961060302834903 4.686655127044537 8.877033132896036 -0.5899730446981452 -0.6235066576792164 -0.6182585219063997
Ni 7.1568782193917535 9.116012696098347 3.981006628376693 2.3465244992364234 1.2253222035382445 0.987664339707312
Ni 3.6266928102964027 3.7877697784596016 8.471460571179067 2.3915684268499393 1.7061719736444616 0.27843504574829464
Ni 3.7926825797286803 1.0729613483546412 12.851852037188436 -0.7446079305686273 0.4212258877959972 -0.012823119906597272
Ni 2.2462234096246894 2.9883524646088735 6.841843681514614 -1.087312070708637 0.7522613333488269 -0.4929727786219961
Ni 2.871851535079236 0.18059494473052104 2.9811238927980805 2.263231298333722 -1.479361594050994 -0.12347748643107123
Ni 8.010410363040675 5.532841198739318 7.149811557227305 -0.28535157036246983 0.6051309833855062 0.230594529226248
Ni 6.100459410903614 7.1696644554630655 6.97441252434747 0.07182968034779241 1.4419407302003746 -0.36937187923918324
Ni 6.366148514564876 8.602796125105769 9.789263537131667 0.20924717389872352 0.3218918313803489 0.23212870648258732
Ni 0.6448722434200519 9.312117659750681 9.386968026656708 -0.9982629411587647 -1.6556078875436648 -1.5548458404322383
Ni 0.470279057980023 7.0635257432994685 7.81322291775278 -0.12291210084590444 1.5133834595223936 1.447569903461694
Ni 4.535366753500331 3.8420233879546615 1.1605035811381095 -0.18251875676494372 1.0050925624860885 2.347391989443041
Ni 6.661212654062908 3.8570856110545866 11.600982519034611 1.0523661507610715 -0.12199164591416412 -0.9086599959879511
Ni 8.050008836546619 1.4133046769503577 9.659864422575243 -2.159368500809784 0.6372489469659736 1.0813548246839377
Ni 8.469863679467121 7.724218872162316 5.786077137601748 0.0763573930148169 -0.8352164341858196 -1.5521209853019076
Ni 6.654902803845372 1.2567519269050111 6.094870289911805 0.7156400825813675 0.2594906434353079 -0.1208127951147145
Ni 5.191711451861358 8.483260546204647 3.2714741485925423 -1.514493918977753 -0.8396762697293861 -1.5065399542379991
Ni 8.084870296399515 1.33845616044029 13.149217144060517 1.5081648914359316 1.3270373585915596 -0.6933779287490575
Ni 0.1412916093799131 3.209798600909055 10.786601053069743 -0.7467684285550559 0.11066285116490619 -0.37183191074390154
P 2.906750002851297 2.95435143887655 0.37732719261269343 -2.2851293839583935 -1.1792202669738596 -1.0978952455411222
P 6.627692731279723 6.236713317287268 5.1639397841223875 0.21714997368556796 -0.05121868896566018 -0.7315981485725207
P 3.5213497683948423 6.057234161319555 6.684142760777191 -0.20989432056441917 -0.403584263454834 -0.02773371846984256
P 1.1931445658411401 6.468910254104719 10.397128786585261 -0.4713534005800075 -0.020622304236041902 -0.1960263043330753
P 1.1090348175601732 0.967692322291409 3.3252466551384647 -3.4334694164136286 1.0276228823781206 0.6743723341808322
P 8.625574499351478 3.5389100260383657 13.012856839909265 -0.4894979326995183 -0.44518137017033016 -0.3711474830823672
P 3.147218209601997 7.261814174182505 3.191405665084331 1.14056347383361 -0.0277152065270813 -0.29738896114297814
P 9.20007618448036 0.6724810763146988 11.365880460562755 1.1445078031933387 0.032904721147820754 0.09610963594107964
Ni 7.597892340094521 9.015767495061686 7.4827496011982175 0.9938172466825852 0.02428869734403559 2.044552546708453
Ni 2.6401264492311327 6.141880524428407 8.621145576625475 -0.21287654312119467 0.3220561248723551 -0.029310061818026943
Ni 5.256271766843712 8.548403735913842 12.113680053960909 -0.9664272847054066 -0.7342749240737355 -1.7192568318528778
Ni 1.2243699976361315 5.59854875921577 6.190945623656613 2.502180370172252 2.3172807718799575 -0.9453172421996688
Ni 7.119231913621733 3.6416347576590433 6.132000335209482 0.6767104953957055 -0.16652906620490676 -0.0030017629408012818
Ni 1.9980112957888312 5.042254970315791 1.2981804420136365 -0.5686192616127175 -0.5288646074225989 0.2759655011618795
Ni 3.449082554246494 7.087118291766796 10.887916708168238 -1.5926045472382506 -0.38739196996568764 1.4675378619431887
Ni 7.167999099100666 6.965417749594555 2.9107635116846797 0.7420388842898704 -0.4999836627221906 -0.2040437753209131
Ni 2.3592363427730794 0.44888570510904285 10.684162207624613 1.708544587641696 0.1042777735741688 0.9019483882957305
Ni 1.8907715980300928 7.642348102990797 1.3388799011147228 0.7098252756718033 -0.635370498996338 1.4476614347342358
Ni 1.2037843426009152 6.714263506185124 12.868886782379823 -0.6074907418669344 1.7772791740039329 -1.3801481223736103
Ni 4.305677103206272 8.377926756282877 1.0318668297164746 -0.9021700173882334 0.3147135684643548 -0.5992806952523162
Ni 7.753445876322428 2.7845868616895006 4.164747246236191 0.9445947622113475 -1.0089098793496494 -0.6727677086978736
Ni 5.7086380667501695 6.166953389662311 11.278390964064094 0.5607290602313634 0.04056892256129787 0.884611953899812
Ni 7.748218507740452 8.322683184950169 12.013420974954562 -0.22224204349649468 -0.3329586307174717 -0.40994388712427465
Ni 2.5080821936524327 4.720471113181039 10.765503763552081 0.19703649076514454 -0.5861446720909905 -1.1159050518549813
Ni 0.40428283573408796 2.9519459241308614 1.350115505373045 -0.6746423000127671 -0.16930380073656648 -1.3172242291558798
Ni 4.331027527833909 3.750956150870781 11.977943333247577 -0.5111813312102229 -0.3110985974195868 0.5520413026493783
Ni 5.984134268990007 0.7492762093728156 0.15676924637245845 -0.7840987895743979 -2.2159026884510866 1.2388009547509697
Ni -0.14474074744603835 1.6654858901166014 7.695996633007519 0.7890839014938152 1.4217382871105706 -0.8973281159148998
Ni 2.5668137613663893 0.9282973923408689 7.96258225351054 -0.637797877490908 1.2267905605536549 1.4252033628410359
Ni 9.210447653826192 0.9938661731204549 5.420071592659434 -1.0167427451305069 -0.5653200220361554 -1.0781455737180208
Ni 8.404942537272914 5.172809657148123 4.611228361797525 0.5690167541614524 0.46537764261254694 -0.1410327217060152
Ni 1.727797974009717 2.220539913724572 12.142129891818568 0.07058320953520102 -0.18040479574573448 0.745549211435974
P 7.496906980674572 7.100894489675755 8.676325309297624 0.32541912780731697 -0.021192574917215115 0.31557745912654683
P 4.115456398701082 8.679680077169879 9.765363822935274 0.5086282257710659 1.6912863147818809 -1.3356603243738803
P 6.813676029040584 8.95662884023692 1.735752826234112 -0.3988446918873196 -1.3017045362537258 1.5865583410441708
P 5.531074070599216 5.262470593303755 13.382653846169974 1.2323505711399356 -0.4402183697380999 -1.0465055782152364
P 6.398946782924355 2.81713532659462 2.609255368262141 -1.5066003751622892 0.1475314420564814 -1.6771316205480538
P 9.440165060059623 3.974780045977277 6.583707894154813 -2.222631008313856 -2.632635830583053 2.3685328851867142
P 1.034491616383212 9.047307494169575 6.9886846283732345 -0.48610767607104666 -0.49165740224468224 -0.4114258709864398
P 2.8562989570503827 8.217145851472994 12.910079372003777 0.41046247863190605 0.49460080114372235 -0.34044748289534915
