# total energy = -340858.3316814075 ev
CRYSTAL
PRIMVEC
9.35781457188456 0.00000000000000 0.00000000000000
0.00000000000000 9.35781457188456 0.00000000000000
0.00000000000000 0.00000000000000 13.69610752834530
PRIMCOORD
 96 1
Ni 6.194929480672729 5.374511149978537 1.5931445587514774 3.4479010184579266 -2.6071536271515483 -2.486510267735163
Ni 6.225875773897542 6.899441918448107 13.06049891723821 -0.9920331581989689 -0.1680187633765558 -1.1646590813302329
Ni 0.335867877997271 4.300262095449141 10.348696858499924 0.6456754804667719 1.5426379855121368 1.1994003414661603
Ni 4.318799926376976 5.578324354222989 7.7099774610338265 -0.1352235712234058 -1.0538183098265657 1.1844835722553277
Ni 4.713316036466133 6.705753869712954 1.8824750884462653 -1.8211465648108442 3.075057378620059 1.1334654293362478
Ni 7.7179138236839515 8.367608182925629 6.156524073347677 1.2402484858307739 1.5465789724377559 -0.11702376038592749
Ni 1.9522553769095552 4.196147049056866 8.598676958275792 0.6210522826014531 1.360769203626366 0.06829235661849528
Ni 0.9215501057589598 4.8894581826320325 6.232276519154805 1.4821388996858151 1.2058126727504073 -1.8395520639012255
Ni 4.033199421623045 3.3996379349303765 8.98431811690005 0.03621707335050537 -0.6464108159708998 1.006717756794337
Ni 5.781042694147118 4.998121126970259 11.477571220580126 0.4768571040070561 -0.37475859747239326 -0.346829475162293
Ni 5.311046450658708 0.9010181245177866 11.513811229582766 1.2451037570405459 -1.3258168559208974 -0.6533967603704295
Ni 0.8689666733764795 0.02927030861139662 1.412849414420119 0.09324568412972328 -1.2191723818867646 -0.023943655299791023
Ni 8.26016175449887 3.8112133412241986 6.039996821532544 -1.6893037371342134 0.6241707736257767 1.2725081171954278
Ni 1.6958044649573427 9.376062442274 10.684511396953383 -1.0828578915920255 -1.6623004690724918 -0.9589129786062325
Ni 3.599502141369907 8.923172284063774 4.952430660898451 1.3395717436131447 1.206643910402451 0.5270938886754213
Ni 8.616320182117962 7.239289675038821 2.3913680245316664 -0.9352837692230667 2.0528584954709874 -1.0656826653643194
Ni 1.8341036084618765 5.166926746408534 12.64539748636407 -0.5759818726253758 0.9307943659931454 -0.8924365921505534
Ni 4.563085679214506 2.8464975078004637 12.420397253849194 -0.24174128987168686 2.136841780462178 -1.425459701826216
Ni 3.913045080828795 6.456620768858959 11.748316194492089 -0.2919734465543617 -0.22403178840706575 -0.40382877536547224
Ni 4.595547938421301 8.914890618051087 13.714597064079404 0.24916175070547414 0.42889060343010643 -1.0108510622364202
Ni 9.234853018396645 0.8209049370587798 12.230418642862547 0.1644608708219684 0.6873880297142098 0.2848538047904449
Ni 4.86882420121059 6.463124450077962 5.492495413543022 1.8479582856870498 1.1168725579745733 1.17571431070313
Ni 6.241980573002441 7.280435986290559 7.475691468988566 -1.4675481463558337 -3.591785864900756 0.05584256089091673
Ni 7.340616092649424 0.48389072676031747 3.0962379308287225 0.11843452469052507 0.5973739651479066 -0.7237791667487341
P 0.14439482400245993 8.640594353459106 7.871495214380937 -0.6653367063411252 -0.3915047065824806 0.22018516096746593
P 7.438798284519615 8.400154662464757 10.944901948895813 -0.20855888958244725 0.22298226409662888 0.9237091770115898
P 9.058242981495566 9.075236772997307 3.9323989131987847 1.0226858500878195 -1.4221900299360088 1.169080093216064
P 4.018021046173802 4.805471795667205 13.351061871129462 -0.3848087826195437 0.35456026814764746 -0.831979672416077
P 9.03411853518968 4.63150066251254 4.2793211777054205 -0.8135698024503214 -1.5255586614323469 -0.4223479172155823
P 9.15788499245952 4.39344721426761 8.0627614606708 1.3629237880755238 0.7146041851176855 -0.4635652719941564
P 6.539746236871055 7.8623704092634545 1.1221545153415458 0.9707989314105409 0.8284726877040829 1.5481422031598175
P 1.2810193282201852 2.809094322430166 11.564349979452507 0.8128118412383744 -0.7916004972680819 -0.7765487451412819
Ni 1.211574985304755 2.710313230418944 6.9995602421804755 -0.2902592920767324 -0.9831368841506035 -0.1637129369123503
Ni 1.0846923757386158 2.071595587824591 9.385176018013839 -0.2135972233373031 0.11819181255209968 0.9394044762596597
Ni 5.220032344851476 -0.11118393961937652 2.3288316204304356 1.8311802948977627 -1.2111225149990947 0.0433822236403769
Ni 8.814949157016619 2.5676627030772354 2.513112258044058 1.150394600991419 -0.3604352388711857 -0.575010509851042
Ni 3.1109961403977735 4.3137279908076245 10.948996928610109 -0.3684359976884751 -0.8470627920014445 -0.5998123993860702
Ni 1.4564222070245008 8.114292138899124 6.245918341429716 -0.5470932146154835 0.8291864259416558 0.41480378631973724
Ni 6.8983564119424905 0.5502301467570926 13.181832342685112 -0.404058117767459 -0.8090611159466904 0.42184989453324123
Ni 8.958498034569873 0.1634108392616495 9.789238034882137 -0.27275393620311733 -0.29870356618934363 0.10325293185408024
Ni 3.6911900098357995 5.604460730690149 3.9142513031440895 -1.7322740700481523 -1.0576189145195785 -1.2443969607815086
Ni 1.8990000534313562 8.13386868725906 3.9983733784221194 -2.2462496761740605 -2.8066717466879663 -2.201766506160021
Ni 1.3795290436050032 0.9409750575206968 3.4293405745810794 0.8508623682531928 2.194316734750195 0.943776122964794
Ni 3.316727696656463 6.992234009049025 0.08790824710710733 -1.5590971595094245 -1.0335731864242845 0.6446496103054188
Ni 7.109945960205635 2.9275736143924713 0.7715864462263863 -0.6035680097737605 -0.7919231707148232 1.0831360849540765
Ni 0.1564065149560034 3.525706414617302 13.20289678358292 0.04257309747552023 0.09806316012302466 1.3917607669118741
Ni 4.707663916385157 7.242630414888008 9.791772131103874 0.7799456866379729 0.34741954333780817 -1.5643578936877316
Ni 7.650172603044577 2.547590190538009 12.1469001466329 -1.4457953280597746 0.9104605395317998 -1.718583459934937
Ni 8.778781203187197 6.831972074435138 4.761465736242046 0.9698602216463555 0.3161654704195329 0.036293178004079434
Ni 1.5399781345129626 3.3906076437414003 4.496130515010234 0.27711221317181306 -0.7089320744335726 -0.7236045888440829
Ni 7.9579230552019355 6.511944169386654 8.714860778291301 1.7375630863612335 -0.1009404816708197 1.1115781423448534
Ni 1.3535704656172114 8.501181630004844 12.940411016928355 1.7234760121405477 -1.1437696394757335 -0.31285080422400313
Ni 8.555569249062179 1.4183733324396552 7.780992045256521 -0.6503654297432734 -0.007573955692515988 -0.7679779727531355
Ni 8.546698040723165 8.105327352413074 13.537986091396853 -1.0064040822086604 -0.16059547432929117 0.8166916359087548
Ni 7.024471680702934 3.9961518332114845 3.435627154498959 1.8343910885255763 -0.10569470852635346 -1.305701316117945
Ni 5.358733874388265 9.041913594837782 6.532440590931953 1.0266183523730061 1.3182683541496782 -2.0158708625030446
P 7.087646287766951 6.021173577256248 5.770854841279307 -0.7530282934218386 -0.459351491023125 0.795049632158947
P 0.9433519424554115 6.94769081105988 11.341596558247966 0.40371153306131763 0.03749311184945155 0.24589876368348618
P 2.7444037493841655 6.361011976032257 5.876274367041264 -1.003352696976846 -0.7538104230035018 -0.3788299393282895
P 5.943428852698723 2.9667079954829343 10.654777876514158 -0.44427942718135094 -1.3648770551471525 -0.6497316528140166
P 3.6350805528730024 3.328686983847666 3.7282310477770673 -0.4012455880193283 2.4276962829207482 1.976060672484642
P 6.932531151240045 2.195549201388503 6.3827286566149075 -1.2411905380290686 -1.2640327327345648 -0.23482013727182138
P 2.0263786271767863 1.1831927333087302 5.8249682763658255 0.657766350193035 -1.0864553791352967 -0.8380011960198084
P 4.830625601590487 9.257246268982366 8.488354873390618 -2.585162724702754 -0.15366995085405147 2.0627883529901894
Ni 4.1999743952706385 4.4250017654481555 1.7991343906959862 -1.2317741298111753 -1.6178833764096976 -0.1872470154785485
Ni 6.40928894208814 6.380794396315673 3.6070071087621964 0.4405395005229445 0.5667277010169595 0.9324234169561361
Ni 5.978277354654937 1.7464583159479403 8.659761029535025 -0.038435678268378966 0.5916512037315165 0.5649754942125431
Ni 3.820131338636731 1.4478691643854085 2.947060327731252 -1.8922159699538441 -0.5667829797349272 0.11276858465399933
Ni 1.684865179568832 5.145927810213652 1.2394622089029592 1.487354896669116 -3.763490818879647 -1.5636981486165458
Ni 2.245697730385106 6.4695626265940405 9.614585652817052 0.9957931394620334 0.10184139621853429 1.7257609515199828
Ni 4.04163081267099 1.6247880091717075 6.818607243475454 -0.5094149833384194 -0.4206137081332949 0.431080926213206
Ni 4.321850573970351 1.90784318832626 0.6157891250075873 2.382726145967961 -0.6161679579259582 2.755228600416326
Ni 5.585464366841837 3.9004681778671544 4.998312026390212 -1.4958215393792305 -0.10080884118896187 1.1399626070248174
Ni 3.1844924170798636 8.438240968308417 1.8879129145705285 -2.380062225982553 1.0271413147560118 0.6834285308458294
Ni 3.4787489004346277 3.7331785244108615 6.228168438499924 -1.561483400353414 1.3531749362188759 -0.9237945376365445
Ni 5.438247225924771 3.55965656636197 7.378955995271551 3.0344113229639222 0.775389177615542 -1.0707150855819043
Ni 3.5851098223557676 7.65459884939938 7.408923461078365 -0.6542997318006731 1.3611335289443205 0.7529452467897291
Ni 0.9143183865560162 6.354246276001554 7.862908483608912 -0.663452859054851 1.8629663290601075 0.407821184354317
Ni 8.23506409546381 6.170907970328583 12.133957353116347 1.5479835660947663 0.4312843004732637 -1.7574901643024636
Ni 8.905710601826854 1.8639363217369596 4.867775190182316 -0.23625506994613504 -0.9607811421632227 0.6419936607398105
Ni 2.5464298215147627 0.3908880853285692 8.468180360671122 -0.12812732649825676 -0.6016921329072863 -1.2039092850801072
Ni 2.331059716111363 1.6793253532642998 13.565309974549901 -2.2942709412483455 -0.12168851285144848 -1.0467277215283717
Ni 3.4236781609039295 1.545779979629196 10.340643523166005 -0.23278922288472165 1.4400108601675135 -0.5760821456486659
Ni 8.436098028741293 5.006430866427057 1.711259831721812 1.1830650946412462 -0.9866227858166751 -1.0440018379567764
Ni 0.865871108272528 5.746362632855569 3.151433129294978 1.8364443715101793 0.7605937644739224 1.677516000470666
Ni 5.678883431027895 1.2188553651441574 4.689273003148168 -0.027263720811959498 1.1958249654100759 0.3320088652096927
Ni 7.756814259406825 3.6599442665404722 9.336074628482569 -2.600066381287464 -0.7134525880117454 0.2787939717496102
Ni 6.880024452938134 8.994460116475816 8.761304548446748 1.7708190202008858 -0.6963046154775492 1.230421729548339
P 1.416679567978303 7.066347901501553 1.5299783737206936 -0.2755667230615641 4.4999771487824045 -0.4635351900871694
P 5.709137245964641 2.450493505173435 2.6650981413340795 0.9184127044993409 -0.7219002045584664 -0.93946952516964
P 6.129031749529965 5.524282974309687 9.107568958579723 -1.381537032301337 -0.12288124760796904 0.026949789115966488
P 7.4682847586506655 4.565780729849144 13.183599098101153 -0.46174673072817896 0.5666150866984951 0.7348680775730442
P 8.516126060086496 1.0202638215043163 0.7985622186724597 -0.5612571648206915 0.8596709676837583 -0.24185853217584152
P 1.4664257109426513 2.934423534755508 1.4156436578906144 -0.5672918010505457 0.07261746635641042 0.7570986068364702
P 5.8381627950979045 8.370920849330705 4.41283099164465 -0.30413630716914075 0.243770918707206 -0.06921126888833888
P 3.125341670338395 9.638642722857073 12.072255666086678 2.510595333708825 -0.41675705339136615 2.004165658250974
