# total energy = -340888.58949833846 ev
CRYSTAL
PRIMVEC
9.06631275466915 0.00000000000000 0.00000000000000

0.00000000000000 9.06631275466915 0.00000000000000

0.00000000000000 0.00000000000000 13.26946515339559

PRIMCOORD
 96 1
Ni 6.489022905127318 2.1906115350359814 11.467219146598916 -0.8076038146748737 -1.1041358271341952 0.004534397535243804
Ni 4.4373979434111295 -0.0629981802589635 5.861242403255364 0.6400100546508785 1.7077871406503815 0.18500629907348784
Ni 2.6460486859913925 1.148556755019217 4.6263063542176 -0.29397453614479047 0.9257511471422831 1.1521887167773641
Ni 3.630477982640864 4.33151247767063 4.696156853596922 -2.328502865848022 0.28898402490873454 0.37153546254940534
Ni 5.23854266300692 4.061227564180111 2.5776995679911807 -0.02010525539030731 1.455123804549552 0.4436258527577521
Ni 7.275743121255934 6.252437475852695 2.5446718975445615 -0.02274089324094148 -1.575021801159481 0.2945900582416023
Ni 5.167308644313272 5.016635593954393 11.394184558207858 -0.17201322924792956 -1.4559702117102473 0.296588833839186
Ni 5.836112397780622 8.060822334790233 12.747444147346032 -0.971314694704695 1.031982959119029 -1.4057377979172565
Ni 1.8563093877417407 6.694365820921186 0.22155076296436882 0.4964725642451386 -0.29420053611266755 0.21178536693954494
Ni 2.470543005213536 1.4948536339835221 0.5717479696417969 0.057663159039423276 1.4832886970195422 0.2799537963856663
Ni 0.6656078782491343 8.69684230162194 4.756293705575408 -0.46553962211170785 -0.35526603596542045 0.1251924122396489
Ni 8.8516042589976 2.3220005383334654 1.3225764671495126 -0.4023496197167844 1.0775992142962474 0.678031013979342
Ni 6.752263293668752 0.7156983491515818 4.997147554857792 0.6004322923582563 -0.5896123189246169 -1.2315021070967112
Ni 0.8546540970082768 7.215841993407019 2.349133292278289 -1.070492685158453 0.5231084216651121 1.1488228856289249
Ni 7.578440102562387 4.137801641039796 4.076884179539926 1.4916524956032053 -2.1178819515302236 -1.2955572857054076
Ni 7.619147846476664 4.045941761008737 12.422156634745324 0.19388611806162093 0.5560213703430489 1.1911607271651872
Ni 7.729421407552244 8.777922335881492 7.105692640815097 0.08732494776991412 -0.714455318244647 -0.11081788868553172
Ni 7.311228669068959 0.5437403165237601 0.9436236365582955 -1.0947101629449212 0.44438792773475727 -1.5300969156223327
Ni 1.6892807093157431 6.484997462299269 9.572552003188461 -0.24230153325053108 -0.22450924226411656 -1.9965194545596263
Ni 9.2376659853579 5.003117721754797 1.5209065900886596 -1.2609322394323703 -0.8617692449736835 -0.6805373253409635
Ni 6.307542524296119 1.7387737102128566 6.902457642718351 0.08869843107867306 1.459228827856861 1.4494475801003812
Ni 3.442506121933802 4.544860947557217 0.4821592009360218 0.08856087705954424 0.03708173534364581 -0.9850150750099229
Ni 5.89420026309438 5.291834448915187 4.8206110343286985 -1.5712080838403455 4.147351892873941 -0.2721828941909958
Ni 4.974948688271131 2.892180942513619 9.161252382232577 1.7295738975081698 -0.06646250249860812 0.26795342949068046
P 0.25904993882268545 5.689691448066685 12.351178286069134 -0.5051436096565752 0.07935787040403752 -0.12365952053489025
P 4.064047187422281 6.359447164364991 12.7354485090447 -0.14197965900031675 0.18607382110605372 -1.6204701633002672
P 2.3551560437888135 8.455252267750284 1.4302489031184096 0.00988126366945395 1.3583695930459379 0.45759311357112165
P 6.067321503638506 7.655268036176993 5.824658018346034 1.1453968906665113 -0.6689604191366414 2.190521272263505
P 4.888229407527242 1.254496618635771 12.747829465634752 -0.6275949688159772 -1.4611828662594384 -0.5607979657960858
P 3.851922669746926 6.078300808288882 8.240231969806283 0.9623207187362007 0.19924403993942463 -0.3451677711891539
P 4.6976827140202575 1.118973376758129 3.928491306819005 0.7446842923325174 0.14691771973188247 -0.7107876395850726
P -0.01536286682911862 5.570895553075867 3.770877087475544 2.0881252890930813 0.9564850858910302 -0.7904141902694646
Ni 1.2331635849096478 0.9174836438514706 2.665994573878121 1.342513599850288 -1.1774436346894108 -1.2392120741464592
Ni 1.9683327471637468 6.393182913831589 4.611643406727053 -0.10356789199133777 0.19664876840842263 0.11058417540817084
Ni 5.844716328509942 5.469089928039471 9.00175327648382 0.8674377561133705 -0.16499591738983196 0.7934612046259044
Ni 8.714557876590426 2.2703769539575425 10.050080131609693 0.6139987181887813 -0.1696557847593465 1.0073301935673553
Ni 2.425719155344452 5.24448109780956 6.895597163916584 -0.8354388346092708 0.18720202117322599 0.8392425246260772
Ni 0.8008255853896028 -0.2772813869824226 8.957552282295563 -0.37231784924138456 2.010145787093809 0.9119438089455456
Ni 1.7430530097958274 1.2298906460336894 11.23104986107611 -0.5835440012433499 -0.07571873098955346 0.5616687984368134
Ni 4.147321269349371 7.171009077225259 1.4276214857049667 -0.2063467124224769 -1.1103321857528943 0.5035531252410038
Ni 5.579254693362942 7.763982191472338 8.144850733931948 -0.29466436312296346 0.8218112165235072 -0.2187718255597071
Ni 5.429696799463183 3.0773422462911872 4.934569144875717 0.47084406504375687 -3.130790924736937 -0.6708231833769931
Ni 0.6333472178548866 7.398691387452262 7.000279529965007 0.2098346709710773 -0.2225060957911587 -0.5499376260428142
Ni 4.875545636093818 4.443789693847559 7.022957097860949 -0.2773808934521675 -0.2568992285590479 -0.12749612067216107
Ni 8.269229664268515 7.252270437738326 9.304403112964359 -1.2533264020606545 -0.8599774431805834 -0.2742184365637858
Ni 4.52095308103117 0.5414157139536887 10.362377431408534 0.21957400974602828 -0.6212034634673366 1.0716787350467543
Ni 7.822450841918479 7.0591942429947965 4.815037971926893 1.1811861324509787 0.3311408607824426 0.46663851160284153
Ni 7.278952595943163 6.142018853774302 7.095753242228634 0.19454766290501976 -0.6603731916882627 0.18029398119948303
Ni 2.3865617508977346 5.3093324323794535 2.34386485798239 0.22114803910136752 -0.043380423868164 1.5899586249749713
Ni 2.417314683493999 5.5580757869523065 11.441769100286718 -0.020657014128719266 -1.8404534926695721 1.176977750796586
Ni 1.2387121682672286 3.032255473354506 3.8749628901499 -0.3917888134818027 1.4168930432031275 0.4599477298462272
Ni 3.4589705457530284 2.619692915042884 2.718502123739933 -0.42689491315631645 -0.40237070276270703 -0.3195878658375206
Ni 1.269646427117009 3.2603095024012156 8.256075351207219 -1.0319911866491454 0.9159950961967837 -0.5543498961778969
Ni 3.85040859553007 2.141635313961388 6.611060006899731 -1.2977766619542295 1.6286658117371822 -0.5996972139644446
Ni 3.987971757759764 6.7765156800764785 6.075955353199656 0.6987548767902546 -0.8444528651824231 -0.3123869772137072
Ni 1.1038688998402701 7.871653720809967 11.510438259124387 -1.0129187433987263 -0.8145321663635907 -0.2467891367082395
P 0.30486111014216233 5.562418550724008 8.103596291363322 -0.7266474894354646 -0.3228809347664955 0.8186055651020161
P 8.4188147571063 1.5278912773740847 7.9931676963409855 0.9650538013966476 -0.2264054308455649 -0.0409972683479681
P 1.8558470057952754 3.3230211871796245 10.502529025907165 -1.083243042845586 -0.36723812072563206 0.2651858940478723
P 4.148418293183141 5.977383681894712 3.454984088069486 -0.24115353568901696 1.003102014418621 0.38496047770605957
P 6.793288358526682 3.921978067792721 10.227215028775387 0.1597863481644345 0.1984922493750646 -0.05250681164946441
P 6.226607551039382 8.037902696345848 10.318123852606757 0.8368007479538039 -0.14536528764309806 -0.2601002519948488
P 2.403624551353563 8.36858738488245 6.047465372247267 -1.0903346595850447 -0.24460061369735292 -1.6333845573690904
P 7.012475533776473 3.8853954961459265 1.4764272601012556 0.876302148482536 0.14358351315232692 -0.43276962676953856
Ni 5.159212427093797 3.141749331539968 0.22464509548061445 1.8141557353153082 0.48224999288785325 0.8736832228024503
Ni 1.3368550029826072 1.064938153210447 6.946325903231407 0.038230247125792226 0.42906672399665463 -0.1879070176600506
Ni 6.69706758209857 1.0428798144702607 9.323325414149991 -0.38288251213110835 -1.0115249483749933 -0.7904542994787805
Ni 2.7677820662891652 1.6894439029439074 9.062168464261452 0.11900145293758861 -0.8625305486197404 -0.20404120421775185
Ni 6.640548188877723 1.957843023397863 2.9039426699479156 0.32419502559222874 0.25577771336009497 -0.7721606433759154
Ni 4.239879255456466 6.877432806470647 10.221442507494716 -0.12036850848844433 1.1393761383937282 0.756534249692568
Ni 8.164803874868817 7.184499750486828 0.27763315991424314 0.08675159176494737 -0.4074928544806208 0.4454688195037619
Ni 7.8919985264544295 3.67688843722821 8.175025235779497 -0.9942599906469586 1.0301855008989742 -0.20487244186979556
Ni 3.17455125080096 8.849564338645548 12.617668947704837 1.3833118648135725 -1.9282795484456212 -1.0512487493271765
Ni -0.22259338892208416 4.751817667007373 10.348006419186147 1.2252540693044705 0.45694133891973565 -0.534709239128834
Ni 8.543730413153273 2.5641254846529944 5.948024241556716 0.5495344770671245 -0.3250658582329563 -0.32419682536444167
Ni 3.7652759195044436 2.8294601914225344 11.54479323774674 -0.2340200099680292 0.020110397596629883 -0.19191279638533398
Ni 0.9834138696297832 3.2549513116098265 12.655818178182008 0.0660218154167637 0.5524120557252358 -1.5886357923984897
Ni 2.944638627655714 8.137224151709077 8.176472219282553 1.786555714209852 0.024097664379152048 -1.8915518540072842
Ni 5.615111959995674 7.910720462129927 3.7885518640369877 -0.11595289591925191 -0.4794588032959614 -1.2356971190146655
Ni 3.3442726240916656 8.241622742170748 3.496796108867674 -1.2464469013320016 -0.42969021651326644 -0.08446279573077067
Ni 3.289639023907382 4.318991899865371 9.34196847290521 -0.08613632677845165 1.1450032547725184 -0.09908183119552615
Ni 7.254809005287545 6.372729312435017 11.395776602713726 0.001903901890932205 0.2437094693416513 -0.27419298264248904
Ni 0.47674298574350754 -0.06475432502426316 0.23599611895069797 0.6948997647102226 1.0505144422643133 0.13445943936387164
Ni 4.690339000752871 0.43820662371508107 1.5997798838429236 0.04686863952708057 1.0572522752087792 0.16377927137391146
Ni 6.052715673917815 5.853918635875864 0.3728983469863274 -0.0005556153931538818 -1.4749642363142468 0.5394436684900258
Ni 8.014865195836675 -0.01739553413102974 11.144572650880665 0.39236165526613714 -0.30645955598567864 0.5378688678037381
Ni 0.3065800830254912 5.066427783169807 5.9298054862347245 -1.0626438785379957 -1.0146385543033105 -0.5392531497457745
Ni 7.936786111072811 8.646895985091039 2.955362262288633 0.45823331825828173 0.1945216947630908 0.22431975196112983
P 8.74559186487964 1.4651795925956759 3.8801642337319984 -2.1994342584824187 0.5435358362815285 1.0981922079562505
P 1.8027456124531993 3.4263771516835795 1.372209089261833 -0.11382556516360395 -0.4890351341304868 1.5249637081608254
P 4.649758185216055 1.0246293270539044 8.127467892638665 0.8000236883347706 -1.5042478157697126 0.8645534925870401
P 8.400827192757543 1.6799605398850357 12.484443109459239 0.5143180770669916 -0.016067080765191685 0.031134773731591542
P 6.236217842475715 7.8294319026788335 1.5903590783415147 1.25757643558626 0.22669982215753215 0.12110718642668175
P 2.0101556475371454 3.3493769581281327 6.093404378575473 -0.46687479598336373 -1.6777378866734847 -1.1859221044740673
P 6.875401952431271 4.025977740496657 6.211065171219283 0.7311597754835214 -0.19326905330291233 0.954966849474291
P 2.65571337530378 8.443411663395707 10.183173601690225 -1.300921121120482 1.5421877853485957 2.191557169727187
