# total energy = -340864.9368607522 ev
CRYSTAL
PRIMVEC
9.28761412757491 0.00000000000000 0.00000000000000
0.00000000000000 9.28761412757491 0.00000000000000
0.00000000000000 0.00000000000000 13.59336208212966
PRIMCOORD
 96 1
Ni 1.0217582850483145 0.20525441309582268 13.458230149262898 0.1016616761075604 1.1075229984388733 -0.8761514818372846
Ni 6.487621320253869 5.385079368153931 0.43936079925394333 0.9990728386545698 -1.0202091064125525 0.07380120225186644
Ni 8.23886596364924 0.4044579456347205 1.2736411645079766 -0.4282933361657398 -0.3488817297056314 -0.601797548136899
Ni 6.56661247779285 2.5276148774927845 6.462338577272962 -0.09954720086771889 -0.7307064899961868 0.0066542720917240235
Ni 2.222786096588976 7.148490785961538 9.127153804633922 -0.37027227956626557 0.9737978661378649 -0.8320424073332122
Ni 4.833961637735872 3.363555868139877 8.026539961211832 -1.1539990305132255 1.0839588379656881 -2.178288734753055
Ni 8.742700450912572 5.416118574326214 13.240451388613716 0.8071230183837131 0.7218783501815955 -0.10237001502849467
Ni 6.658727033991745 6.096213401128027 5.219701326003859 -1.6576364879379193 1.7420578889077933 0.037975965023141045
Ni 5.645559791944438 8.463533347643121 5.612115093731871 0.2859583507085333 0.05426570332210009 -0.7924191365146352
Ni 5.143239185772093 3.8829378213315167 2.3830383045420143 0.6584392078903435 0.3845848395341957 -0.047411656514744153
Ni 4.127341385192573 5.758525041697126 9.463576262269108 0.778640337562988 -0.529422793918914 -0.9104507693397869
Ni 2.3905668444951123 5.2023176987768505 7.178981094143163 1.0877553288936428 0.6463359968689063 2.416336120712922
Ni 7.147942816732285 7.975738569853018 2.83432440024276 0.059112232781124006 -0.6272609825153261 0.05708954592414038
Ni 3.283710250107823 4.146167378882346 11.216576264720901 -0.737119592611382 -0.4298599093219113 -1.1846933742732886
Ni 8.898156534967535 2.8075064146585382 9.80459330257737 -0.9306627255112876 0.2985667835011632 0.9547575616769622
Ni 4.223273150768133 3.5389710347993404 13.27018011244282 0.536868708673998 0.21557568721991258 2.4059786887379984
Ni 1.9294368066573224 3.7274167239781675 5.605644413019654 -0.15430218512141167 -0.6198101826642357 -2.338123933877554
Ni 7.265319683161167 1.2679915088782339 12.60826486139254 -1.2906853023250868 -0.4545535554138494 0.44443909268766685
Ni 8.856083643297742 0.24232592459692118 9.392632822308906 -0.45419102986810805 -0.6802673595090284 0.9057698189243497
Ni 8.872039764244477 6.253712760275122 2.0318541131275873 -2.788406372719875 -0.745407029431155 -0.6996092543707499
Ni 2.946681311274838 9.008001146397698 11.728012664088368 -0.7993024938980299 0.9608716449945 1.0059880777171644
Ni 4.943267567550835 8.79722803303031 3.112390921246678 -0.14091367962964763 0.3715745433174568 0.1642490119214784
Ni 3.089896320005124 6.5696402399748255 11.486472471640509 0.40157391789302455 0.7341576817695807 0.9238680711869572
Ni 4.242591388002828 1.5709627669710142 9.317570325515252 0.036510436221208094 -1.040412577943621 0.526985388122015
P 5.775363485979099 4.499672545049153 6.222660551443162 0.4072378010470213 -0.8908517641619367 0.7815875931167701
P 5.142236123454138 7.434595736930181 8.127878975690296 0.02497749588094408 -1.1956321326729795 -0.02894959315481466
P 4.577224122409587 1.5471028864633551 12.921211016980543 -0.361405573204255 -2.0380034327360255 0.10439193055452989
P 8.731991831906994 1.723103172808292 8.015965083848648 0.4054177171191469 -0.35177473498271034 -2.857481373140666
P 7.9824256519727195 8.333163109151094 4.8261739733506355 -0.37555692500397253 -0.9509348454967623 1.6903149520075467
P 6.789905294906569 0.15962436524291101 10.662891437778 -0.18774940903626378 0.10238312765461723 -0.5471112123376126
P 8.03708326068723 5.112023514932762 9.94676624101067 -0.3765442286179064 -1.6660817904917948 1.739961925610713
P 7.642638291765357 7.598902917179695 0.7126460565422742 -0.4448090744325759 -0.35925947339552966 -1.247401551935787
Ni 5.873524278927892 9.183258423618224 0.42354213499522586 -0.8888990113109401 0.3683547508285785 1.0368297456883693
Ni 6.44907772192503 6.095154613125742 10.80621975539976 -1.6547565952869632 -0.4825901498360915 0.7042570375554065
Ni 1.8788285976708545 2.0628905330156546 10.058924397101968 0.2743963569025468 1.2520801883583792 0.17894620892233698
Ni 3.8259861719453876 3.0097256354811406 4.298860397755904 0.052991978815999055 2.2543998160850207 0.9456849099517327
Ni 1.1281200412077983 4.367351907605547 1.8217692119616855 -0.6781497989453934 0.4356742020108432 0.7799346308943794
Ni 6.822430519327675 8.785990020023588 7.646538160907111 0.24857502496406864 -1.0775789025812732 0.514642807396262
Ni 0.46912574477786173 3.8518057390186815 11.610240145300734 2.769815239981249 0.9704670019924189 0.7879682998321332
Ni 7.131308699959526 3.7372337320344524 4.454218033101883 0.5604778634525057 0.4042568640418263 -0.9146846049154763
Ni 5.669363946767766 6.951101124447609 12.819424339504623 -0.9280430285002533 3.611289996371955 -0.9622129895137428
Ni 5.854596121483514 1.6709996579589466 4.468042646622962 0.09488733349820433 -0.8147440252640807 -1.5315099939197754
Ni 5.685765873189146 2.0750665950419456 11.175361548589803 -0.683307688997249 0.3165526785556226 -1.000349134263832
Ni 8.464880051681115 2.61900499979538 2.1673390406797792 0.5325783088287602 1.6066947067827297 0.9902246442353204
Ni 4.397573803740979 8.23068357566666 10.147403781159683 1.3211374481673568 -0.2538074770076016 -1.3134609054587056
Ni 1.0089228024241086 8.842867368497277 5.063472512459508 -0.5704822829633852 -0.3979728308053275 -0.03399384044694145
Ni 0.7418110221982304 7.4323388467147815 0.567029270817328 0.8855447501267265 -1.1855986596963775 -1.0032861054049689
Ni 7.71319629574227 7.613698086369535 9.710214426071833 -0.045217477076902775 -0.19776257029789168 -0.44773164739600957
Ni 8.959556951486078 7.943622000450338 7.289780472298194 -0.47706947712817843 -2.599475284670685 -0.9697859167649943
Ni 1.0965328658062612 0.23733290328087692 7.568743248058432 1.8042798709624928 1.751604394945648 -0.055274089981956424
Ni 3.780569739215744 1.58116056720356 2.6195362513193343 0.8575099554766973 -0.19439339671534264 0.5561013316513649
Ni 2.9370036174293803 5.349238465515138 3.8290873062783994 -0.41286851697023735 -0.6439857514691748 -0.11084077150366717
Ni 3.2037346054789975 0.4429643935073384 0.859458158196117 0.27519596998570667 -0.7460333501612442 -1.4197549381319547
Ni 0.9707599962715309 8.956956419550638 2.410470201415281 -0.060802218889037224 -2.1884857298907145 -0.5171303497048062
Ni 9.014558201920629 2.294960145411483 5.555349196626844 0.12029883159277345 0.10876871946598689 0.1729912768904827
Ni 0.46020684900070913 6.505193486046197 10.845450637168678 0.135925739496753 -0.24238175166916323 1.4948180378153804
P 7.431298633940606 4.718702347311561 2.2828825320941766 -0.9097617136925623 -1.606123407660292 0.6830179256709721
P 0.264290203075926 3.923246066330832 3.9651294906738994 0.378311090710342 -0.9740768308308643 0.37258498685984226
P 1.847473612620696 1.5974324670281685 5.591520738326 -1.2988439268764793 -0.7303318802655873 -0.2006666313185641
P 4.940286243439135 5.11481908676336 12.174500778368225 0.9587481708935941 0.8294890447837392 -1.482825898450511
P 8.855730713963649 2.2224517424829906 -0.0003891510289104413 1.4373569674844342 0.6927837468084843 -0.17181962517988472
P 6.362721486440321 1.6218310291510258 2.2332801717098807 -0.37987072188797805 -0.6940836965668304 0.3925064083741176
P 3.11221445657963 3.433231548781551 1.7706984797952718 -0.023412208276353225 0.6909670053147197 -0.08539327796484003
P 3.573260905890924 7.842600622372561 13.68362196715308 0.9328841586426384 -1.523419503602157 -0.29959753875852274
Ni 1.0641562432100367 3.293118603145682 7.7368927142425585 0.8790396020183572 -1.3484664749996131 1.9068524889200966
Ni 3.756078300952335 0.9144101842761745 5.084909254460181 0.2864458318679131 -1.8583655970633026 0.049889428631275365
Ni 1.500525501976819 2.041027489529851 1.339494063204554 -0.5272209011715887 0.32175582002311687 -2.073001031857133
Ni 5.2373598666069 6.786728930899709 1.57689755235225 -0.6686868537602807 1.3914252379493264 0.6269889598008621
Ni 3.405470870370732 8.612265199122161 7.186593222622758 0.026415770989367413 -0.37696228999193143 0.748594168909885
Ni 8.077939474915798 0.8586538508189419 3.7320438133004394 0.5146291805495072 -0.07950673727707597 0.0958620387066478
Ni 6.6206571039797195 1.5765353354040994 8.604162684620455 -0.1357125950446824 0.6671069108676705 1.890229792761751
Ni 3.0433932364310294 1.9035708015137522 7.262485103351538 0.4836075353570123 0.09889105534095873 0.7683137588259994
Ni 4.2854165764110865 6.048019971795897 6.204567350502339 0.8875352981941941 0.3216830578036525 0.3372893968823417
Ni 8.181737849596063 8.316733319887549 12.191886263118045 -0.40166236384177273 -0.9737379594342068 0.45438283416394004
Ni 2.9234344132948182 7.309872367783681 2.347587481693538 0.2058795429780712 1.738630351283483 -0.23470752295335706
Ni 1.3562702804723565 1.4788203479299526 3.409269504519285 -0.011709832237760478 1.8966004721747853 3.4924818903920944
Ni 7.56065652250062 3.700816997324241 11.863593254065327 -1.4291610619372033 0.16114671884707085 -0.4617842688343337
Ni 0.23082321458962804 4.9830835690052275 6.505130330270621 -1.926216495269005 1.4346400827739034 -1.622737362067889
Ni 0.007491389496877373 1.2355777358257887 11.530664796837687 0.7800107355479534 1.6038176423452508 0.467803221334904
Ni 3.127687621595496 5.499252007733789 0.9430411121239601 -0.012079813982669519 -0.25730546285853106 -1.3563224807089223
Ni 6.215828582544199 3.981953074773384 9.527560493017791 0.677731223350736 0.09974851824524757 1.6820002614942646
Ni 8.04302733368252 3.670260747082825 7.8992792159054686 -1.4680055456082266 1.8885387782125733 -1.4197582805660645
Ni 7.1971300207683155 5.910888350271728 7.980296002069876 -1.8954694438941353 0.919684629233229 -0.9632049211133671
Ni 6.7589403896467255 3.209418625280744 0.5031388449706021 -0.10488506814086451 -2.086484925276181 0.5709566514966424
Ni 8.663644280075205 5.824104884540483 4.485455994214947 1.4957369500852242 0.8690732348342646 -1.2026885252991288
Ni 3.3659056344958285 7.755826444255371 4.814945247957969 -0.7443929863443438 -0.12408632365966371 -0.39122908432359077
Ni 0.14213764549989005 5.719071257190885 8.681428203467991 2.7936830477377823 0.29288901639009557 -1.376387112669281
Ni 2.3193587075343403 2.4378593752638946 12.541140488331813 -0.4885911046145327 -1.704195052423749 0.2763678788066208
P 0.8208634779899754 8.628750714070037 11.097810899990774 0.5610859293501498 -0.8618677182247608 0.5364403628873278
P 4.808912942629155 6.420341844038421 3.614502556102781 0.17066391430888675 0.8141092198935593 1.085670421340156
P 1.9655191872615483 4.485221017579352 9.531298757674985 -0.058845095162666394 0.3706119222938714 -0.9523584653171663
P 2.49848891981586 0.18139174630394686 9.416720249360917 0.8635685029659516 -1.2623967397930387 -0.7008644669340897
P 5.07589469625826 0.8138773346976976 7.0760520401384595 0.3325508537560918 1.3712955570789866 -0.34153403109130853
P 1.6693557502711867 5.577212240112649 12.755507908338542 -1.3506272300963578 -0.6797073732405005 0.3986660002176102
P 1.8533898227738212 7.135200210248629 6.480050986037522 -0.5754540251463638 0.7017576681723204 0.06810518030835366
P 1.0887498452280522 6.667615280642516 3.238944879123445 2.3717537061168574 1.1909365269695231 1.5536471921384467
