# total energy = -340870.71218132594 ev
CRYSTAL
PRIMVEC
9.27530670041761 0.00000000000000 0.00000000000000

0.00000000000000 9.27530670041761 0.00000000000000

0.00000000000000 0.00000000000000 13.57534891842781

PRIMCOORD
 96 1
Ni 7.267351009755259 7.545712231675125 2.4797142235561593 -0.38684612476454666 -0.3549929848096918 -0.6373692745939217
Ni 7.936647847998422 4.308518976378867 12.433430502017957 0.751305654303777 0.15042958953988286 0.4096299554282816
Ni 3.6103759350711355 0.3726725379200381 2.8487053923455457 0.20072936623569945 -1.345526675644999 0.549341387219712
Ni 6.887313878512627 5.252643144783824 8.82711251351941 0.07590050798305638 -0.4747102328673824 -1.0125235648428368
Ni 5.926559085639898 0.6663862470786411 1.9625203532213402 0.18126277287065556 -1.1823616408163187 -2.408675518843871
Ni 6.654160500238007 3.5285491815548564 10.66335513458568 0.1254433519081904 0.6070585394255222 -0.7122850500662056
Ni 9.031755454823012 4.567596836185794 10.220173572081642 -0.5386353136561174 -2.4808114175781726 0.020417901534719674
Ni 3.400689082119138 4.278095971217521 6.1090015809515235 -1.4023501123919462 -0.3008442666814303 0.012692764976320076
Ni 0.7942194481256497 5.306272966687148 2.8682401152633235 0.36468398684521064 0.48012060524967637 0.6921132031040209
Ni 4.979374066105904 1.084719263598763 13.153331557199923 -0.4704720264163188 1.0662678484438284 -0.14876377180168573
Ni 0.5197575650380497 9.547072930662667 12.771280756926641 1.8490533185234412 -1.7286837815937328 -0.9692027905680146
Ni 0.3833660387281222 2.3807856600043653 11.377309790801505 -0.28167232173866974 -0.6491120169521466 -0.9184343017658957
Ni 3.544205898845208 4.479499975508213 1.7693704441419538 0.09666448000328512 1.4099549213223976 0.2838706149415692
Ni 0.8320534231418482 8.16864181296659 9.007474557593934 1.2813892217351415 -0.5171282928222771 -0.8375797922116737
Ni 4.385012428685459 7.324635302400526 2.3189815105252194 0.5854124219106563 -0.002999191837639996 -1.1240351371612836
Ni 2.0832616549554324 2.046809700600527 2.647640864270983 -2.2099788667674845 0.9080156775357329 0.4997013555950814
Ni 7.527430602658963 9.374830489855897 13.519486337276401 -0.6036374295591153 -0.6233202527000232 -0.048860473146128756
Ni 8.871570912403362 2.096979833197393 13.638880864513716 -0.25675858921612554 1.713376976033333 0.4920399823950817
Ni 2.4890655875206926 3.5809546630065654 10.814801410797248 -1.2049058446654217 2.6182751909860067 -1.5472965673300707
Ni 1.4475599766800735 5.905281532639859 9.676345659270966 1.259633832335921 1.376138744103901 -0.09863420213514627
Ni 8.692177210322388 -0.23142909880526302 10.603610103138795 -0.8843450733916705 0.9397700871291943 0.954903343226207
Ni 3.4629078377966716 6.598963151544356 8.299859573337798 -0.2045615954975961 -0.9362463902466521 -0.1923444846061139
Ni 8.946079449129305 5.3723038733163015 7.349313182745733 -0.5659820811001866 0.29578613543223253 0.5217634776014434
Ni 4.952438576170371 4.260435787733618 -0.1237947326179689 1.0942645907670703 -1.8611935534304012 -0.09271757954039515
P 8.944187286613172 2.4124608315366816 2.298319837873569 0.0028786070993756874 0.08182330122539457 0.014420289190388071
P 4.982963609702684 7.334402200094093 9.644117679474133 1.2126690335506083 -0.6355283647304409 0.234639388719583
P 4.247635864830368 1.2145271773893236 7.1563265190598955 1.1931646449690936 -0.2438359676171865 0.5677581991640028
P 1.6383994069223586 4.520543206556675 8.168504538431106 0.6271442544318038 -0.370419089556775 -0.5123277861098403
P 8.267590782192578 5.705880994542719 1.8113449159581598 0.22983373980082353 -0.012360835558198066 0.1301117039181372
P 8.115707639047137 2.31736111448812 9.649412024396725 -0.74678076985023 -0.4565690431819814 0.08689814464514067
P 2.331617260504275 1.0941800761794256 0.578964628710739 0.5864609177798287 -0.391689568899777 -0.07214978269137252
P 2.521909447665914 1.6310626395191197 9.93054378035369 0.1394466081658179 0.43284547431279646 -0.5875878322954203
Ni 1.3165833742766073 4.13184293908822 0.8982225318371307 -2.0659071011248296 -0.644884094913728 1.5756406656904025
Ni 6.377635788995565 9.161711773516798 9.370194691691374 1.68209153565649 -1.1205716040927152 -0.23517032152238856
Ni 2.793555347714799 8.54798329622535 7.307962939053722 -1.5141234230122118 1.0914677447482233 0.8156894198964855
Ni 7.0814553178516935 0.5030907668751159 6.853270721243211 -0.5062388996032829 -0.6187678574426504 -0.40628032222975835
Ni 1.612205941502956 9.452001039533458 4.327753179367613 0.3644680141796626 -0.5930766233241334 0.8244370841821284
Ni 3.9801453020718136 9.221667354420134 9.706713940124247 -0.3376897176445539 0.36148116363719685 -0.9292571034130124
Ni 1.3220929063088755 5.626335966413542 5.580296127779587 -0.08817109782029331 -1.907542830118902 -1.1176842552425914
Ni 3.490418396732206 2.9680795139086675 8.494652139189768 -0.3488434202685282 0.3007067126623015 -0.9347628637225901
Ni 4.655109352556923 4.8990684628476915 9.558946250451397 -0.023676774791649546 -0.4644723571894582 -1.4943578103495103
Ni 0.4108895830926888 7.711035293868976 3.2329015710010887 -0.18246296382634383 -0.19915636532162473 -0.38337642104839137
Ni 0.8027768458579234 6.617291157092778 11.853383445044313 -1.1160456911979038 -1.0525145034134777 1.2381718058074032
Ni 4.097988070539771 2.308410443762297 1.6305895988900865 1.425195649531552 0.047228593969660594 -1.101478077796374
Ni 6.59704316310887 1.141484139082738 11.218057416680246 0.9816847250851094 1.5659398934628708 0.5669411025793462
Ni 4.633451511992367 6.5429495758829646 13.483742088803753 0.6491166449378369 0.47671003690623065 -0.01782880065130478
Ni 3.009540133747453 6.021111559607814 3.7678242620875535 -0.2543098705653169 0.9753986349660814 0.030288623681212355
Ni 8.092306040869676 6.715275494447797 4.9115335471880375 -0.36416359556536637 -1.154550275031005 -1.1097611437407726
Ni 0.314615612247351 2.140286239020053 4.519043389503446 -1.1679979158954787 0.39595682881656324 -0.6900007847467085
Ni 3.948460855233046 9.046382613097231 5.41980828283897 0.30280010485622044 0.013975745453801735 -0.5377973911358543
Ni 0.4948088457444556 0.3762537337410124 1.6353682367739661 0.4092679441031726 -0.14710875269676602 -0.07439538419243961
Ni 7.105589665238834 3.1015047972153638 3.8332986503296085 0.5225443216315259 -0.6340615503769274 -1.2895362763223082
Ni 0.8399921579337981 2.2133849291653487 8.798305266741938 -0.16758039028755656 0.5530396620069056 -0.6500489269441192
Ni 4.5528119977018955 2.5760215855047233 10.771184282208457 0.04944051401931485 -0.7770197712404295 0.9049558076634867
Ni 2.371000211697895 2.877543247634308 12.917310254170458 1.5974865579209006 -1.727981099099753 1.057349977128908
Ni 6.4527472206408625 4.634443969782691 5.517564447655277 0.28168080637910203 1.8860928877752419 0.5180271504874627
P 4.207047123798036 4.905839436557382 11.55745479270506 -0.12690168162127177 -1.2774916864529482 1.7295420158289698
P 2.5493365288433836 6.43116358252792 1.3667933906912155 -0.49462445529280624 1.3304371283017282 1.9113449774738114
P 2.4750877006980865 3.9364586086846365 3.6468816862034608 0.22277863272625506 -0.6183888768366769 1.0305194871996253
P 5.760772258123465 6.577852554060447 4.0132664938799385 0.44319082210286254 -5.239551373581866 -0.16690059061171256
P 5.070429749541555 4.886147960960572 7.17758552144703 0.891877891433606 0.7157534682307801 1.8836757936933173
P 0.840640501854767 4.365061244508003 12.363531792598474 -0.650332519622809 -0.2459573848355635 -0.9664779354376839
P 2.393372250859227 7.458672755933031 5.399092813409899 -0.3599305313206253 0.9898261232453212 -0.5557580893793331
P 6.580189931286259 2.701989522424309 12.859045561633254 -0.18737274242313537 -1.161420005567645 -0.7275005814643795
Ni 6.248217438075972 5.949172282768973 11.106372524165526 -0.851926804961965 0.6121688640688941 1.016886726907539
Ni 9.351827729855856 0.3978457196297617 7.244335264326185 -0.8422167767630527 -0.28604756798822994 0.6929192439450841
Ni 4.33841328907247 6.617921877931488 5.854260854441378 1.2239790592467887 -0.36313284030800685 -0.2994828675575294
Ni 5.834789203607472 2.4130822770689404 5.726448986599208 -0.8349215286532201 -1.3408848059976133 1.0451562632761937
Ni 7.050846806561315 6.10599916425313 0.053008376371064925 -0.5428197840511103 0.34313274303699615 0.06381015247742558
Ni 2.59950666144025 5.492344889413296 13.135697344574083 0.0023461316346733785 -0.9145136265552508 -2.058176565249791
Ni 7.72374246370771 2.9172415592472842 7.440960630732997 0.5493030777826088 0.37876951840399925 -0.11285240261705726
Ni -0.09527038268727145 7.3851010251587015 0.6004258327785201 0.26664036710621175 0.09209974345073815 0.18723467418337433
Ni 3.497940670264478 6.897433237851356 11.253475174365795 -0.34007518715759494 0.7969535340498791 -0.8732499919197735
Ni 0.6662443348899312 3.404556884909468 6.557314242984603 1.8092153605908972 -0.16067620696855553 0.9454031170452555
Ni 5.900133737559205 2.1044371795845036 8.633459882830346 -0.5291479429909726 -0.10666555708005501 -0.041233552728490275
Ni 5.28032993454194 8.270039463095808 7.5958554658832815 -1.241572603958836 0.23185899776096844 -0.6938936920432114
Ni 8.248121913950607 6.6712085134961026 10.21160782657356 0.49523380674203094 0.8910739074750719 -0.8983889530792463
Ni 5.590050967574766 8.405523864434766 11.720956184711811 -0.014828066151768009 -1.0645670637026374 -0.2676842349896938
Ni 3.0001164223925976 0.6371365681834261 11.644295776889091 -0.2982019439625767 -0.004573735413611477 2.610403244437098
Ni 6.245045283269514 4.97531148188009 2.0581719510037737 -1.1068380565567066 1.4653357120855472 1.384680977246957
Ni 5.633784037494201 8.487174387128464 4.059748764631637 1.2710410457315982 3.50698805442807 0.03894655646652648
Ni 3.477933834248312 2.0073989234875516 5.21847291581602 -1.2944182870049579 0.5070210291849462 -0.6898272352833217
Ni 6.998515527561218 3.022219477666831 1.3179830180201584 -0.195030001858077 -1.0257439201878529 0.29317569439257896
Ni 4.680347461411807 4.254944806314253 4.019687788536403 0.49204126794666225 -0.24418203810269556 -0.6446246706047543
Ni 2.846647201843929 8.289601084402294 13.548781465173228 -0.17739274839228805 -0.2769625749678262 0.45107973793263606
Ni 6.8809695688997135 6.708421042980041 6.832662845368979 -0.6362120210610269 0.12131673133432655 0.9443687622434704
Ni 7.937760884772618 0.5142804965783623 3.104369939378272 0.44650805940155364 0.4933684713985181 0.9196617464150935
Ni 0.486076144720246 7.512423156820225 6.471151283702188 -0.4725044834653153 1.2895126221732245 0.8215250527416561
P 8.5388842205963 8.786729684290304 4.925896359228386 0.2679297753415966 0.6366377957445357 0.8318963686736511
P 8.49567984314461 4.068297814588104 5.285032514912915 -0.4356546616268175 0.8173750351290245 -0.7886293304548999
P 8.0039587469179 7.812321640320775 8.36682635838792 -0.27016689220223145 0.6888409601106523 -0.6743875036894836
P 5.385715966445359 1.4083347056961304 3.7464567386149334 -0.6939101471034437 2.143445658931941 2.1251432610783274
P 5.499023110058469 8.420271601692857 0.3421771853683693 0.019136463719134782 -0.23738429845457182 1.1607016393443816
P 7.931351648014542 7.4396212764813825 12.198238411385267 0.004528998218605103 1.1339873632779889 0.3153769130799665
P 1.4970808378253253 1.513052915535032 6.35612728086488 1.8662853661310115 -0.45780831490572127 -1.390474958220915
P 1.727869012954781 8.238892984031235 11.060746364199312 0.09598108078301534 1.7022284156156813 -0.6631900923117675
