# total energy = -340896.26635640324 ev
CRYSTAL
PRIMVEC
9.04148666099518 0.00000000000000 0.00000000000000
0.00000000000000 9.04148666099518 0.00000000000000
0.00000000000000 0.00000000000000 13.23312965584940
PRIMCOORD
 96 1
Ni 6.152713722692747 2.1434019985991295 11.289791801932742 0.7190146554805552 -0.8618054975282576 0.5650287160479817
Ni 4.6082378964241935 0.24797633926247042 6.044761082075383 -0.6951255075677835 -0.09607698293093132 -0.5112404665829324
Ni 2.6577360199027917 1.5467994883906047 4.747399037223215 0.9736217455713168 -0.5535592819558014 0.171902157591362
Ni 3.363957516756284 4.214001945031872 4.909080713483743 0.996792270150509 1.1267206544132466 -0.39245935718626607
Ni 5.168240467838688 4.56091475421867 2.747621057335345 0.3427789592420032 0.31554326345450173 -0.23142782376082077
Ni 7.510428596458953 6.074703774097169 2.3927879056624866 0.21325346684463917 0.18783117011679262 0.8209995192554894
Ni 5.0277267206059735 4.54987509876721 11.567435972016568 0.2063701094612446 -0.10224428808390777 -0.16402995393213687
Ni 5.59475452730776 7.704757273459966 12.367868857763321 0.061800064025932265 0.40388971051039474 1.2375665681232364
Ni 1.8422933618260067 6.372376645864923 0.30293501711808185 0.008049095556721621 0.5890446193466049 0.309149444113016
Ni 2.7452937786185507 1.547785010457934 0.4232600283495144 0.04841438674764565 -0.3561026729341028 -0.4038197765044077
Ni 0.7341569787931947 8.769582222005365 4.491972512791209 -0.37026533758773006 1.170671348962584 0.012379861721591582
Ni 8.638860405037951 2.0881946798549715 1.3973916305374134 -0.1940650668416464 1.3113034927960705 -0.33833814986183025
Ni 6.836241087537094 0.6653756758317746 4.937955605907808 0.410716503624241 0.35096278060437625 -1.3717264739688182
Ni 0.8517080618571351 7.415122283507403 2.338188174835068 -0.36856840950128134 -0.5192790206166928 0.3966278867416589
Ni 7.733735238834193 3.776421105650771 3.9087224703719694 -0.04612121983809476 0.29132347167518857 -0.8210679105995794
Ni 7.360421288027194 3.853725818271562 12.576157590470357 1.766890888791073 -0.12203046957189952 -0.25932994948772753
Ni 7.8282549424292505 9.034389289050713 7.005420868847495 0.04627497180713966 -0.2602234078362744 0.0595079255576459
Ni 6.926827744349691 0.5381538184264076 0.4865341616668031 -0.9692572979550339 0.401135030583393 -1.0757593328740314
Ni 1.801371592314697 6.453831400952725 9.46839693282623 1.0392941480684617 0.10239032674346883 -1.9125557099524606
Ni 0.2109044348545445 4.696898716536413 1.3696948438507155 -0.8204719288867934 -0.22913208574810864 0.32928683829283933
Ni 6.449816980788558 2.0526164290756954 7.027030022433892 -0.5962565637140118 0.09003514761222559 0.28427222125536206
Ni 3.4504212555624387 4.170431019871686 0.5974442726348403 -0.13895064236600585 0.4495841272237161 -0.5991179444222069
Ni 6.195443789575303 5.787708898306626 4.512378244477041 -0.44977310330607057 -0.6669117641377288 1.6933354840014256
Ni 5.239080517357272 2.9235557334760376 9.19314785261062 -0.13710587584778322 -0.41820072781642814 -0.6970502353943221
P 0.15307598907076475 5.434828707794714 12.474805235258044 0.20410445335551944 -0.18162504130608076 -0.709830674988442
P 4.004338906322689 6.113880536645226 12.75131198629536 -0.5120411081073568 -0.4254070157568802 -0.6212428013457043
P 2.3730015158263065 8.518635754310623 1.300212825657937 0.07832300138161995 0.2381751697869834 -0.498826666299612
P 6.294420946190484 7.813652941156434 5.796613858711329 0.3450317598319219 -1.2424431794892474 0.18487877235668806
P 4.769547063426244 1.1037304664877696 12.663298536642044 -0.04105871771352284 -1.0218965214173046 0.0665684319488531
P 4.0013823401207 6.141755440622991 8.179516706793898 -0.1571334839226197 0.06959873413474466 0.7814361551405703
P 4.808615328132025 0.8812022961308522 3.7380544603250323 -0.39761981834128296 1.5425474826808596 0.997707839986243
P 0.4446567069947893 5.589564713852282 3.6052078939464027 -1.279512316427403 -0.30534369721368054 0.35270316033425064
Ni 1.4809322566429481 1.1492362698351897 2.591046916999904 0.2466883494643171 -0.1515701309022293 -0.07976024804877876
Ni 1.9348962702075436 6.5665064101551 4.955687769930252 0.4450345601798206 -0.4186319018165758 -1.1560271166868477
Ni 6.078944231432742 5.724626444510689 9.103189579134531 -0.9312579358931253 0.11052632558704191 0.1385824603933097
Ni 8.48700863328752 2.418136618212621 10.267043220770194 0.5888222189231537 0.015189820366560938 -0.41034163678332564
Ni 2.1638086344336473 5.406085821078749 7.067841485805555 1.1441697031276294 0.08033103295058423 -0.04305209399446779
Ni 0.5563977306049144 9.154686271672892 9.09204685073291 0.20450168879393815 0.5225792886345193 0.07267737306006838
Ni 1.5657142788938436 1.077998394894931 11.410371783093519 -0.9716782486917008 0.4611723462819477 0.05437214699297732
Ni 3.9053888741680765 6.833917425415041 1.664555813206181 0.8267886151334406 0.3694101886762864 -0.187525980171548
Ni 5.632448486011395 7.949537447118758 8.001438294119591 -0.6314953323116479 -0.50533721372462 0.03131629361477833
Ni 5.404801929945164 2.774380241835052 4.862632787205904 -0.538836116813014 -0.010762123612510497 -0.63720600954318
Ni 0.48661463089982354 7.551802440313074 6.665408522429373 1.1009096068874136 -0.6559208123438639 1.8749024183760614
Ni 5.086930376540586 4.496005920077775 7.139074840002386 -0.05630767345279335 0.17405365671672604 -0.24451242485892083
Ni 8.080205015165035 7.386451728686288 8.885424464053477 -0.086143011646671 -0.3503400594187128 1.155933271421461
Ni 4.480427438224486 0.2816179035571416 10.444618022626605 -0.28242256964113294 0.5390320348739038 -0.30679945582360063
Ni 8.219317331935033 7.082766268159139 4.861216890364218 -0.5880904829634517 -0.07362559590595062 -1.4297081926899247
Ni 7.377609154540892 6.143193037033132 6.98437952063567 -1.3089175090623975 -0.18981349065414407 -0.4383442926438386
Ni 2.296591910404283 5.163864388200271 2.5082467886678943 0.6077905324955404 0.09963796080931227 1.2316003232374726
Ni 2.3707863515465295 5.155862672332505 11.517957339344521 -0.10398466781378221 0.14229050537251625 0.5295323229135849
Ni 1.2074815281630418 3.363758604045447 3.975747916585909 -0.7779757073957957 0.24356831577809668 -0.5877865785697878
Ni 3.7526058292714533 2.798105103345807 2.7582339546071912 -0.6763914214933899 -1.2553948545539089 -0.18512328426732633
Ni 1.0257928497870425 3.5580601565858907 8.129680935391027 -0.07149158028208333 -0.9833582561327903 0.7097203746628229
Ni 3.8576046161328854 2.489275036797461 6.757272741334756 -0.00831160518948891 -0.012597119938720239 0.9026017056090132
Ni 4.163803610006068 6.797570648252986 6.0254412329609846 0.30212878982080865 0.2791181878582483 0.13445943936387164
Ni 0.6771449792725329 7.3266513346191635 11.30330249574201 0.02463116828511887 -0.3307371975861207 0.8275530041032908
P 0.23928927869100192 5.640522533774011 8.059306522445539 -0.63475471978921 0.682493934846702 0.16573768065186295
P 8.555886680158302 1.8061454973747877 7.941955256241121 -0.0050802427363848 -0.2803983401222526 1.3509640446104862
P 1.7493197524833644 3.1961203962440337 10.450996791603679 -0.3893295533080327 0.2897178177509656 -0.12501577745246856
P 3.9790950750200866 6.208201327529447 3.852058568095272 -0.1407547854542802 -0.674615817650206 -0.27424440470571476
P 6.864378194633691 4.018072924857306 10.322979283354963 -0.300607725190592 0.5553328289164564 -0.07835308328860699
P 6.269773853020393 7.986309174163057 10.36655653755595 0.24884601923726818 -1.737210331007505 -1.120074866961955
P 2.3446112470977356 8.51491970321271 5.948886963749261 0.9106428307459349 -0.09350536554901316 -0.4835242316145866
P 7.023318492079408 3.9846103820023884 1.5437633571042817 0.4533502791343676 -0.9180684337860446 1.5385486459341116
Ni 5.393029914058349 2.916611871570451 0.4579142391720836 -0.007105500696529699 -0.4888291887672678 0.359932073982522
Ni 1.6742754115766316 1.2359531702733189 6.986973523214723 -1.337276776931381 0.12370785727432242 0.3440637394916978
Ni 6.916827859886697 0.6356780081037922 9.262635295695512 -0.6839823464667705 1.3391084308234809 -0.8820092261696423
Ni 2.609400231169371 1.7332259058792698 9.139844670998386 1.0345797733119277 -0.020665241658835376 0.28773138344855603
Ni 6.537564610728298 1.925502165363918 2.7225580557698676 -0.28892360398444433 0.27239526731211794 -0.5669223335262689
Ni 4.094898438674717 6.8358161376548505 10.474737023642088 0.5557508902904815 -0.21176145568014498 -0.6026221009207234
Ni 8.099644211905936 7.063453652234226 -0.024754686863679938 -0.5182014712817978 0.8567504516028535 1.0475270775012153
Ni 7.587877972869443 3.9257503025683125 8.230636369330352 0.31260346409988743 -0.12231380514027322 -0.2213444713828898
Ni 3.1076765718163637 8.1719761067558 12.298473637844364 -0.1781738495326867 0.6785138671530314 1.5620318166577163
Ni 0.18541738755550966 4.884075577434146 10.273553995455366 -0.7177527580489961 -0.7516512105686538 -0.15303848791763966
Ni 8.68674411942856 2.3473598591020304 5.856811174051442 0.0707583016604846 0.016447861143378123 -0.633021024927555
Ni 3.594596804971928 2.5419959466561552 11.450084705812152 0.3251854145299561 0.5548330064619026 0.05134467302056319
Ni 1.110457332708807 3.4261086974060286 12.703289033007163 -0.4364966979121385 -0.9773066506220717 -0.44209476082520643
Ni 2.937741826353467 8.529187169471847 8.193980373317812 0.9590009103343484 -1.034725811971489 -0.4786589331024853
Ni 5.577087461990681 7.866617971160246 3.5417411769590763 0.015417620106650865 0.1720332838525876 -0.32235205884621904
Ni 3.0409684817910776 8.474151638977956 3.4713414478503903 0.48711709117216745 -0.6936977739823214 0.3723091074906362
Ni 3.4602222273145955 4.440879974715323 9.609396207903126 0.10623155486642995 0.0061968728393312624 -1.5223730646155136
Ni 7.226209457133273 6.07599670671761 11.16155006480999 0.14604534442925818 0.2082588418435252 0.566780665742082
Ni 0.3705779968843023 0.0555988151250327 0.24408217087349093 0.967630046764256 -0.3786306788332898 0.2548965963067223
Ni 4.585869257941873 0.40766798426594075 1.6643442424137456 0.18832199371028213 -0.5201166860266397 -1.1377766551170923
Ni 5.93691151440818 5.532955964645409 0.5347795355316616 -0.704997772376173 1.1903369457123114 -0.6064921253990909
Ni 8.04469909628061 8.902808530831956 11.212682385428046 0.03798033589851523 0.33570328334214444 0.6587366845261041
Ni -0.007854339632009483 4.796282740060125 5.8713146231175255 0.6697584895579046 0.145443192068885 -0.40185751057171437
Ni 7.919420254400646 8.738389092351362 2.5574614099237416 0.17849446609689903 0.2140235122414443 0.5794400063773053
P 8.631464468789552 1.570777511533334 3.6918976699239634 -0.6449943952393472 -0.08356033852115932 0.21542399213339675
P 1.7694008947910576 3.11476509751165 1.6719924361454328 0.3684511671971267 0.22586215674758522 -0.20490792309342132
P 4.699538830698432 0.9452241604111514 8.188488574201337 0.3088493963740939 1.2161107122423056 0.35181792951581986
P 8.402425523747462 1.6960473119264403 12.33471915035363 -0.017763751741324246 -0.013863131135337416 0.899910017709463
P 6.346002628705293 7.658799395769734 1.3510494896557919 -0.2020923080214971 -0.17735521028613327 0.4192463954721231
P 1.8953216822378125 3.259944251962181 6.11296463402669 -0.5773995789085088 0.10184293888043106 -0.009027657419907034
P 6.826159829692394 4.05488081784903 5.937162867742783 0.8136780458934115 0.40505236335992817 0.04578697642712759
P 2.3267543105566757 8.42170197372495 10.298048287497588 -0.11857233581996997 0.21081451838584336 -0.41911089833552334
