# total energy = -340856.2145566937 ev
CRYSTAL
PRIMVEC
9.36595510433387 0.00000000000000 0.00000000000000
0.00000000000000 9.36595510433387 0.00000000000000
0.00000000000000 0.00000000000000 13.70802202044513
PRIMCOORD
 96 1
Ni 4.3123198477256715 3.0172517809951085 8.51902824986316 0.28130285421439294 -0.05909834882405305 -1.0545603301989128
Ni 8.739044836223389 2.193712720582076 5.926169433272895 -0.5666199717945016 0.19844956906258726 3.0286294261748226
Ni 9.451653525182953 3.7217214550278697 4.204017563255474 1.6583880213919633 0.5880719710206905 -0.40071259833399375
Ni 4.974352379487606 4.320936526359342 10.78322352847765 1.6994212851841897 1.3202504175767131 0.1437848305298556
Ni 7.475174765719733 0.7223726970852185 13.302332941918735 -0.7358278703831521 -0.9668877692815929 0.12719144494754872
Ni 2.6364788789822136 0.8639035168342595 7.8407139418656016 -0.7947902078499731 0.11707801066263061 0.18444142770895333
Ni 0.4146083511781092 6.460738809750758 9.683181806878665 0.1538764104379027 0.8283374476777993 -1.5507053359013037
Ni 6.154940377805831 2.090312576978033 9.693024489026627 0.09814132165912774 0.09330044862705866 0.15254637877256955
Ni 1.5204504087312594 1.384409911824672 11.78001589834868 -0.6130170710018024 2.8659716699998636 0.0319320728219063
Ni 5.914956511903079 7.934790277230711 8.199234271307043 1.1966898845135328 -0.9761344846908415 0.06389756998490931
Ni 0.3799636834977329 1.0768038505576814 0.41387406030323987 -0.215076636096307 0.15036582618148298 0.45882904286075177
Ni 1.7678708429330707 2.737743584837912 6.223181662797988 0.33628255288438214 -0.6364912428643426 0.8789254450379961
Ni 1.7221181525792892 9.27763408060296 5.6878836150182766 -0.07488055135897427 -0.1315605205495218 -0.6099996243317172
Ni 5.5879160939351475 2.742819932467748 4.759206089746408 0.6187565445887407 -0.016566388999113404 -2.3970608174230783
Ni 0.2949386070799918 5.524386820921902 11.609830875760672 0.29369737122400386 -0.9570072769430873 2.0074813528877686
Ni 3.889381416138012 0.21218477475862585 9.86156484991021 0.9329013850338191 2.6214481893973502 0.00881862673289449
Ni 6.9606747576942904 0.958361983164862 4.726607883241528 -0.0884912001638734 -0.5581515293121743 1.5810957752677028
Ni 7.619466669013564 7.903330034262778 12.251572065935816 -0.7196067805385993 -0.4871528295061094 -0.9018542859200275
Ni 7.46689526146738 4.229309388236302 5.225525751872583 0.21784134332563773 -0.503537698622036 0.7399457492062675
Ni 8.292644687269052 2.7442529235883475 8.509953576028199 -0.01818952642483319 0.8304097568257957 0.38439149257646704
Ni 7.826107734986026 5.876855806814198 8.340960839516349 -1.0098583593058479 -1.8932063588915717 0.7413703974679361
Ni 4.905240997272549 6.51153038391423 5.3540378941207525 0.9030053688053351 0.7852791830357443 1.53982519865369
Ni 2.682184739560812 2.215844472333557 13.808638675882657 -0.8484589010180227 0.15158761440372603 -3.114516870167262
Ni 7.3267618422098 1.0948052161380228 2.364427856225156 0.31110399673622546 -0.21494216740097175 -1.870194985598063
P 5.367169899677567 8.687410326106622 4.99535366046617 -0.024692360540357478 0.3545381566604604 -0.35499761279538217
P 1.6111690492157482 7.911366023684178 8.593614032797108 0.20765643237283593 0.9696118530809752 -0.15596414620486687
P 7.659262611964069 6.187608828973485 4.2203433594797675 -0.15006269311876735 0.536383027286831 -1.2444828356270954
P 9.533324653102088 4.360863592680359 6.182208419299383 -3.642260219501224 -0.8329973150473138 -1.9797304080267453
P 7.661632198588328 7.489429749285436 10.06052302296615 0.2540010810756464 -0.33227163195277615 -1.3866332158773216
P 0.6048262149938979 1.5299849509585162 8.103058088822728 0.8459191653153044 1.6095982535827698 -1.3755620456648245
P 7.043170089656647 3.1337174318752052 3.0315564041225045 0.3096343541692345 0.7422967659369475 1.3712359074856448
P 6.137135697281258 2.443427813767854 0.8684619271505717 -2.144775176376642 -1.5981154497541508 -0.47614825086548956
Ni 9.11335522926103 3.0469512244161607 2.1783965743107268 -0.22729348987747308 -1.3781233786340974 -0.3799679095874747
Ni 7.281496181517921 0.49047352357005736 7.708020837289094 -0.8078786656028152 2.152659464220725 -0.33127070149208754
Ni 4.5174342630271695 7.811796555690105 11.536767060520171 -0.10417724344056252 0.6433422043479049 0.9564228651945269
Ni 5.76129865357265 5.026932851063068 3.803688547126161 0.47789788656674465 0.25609138794577185 -1.4765912303947084
Ni 5.159301893595309 0.927320398387065 3.282522788901172 0.9383526379563775 0.4394850911165012 -0.22883203800918658
Ni 3.2085701445276973 0.09504664830690099 3.3497609801089094 -1.5109992755609332 -0.9254025055536127 0.8207303247545027
Ni 6.590035819030995 4.502832739125113 1.3506475171087433 -0.07401537514520155 0.9892972473250445 0.4803987986117275
Ni 6.071527182249889 8.99205674558205 10.29896056969236 1.5535489759976857 0.4342554672864457 0.4025540224181068
Ni 1.3125543047838915 7.288670503075956 1.100834081395081 -0.7874777333489599 -0.8686973395520847 -2.2666734912460513
Ni 3.05248650384279 6.703073530367697 13.289091354687992 0.7093051415022752 0.08011274629219106 -0.18860070129296552
Ni 3.0041769077640175 4.491434371845573 9.578480732120038 0.8581334479933093 2.9280057044134735 2.0926522304291573
Ni 3.497744006282663 5.326203212347487 1.7912819841425511 1.1749188113850282 0.6694538138332922 0.37655014215517735
Ni 2.6985938927849316 4.361069643691164 12.251064431172834 -0.8217790777339911 -0.21594849717829906 -0.34767691076425283
Ni 2.98833907779713 7.081617335081883 4.3039897673161205 -0.28655844618637744 -0.23530144778361411 -1.958373282507208
Ni 8.051405783391393 2.8274132383583015 0.21914742573283288 1.249140389003765 1.42855890957683 -1.28187413179136
Ni 1.0286253778494208 3.9782362315702176 10.081249881462142 -3.0990138894356565 -1.6046918174200882 1.5409130324012301
Ni 1.7338068644649636 3.9761007938218733 1.5526936455402518 -0.7757452754033801 0.045624996927966587 -0.7221866254506336
Ni 3.5444613900052144 2.6262699879923215 1.9778621110221253 2.577308004545026 -0.23361994631613314 0.7721565296108573
Ni 5.664913610291019 7.746309798074211 2.8687330221932617 -0.9998369705141039 -0.15086127776066277 0.5178062927259083
Ni 9.238390728999615 0.09202050823457615 9.388939090257892 -0.032463776955660224 0.4619254223978883 1.6752521441371535
Ni 8.007385794719383 8.528338945765041 3.6253055040946176 -1.3174898241124409 -1.5447843424311782 -1.826718402471667
Ni 0.08549056438305996 7.2125346545834494 4.930172232984471 1.7145059474314537 -0.29137360818683367 -1.6687025159440936
Ni 1.4928957690135878 8.809177107537435 12.72633607312299 -0.7976595589779681 -2.1649966456298393 2.0586797301384547
Ni 2.460857856090963 0.08316499774747266 1.0490431598292045 0.09790940815397976 -0.6208972450808274 0.8830518085015436
P 9.059013958138689 6.707784605751106 13.274039328348675 0.881610705179643 -0.5246711381665417 0.9918557520808403
P 7.609473194989513 3.9435166362495484 10.355999235865243 -0.20770065534721005 0.05083842280810599 0.01405930630654353
P 8.524002508583097 8.52104286679153 1.2989540014752476 0.14835393795777674 0.9630501407030575 0.9151633443241077
P 2.466140254731604 7.195526080236987 6.2195073986371305 -0.37544251091329534 1.0669602465251624 2.0745534639459176
P 3.679096993656312 4.533272092994056 3.923866862582766 -0.8473494700039277 0.35463688702185375 -0.411964002878097
P 8.814028672246392 9.258031136711361 5.4603161957075415 -0.2400883276492962 -0.9613840658545442 3.066725718825912
P 0.757790056056114 3.3966385216625867 13.367501257063385 0.6562226598549988 -0.01845743537423918 -0.2639677053700551
P 1.5822657119728065 1.485150124198321 2.782564362665552 -0.1702409678388552 -0.5965121313682437 -2.7263240015668337
Ni 2.8182907981526553 2.494828175008704 4.050843924800437 0.2674656912209845 1.0870369626703795 2.4770437230056244
Ni 1.836982225148128 8.86898809640115 10.625183339785597 0.42252686599560774 -1.9288565039950136 -2.178581069182493
Ni 0.9184461559898883 4.5627280215841575 7.919576219869261 1.6967277975124262 -0.2969891546013982 3.285848757077451
Ni 1.926745538218884 5.152371086868226 5.47003524724902 2.001505852030624 0.2802759556117754 -0.8443986149057199
Ni 1.267223082406757 5.914684899207018 2.99277666729347 0.2928311665689666 -0.7354033812512237 1.1707507960502677
Ni 0.9535291503659773 8.322419058330395 2.994997335232647 0.2573977654620212 1.9885891439689556 0.9714599620333076
Ni 4.648267288933408 3.779406372098277 13.680016015365055 -0.016679774648526113 0.22228806624308167 -0.4016057995722245
Ni 6.189566313576134 2.8821104157720345 7.004415640906211 1.0127112553736106 -0.6799038055220227 0.6351630109712223
Ni 9.036423274590414 5.445694066704405 1.4109801896679972 -0.74099424507544 -0.5135840271144445 -0.8628830468631526
Ni 8.425247878677206 7.9937489641860955 7.981454275009554 0.45838424201384925 -0.06465450275559188 0.4389924677507988
Ni 4.067774761720095 8.547042757973127 7.019727104200042 -0.22495352889038678 -0.5363560307036375 -1.0873213266800177
Ni 6.977027715188191 7.0156903775792685 0.7643687028738206 -0.11982677705236136 -0.23405112031628075 -0.35731854761907494
Ni 4.175089874529436 2.3548352450766723 11.461236252723028 0.03732933257807765 -1.6997179904890016 1.5728160517574137
Ni 3.8909548965841605 7.458709416765394 9.364333789781245 -1.3759731650603142 -2.0266679531185483 -1.3694258508600996
Ni 7.5018771035290746 4.96657863680723 12.720236026607651 -0.45072698257890764 1.0588090781729378 -0.21231912795582789
Ni 4.807460426690466 0.14060171700941038 0.8251912148814885 1.2674643841239335 0.37839233757023866 1.4899033741225824
Ni 3.9616303932903296 1.3117020028755613 5.741015741345394 0.3518706371306262 -0.856079650788074 0.6351820371346157
Ni 0.5095060807999282 6.606791512591468 6.9614408928162845 0.8143940981238297 -0.38268839384243125 1.5747153256626556
Ni 7.3914805915126935 7.3825361044527416 6.040288912416323 -2.0483282117008015 0.5037428726543066 -0.2638849158482617
Ni 2.6511272326594524 2.261185060665728 9.87815101968452 -2.020932850406984 -0.9922463026510396 -0.522022644800101
Ni 6.5254762909637245 2.8904461157546066 12.051434719140767 -0.03599133049294447 -0.6965457849540778 -0.2736185981962578
Ni 4.312675754017062 3.938552680080152 6.012023396711373 -1.55719274339786 1.302674613476479 0.6074953698526248
Ni 5.088654494754249 5.505739204444035 8.384319591762775 0.2392738021678008 -0.07685824391063537 0.34871692199299303
Ni 9.309225446941406 1.2361843074154708 4.022810684780396 0.8330690488255137 0.5601472195859643 -2.4324024301471656
P 2.9135050970547116 6.462499609297639 11.078014153468063 -1.5010830448884858 -1.6231587658760238 0.27269042995503356
P 4.9826225177849235 1.0389560262547886 7.952023634498051 1.0606541018014766 -0.5309495149760857 -0.33943549669106704
P 5.672481301960591 6.395476835055743 12.571407254694094 0.7163216820294244 -1.193251548255945 1.3238450769065073
P 3.1957762499477043 4.827700255524554 7.605950659300249 -0.695506545056286 -0.010942872164748896 -1.5382313718040088
P 3.243907892880782 7.486816647830224 2.25950668152317 0.3671753858084967 0.9095758229340012 -2.39824815286296
P 4.435594547917375 0.3488153268325187 12.541592610026093 -0.3927249521428269 1.322588835901903 -1.2280370313662463
P 6.3509604507667925 5.38268928717321 6.676204478558705 0.22281977037683562 -0.04178968234227641 0.33443727214552726
P 8.776508656369781 0.3675912568943868 11.525663720824284 0.6349817481983516 0.2791408135660676 1.0396517885181966
