# total energy = -340892.3922567161 ev
CRYSTAL
PRIMVEC
9.08755376452447 0.00000000000000 0.00000000000000

0.00000000000000 9.08755376452447 0.00000000000000

0.00000000000000 0.00000000000000 13.30055351839659

PRIMCOORD
 96 1
Ni 6.2849885921345985 2.0117390581989296 11.65302755207073 0.488851557364771 0.002641037167272871 -1.1168836137181668
Ni 4.6080804554994526 0.38692623275815363 5.840951627212851 -0.02627770274960636 0.9866981191393007 0.6771997763272981
Ni 2.7284199049408553 1.709677855814383 4.829285147513155 0.5835216326458467 -0.3244721905130154 -0.8695157216883219
Ni 3.4246810181842386 4.362716501578373 4.914221969562169 0.3971374793882257 -0.9188294803217854 0.372418636485307
Ni 4.868793287871374 4.333000200492377 2.7364024122417545 1.967632853432263 -0.06475966087488848 -0.3296848450622064
Ni 7.328748677007172 5.996258831246431 2.576795886482247 -1.22725644444648 0.5184632095836168 0.05338792870283709
Ni 4.827599406274179 4.6226841545346815 11.545651742057943 1.923648734541829 -0.35478112590920186 -1.411781690118491
Ni 5.723950280163277 7.914241596385961 12.623076670163874 -0.39693179113532284 0.5014275942575687 -0.2922608958877934
Ni 1.8846677927293571 6.160589067496612 0.43514933725749466 0.5205995392003292 0.7842533128743914 0.1965191848090938
Ni 2.8773740000786487 1.7038436462433706 0.21156824991229778 -0.4615356431586374 -0.03126101489681068 0.5886720664985347
Ni 0.4193760700419088 -0.14381508343622373 4.5378300292256935 0.7407957559113887 1.3612024345090428 0.3903574803519148
Ni 8.854467180257688 2.2773319069877247 1.1960665786252367 -0.6247798679646853 1.0719985802800183 0.06685665261323324
Ni 6.790238411027346 0.5703975836803332 4.627063446734481 0.1766478998064635 0.3485166330567288 -0.2563469556000037
Ni 0.6838311570888179 7.279112457884323 2.5405919807034993 -0.17383434161706837 -0.7733407797269456 0.531658111007336
Ni 7.672539926666 3.8275777180764994 3.9305397031848637 -0.2952089227725238 0.3201421956790938 -0.5840893322238586
Ni 7.823211569481241 3.680077631554535 12.343192734192254 0.026288758493199886 1.0943846612847024 1.0325105494877251
Ni 7.70248341659822 9.039426163744938 6.734695281902693 1.4463918239931928 -0.26665476528391496 0.6616106636397897
Ni 6.962820146172354 0.7052432514676642 0.3734357590694187 -0.24037320587956665 -0.3628675024617622 -0.2738163160293607
Ni 2.088628851314717 6.602807612893188 9.220502035472538 -1.337349024930213 0.3387518403604811 0.3249401312883694
Ni -0.10113175176318977 4.719630178995055 1.5795867962008117 1.8683103669808403 -0.26684554113848236 -0.7428708932728626
Ni 6.455234825940432 1.9445820352553453 7.122127691410231 -0.048901867907025456 1.039644589429345 0.22704126465735092
Ni 3.767100047211878 4.2903795729409 0.4478282923875202 -0.9782561590195346 0.3791685536146308 0.07690143844374497
Ni 5.884063891427555 5.645942717924072 5.069226558052579 -0.1156415353264202 -0.5927966301898694 -0.6801663151547899
Ni 5.2148473384385845 2.847176058638658 9.304840896478295 0.22969155779600442 -0.4466816088649404 0.13663382130737112
P 0.1602762784781735 5.672460200055246 12.544057663181283 -0.09258902438233085 -1.2831923363821514 -1.1715182703439113
P 4.172886589228098 6.28828737418176 12.666688749840267 -1.4187092704762598 0.13585092039475957 0.6548208944114658
P 2.2946073468545385 8.309786465214438 1.6713610937657593 0.48395334873220514 0.4071881787560084 -1.6592531976057359
P 6.260334058542455 7.764360570755578 5.81691777354859 0.27259812735154343 -0.4886695232609519 -0.20533009823250442
P 4.779971536551942 1.0074643947999518 12.656487970644845 -0.9352176918718216 -0.8870179922381433 0.43545488691118556
P 3.998151103820894 6.358843142264844 8.09844086037144 0.07769333821742103 -0.5143759268881206 0.3512453448418015
P 4.677064076766672 1.0850266669005597 3.726868537567285 0.9901649946419784 -0.3320680005824023 0.40814540046295517
P 0.2454593732364931 5.453940880203903 3.794461763095618 -0.8274277913793363 0.5737460413163215 -0.28563670570305644
Ni 1.4462387572877842 1.1507296812283152 2.5652510580725685 0.42843628950150736 0.3179588148745298 0.4455788627190649
Ni 1.9378572454071379 6.318049113037002 4.962888546689337 0.1363941944927393 0.7565327070306712 -0.36903352206315804
Ni 5.935254082258571 5.829411342580097 9.295171739183033 0.7339640777015359 -1.2241528658204919 -0.37741840369274354
Ni 8.613919629876541 2.4303027009267444 10.263957687291175 0.070939050212723 -0.44834254150713104 0.2439724931950508
Ni 2.286037783574998 5.2063232129282895 7.231537295974411 0.11604776962590337 0.22714230901158947 -0.8793962140268275
Ni 0.6723526678222359 0.14348338772073785 9.229214273347507 0.30470837762252684 0.0930040004325624 -0.6505554342668926
Ni 1.4167132948326144 1.0891615039018223 11.619975209966793 0.8294736181647715 0.35517707579603996 -0.9019648433559626
Ni 3.9975240626053186 6.7405658416891 1.7390206584371894 0.35991150515723175 0.3337402460785026 -1.447823928454029
Ni 5.8009854741406475 8.14959106596552 8.081616163175534 -1.418731639073763 -0.583984174104562 -1.5414390801080293
Ni 5.437183430906479 2.922484617384731 5.012392996281378 -0.253230521458209 -0.3962059687128919 -0.71451753894115
Ni 0.48972282438646714 7.442415800549575 6.859294732725356 0.3450885812117863 -0.1266934222652076 0.061002764935617515
Ni 5.230032640920145 4.5643238837168605 7.354089320914911 0.9685343037460804 0.9324480995464844 -0.4345334035381807
Ni 8.1510541621352 7.523040578297271 8.950208195077694 0.4146662323006084 -0.30076199138026916 0.22045332702718806
Ni 4.5375519500779165 0.27946954351610936 10.343601009223187 0.17432902186529978 -0.10507584399543193 0.4167899635118306
Ni 7.954853874536825 7.3501044285521555 4.488378287445977 -0.3404420835787105 -1.3363048999364147 0.4187370599358724
Ni 7.258456447985708 6.149720353093292 7.148728779036817 0.014203288083575537 -0.4177412716815064 -1.0392252425037394
Ni 2.1817126653892953 5.175852644872831 2.6748215123398733 0.31665346579954495 -0.5492609116907637 -0.21189823836832541
Ni 2.398105497639989 5.321226243794146 11.423300552057503 0.28057137536500715 -0.15913945860905498 -0.18341504332696798
Ni 1.0330458588846865 3.3546523282243923 4.038567090808621 0.208450389029041 -0.32444493681950576 -0.4261904308901241
Ni 3.7674271991504393 2.359910508812941 2.336375561854985 -0.8548933437894567 0.2639031706807068 0.5769815175344837
Ni 1.0390072942095838 3.4129398986114223 8.393461026033837 -0.471064408584679 0.09954720086771889 -0.7621120008906617
Ni 3.8957434594973153 2.876928709940051 6.994907390057537 -0.9450894424595788 -1.7092475272459917 -0.04937726488154722
Ni 4.157201471284847 7.232157067146907 6.033304244511589 -1.0880144960923004 -1.613800978810208 -0.021701139122517466
Ni 1.0868896154395902 7.4935696411651955 11.629405364595828 0.2113577924838231 -0.4620622050860687 0.1516691183739388
P 0.07286037173917206 5.6684707639155665 8.156138648513673 1.3151298085206962 -0.06505893728286215 0.5431535132414452
P 8.613819666784202 1.5804619276364633 8.062156984118822 -0.31339896341798934 0.6320969704513889 -0.1535668496172839
P 1.6951832074253417 3.06859430816781 10.465327884274204 0.24244037282124054 1.1681277566051236 -0.1697048928297271
P 4.013390931625548 5.980900865241741 3.682098703530537 -0.2049734862240341 1.194335525348743 1.8171618691314833
P 6.729142786500997 3.8580937239012028 10.449660032683266 0.04511951804645778 1.1589052095655914 0.5233830154827374
P 6.324546714038986 7.806372332199175 10.070261929533563 0.16896518645022512 0.736755524403744 2.759556024147086
P 2.1390284249608764 8.399398833718726 5.756559149639389 0.8190459950735443 0.8102952454641076 0.6643149499448302
P 6.963847039757283 4.1021490700680365 1.3585720340625522 -0.4209104134381073 -0.7505813745432428 0.7708450098882853
Ni 5.513300781945106 2.635581454820198 0.7237200659533063 -0.7039029966500975 0.713715354754829 -1.5117803767013318
Ni 1.5722831291724275 1.2437317073182534 6.902707794972459 -0.8494109805186469 -0.48875462677559045 0.6261124707331797
Ni 6.929268897362109 0.8010642367615398 9.541604389436745 -0.3723109072628491 -0.011129791364574381 -1.2840048049811177
Ni 2.8124979531511456 1.7890485511309275 9.108657875232232 0.5190645906130416 -1.0072432902805042 0.08705575326892749
Ni 6.539394662135362 1.8275616043426883 2.5603828554756967 -0.26199438369376815 0.4632731946750344 0.8443867878311782
Ni 4.188408131202069 6.756314572509295 10.428857713167684 -0.550133286993388 1.5847269442623868 0.6724836017985515
Ni 8.329724558358988 7.147188438659422 0.4339915828971411 -0.24927925011994487 0.6206239368147827 -0.0336300293496195
Ni 7.660535268031565 3.9876458915715327 8.529419010412276 -0.4037886661561562 -0.16585543717664986 -1.3568873520734566
Ni 3.1826612840795647 8.41099455242996 12.71403944917011 -0.16053248230183967 -0.2928257672523279 -0.20376841017233938
Ni 9.201330023117455 4.957860403144725 10.34016954888983 0.18961268749724763 0.0011940203081011694 0.12854153121753992
Ni 8.402779403750529 2.1964435901784087 5.846870351034659 1.1834152788918133 0.31314776663913163 -0.6649402422336548
Ni 3.556723175609175 2.8024289434865324 11.488472853240483 0.008915814432391096 -1.156581446528421 -0.4295662893408924
Ni 1.1919962632563015 3.58340423370963 12.56049795684938 -0.07727990482908625 -0.22826253865896173 0.9633005661509668
Ni 3.0122060365352064 8.585202959713927 7.9497675706475786 0.5991364563649682 -0.2530227763227772 0.023460030795153144
Ni 5.484347835382418 7.680100771468308 3.689480523522022 0.22088321547575507 0.353757569740694 -0.7814538957523831
Ni 3.1213929960300866 8.506304817197526 3.700227464703765 -0.322475986018593 -0.3261727181438899 0.697759859866837
Ni 3.4052609156090776 4.28401828524665 9.192784087477921 -0.3556858971116584 0.8233839603272658 0.8019350464248705
Ni 7.332819901131492 6.445038590521933 11.380392757804401 0.6782359309012964 -0.8215471642288431 0.14120884227256325
Ni 0.6019877383699797 9.34636738254636 0.45542185238368516 0.8592158824242105 -1.8597321383935261 -0.06935525066537088
Ni 4.425665987089904 0.06719064689282535 1.595321895690232 0.9428890923741503 0.3269584472699788 -0.20622895589768997
Ni 6.147848317000413 5.610464907697854 0.05841752240706942 0.25523521059306364 0.3251517330785432 1.139944095082056
Ni 8.380260445312883 8.811991953567794 11.175457513446435 -1.3965227070768915 -0.451851325991338 0.11299124218776668
Ni 9.282481878988389 4.774309990504059 5.965830065938677 -0.6871414609210423 -0.14573629782927158 0.4202529823597666
Ni 8.118756995756105 8.91868892330807 2.369745968343637 0.589854773952726 0.9617890146024468 1.0077935063570191
P 8.521381069032898 1.7723638022642945 3.4739446475992817 0.4463363097103797 -0.7194995655367739 0.8333901796103583
P 1.9078864928133705 3.2794255574629596 1.4969373114555735 -0.6658848655351113 -0.006659414298046595 0.1539967380658509
P 4.858751540868307 1.0092637304620398 8.130016474974928 -1.4831498574488329 0.6847241097288015 0.47279913188759864
P 8.528351222835028 1.4490740740886499 12.346797766804121 -0.9694617006563562 1.487842892049128 0.5669105064517268
P 6.538467731642772 7.906571700937466 1.5197743342779315 -1.8787711573028485 -1.2280149198790593 -0.23137280215316927
P 1.93105066757429 3.256134156948155 6.157943680571187 -0.8827188506421573 0.3876069141899712 -0.008409307109617776
P 7.071243751143924 3.9919806547574717 6.054957159067432 -0.608507870277539 0.4420906470601483 0.8377757102725637
P 2.4152537117529183 8.672934204571485 10.323610208266311 1.1988390696460516 -0.7896721698971174 -0.33764600889081203
