# total energy = -381173.5369020216 ev
CRYSTAL
PRIMVEC
9.21606375800654 0.00000000000000 0.00000000000000
0.00000000000000 9.21606375800654 0.00000000000000
0.00000000000000 0.00000000000000 13.48864088383906
PRIMCOORD
 96 1
Ni 3.490980332121703 1.2632550366671347 9.649679262151173 -0.4537176897761154 0.6207841165417308 -0.9839259557108021
Ni 0.31417836870303434 4.721177349101778 0.30072936727305755 1.160592110349711 -1.4029126697636354 -1.4560566007764666
Ni 0.36446028941968645 4.568393448802897 5.528710027781869 1.3439490467452337 -0.11733075010338503 -0.8871576031398011
Ni 3.9646767787052553 5.725811212515977 2.252467661067574 0.7827664439162196 0.33403746560394726 -1.0939748274407932
Ni 3.8932430707057004 4.362663263836564 13.406859136521817 -0.009889491199570066 -1.4484181103946023 0.6094442660488795
Ni 1.9915821010186776 6.722150618802115 6.188291709849695 0.12599742463944755 0.5657627660005289 -0.9722076388326094
Ni 3.403787155578833 0.6950450943220251 13.36962992650569 0.05862757983522162 0.33338311984940006 -0.3922058464145632
Ni 4.4145128369504185 7.778127171839011 3.5030939259540617 -0.2574569008347308 -0.06981110725586687 -0.9934454651654632
Ni 8.092044725945684 8.018758589187529 13.404983667604528 -0.7271275143956768 -1.6543243928455509 0.3310827538509975
Ni 2.4738218384441324 5.5432870753812615 12.133477489307667 -0.679860610988913 0.7919972184858683 0.008261982898476093
Ni 2.667608005146059 8.10993310515187 9.858995417415871 0.6637053413852892 -0.5335144474897844 -0.33004325684288965
Ni 6.679056305990102 8.009800575489225 10.51732187163832 0.26312926862915975 0.6397280046340853 -0.27845047236726234
Ni 2.4845493363297577 5.331538800965345 4.044298959102901 0.8602186126571122 -0.4290633815625449 0.4186946367337112
Ni 6.276120794772384 7.3026059446872855 1.6864575930740953 -0.04788191128294334 0.012043561428095387 0.41757646396886794
Ni 0.6853230689615903 0.19288391408766353 0.0629530863892863 1.6705061448117358 0.3585650184316663 0.21398494569402504
Ni 0.7208850930949771 7.880674310132269 11.09926282695576 0.6479622196184196 0.2393653334403426 0.6014033980222739
Ni 1.0576907408433613 6.909909479990985 13.495654986503098 -0.037043168796226524 1.776493444877844 -1.3312621953061847
Ni 6.220944222743828 4.713205454195363 2.9650186679615445 -0.06362066217443882 0.7142730270305119 -0.4305628489262069
Ni 5.478617957972814 6.244703234383985 9.101230403110494 1.3362431934605439 0.941295008414153 0.298884314741582
Ni 4.510332248906472 7.072794185859147 11.096996596947104 -0.6866442095696498 -0.9741647625589804 -0.46237202301700364
Ni 4.568559337945459 2.3220332730006192 7.737920251713909 -0.9875280712397639 0.36925412271439634 -0.7333015044168726
Ni 0.536334343601972 2.0321512124383703 5.472503099856738 0.7168181620498687 1.0108934854385816 -0.6428706640281251
Ni 5.441034851119222 2.3211946112243376 0.12276902477147052 -0.05609401478009049 -1.2917250564435108 -5.816965607778394
Ni 5.837353228761443 8.646031517528865 13.044675214780607 0.36115463353571353 0.6437996036002978 0.21832985292628204
P 2.2189423869622997 2.0117376318398654 7.263727059309021 -0.9746460730707731 -0.208036441420074 1.2847547957732648
Ni 0.6532751298314584 6.622792238471422 4.053012747119102 -0.6814348974545683 1.2672463545758563 -0.3141067881182913
P 0.3352674867543027 4.319403061881988 11.365055940805426 0.18523487014452614 -1.0050334271133787 0.45215163084057614
Ni 5.63977004390756 3.5000950188990942 5.672283394243211 -0.19834441094329067 0.24727893186046446 0.31251167571702954
P 7.7031084151474385 6.665812822775631 7.718172992504692 0.23863231192905998 0.5331020425427141 2.8653309510920715
P 4.8248211989486345 5.578593814556373 4.407467156423305 -0.12244930227687299 0.4959328896915846 0.4178862818998029
P 8.161395603599749 0.14185641383583353 9.558643908745315 0.9408070130341409 0.7632373727443565 -0.5122840773560984
Ni 6.768433689576694 1.4589581445719912 8.479013407191886 0.20291146148868278 -0.0953735291060035 0.2252309509214895
Ni 7.059043819153517 0.533089367652205 2.639565367202433 0.6568734060651203 -0.7633129631772982 1.3349010776103527
Ni 6.216437567704248 7.6837270336582035 4.915840885046584 0.3161029926127137 0.5431301162026776 -0.07559326115528271
Ni 4.7144496227645725 4.793615608020175 7.6732022891690415 -1.1201003208832516 -1.011312318143555 -0.3408596307321033
Ni 0.4077214129806089 2.3557087689405463 0.9756410493262364 1.5161785057690276 -0.14713060707363695 -0.4067233233044479
Ni 0.12307960611059901 1.5581045554427446 3.109293376853382 -0.10791691298865286 -0.21550498188297723 0.5007776193783956
Ni 6.2871708548796565 3.893003453055334 11.394421083857802 -0.6197117094131586 0.7358114153229199 -0.4392590911486241
Ni 7.794144690159643 3.4861326827335253 1.6324357937990353 0.7959004101950163 0.11783520054362932 -0.2556789829987016
Ni 5.82415582586435 2.6278038269948434 2.024253967646109 1.5384000361713892 -1.0794329250708765 4.1151020317013
Ni 0.46911790624886246 8.29008871397335 2.1238132581605704 -0.798453001413541 0.49804685071079385 0.599582028542819
Ni 6.623142448883495 8.545005029709085 7.240715470416738 0.9649360448718609 -0.15862703774901069 -0.7010261893229347
Ni 4.606133228735574 0.15697905239298346 11.209653756873122 -0.48832962342303 0.1526736483790532 0.2870875792169701
Ni 1.8197301653887332 0.8942106772746733 11.620099438217125 0.1615426687339089 -0.1699190657230622 -1.281056263875755
Ni 4.194497753596869 3.496224272239332 3.1850457321976133 -1.409529660859521 0.40340454334386006 0.9824509138271723
Ni 6.547856426351131 1.5305208774602048 11.231492140884958 -0.7218297563318472 0.2956604084876457 -0.23448692230211876
Ni 2.7670032497306543 1.0212688579876987 2.944934100829119 0.03988166668628615 0.2952238351708593 0.17765011581873275
Ni 7.791803810036835 1.1325159602019452 0.5483419527043614 -1.5783161556400367 -0.5304414649914155 -0.21445391491064358
Ni 2.370095044025994 4.728384310739715 8.014343173176359 -0.12873616372684926 -0.8911968062061812 0.6064949536125683
Ni 0.4192129225283633 7.74957580719153 8.697259927964463 -1.1138412273474172 -0.12021475651939943 0.16302799503018373
Ni 3.859134419782419 2.4965025706576407 11.701220150535905 1.209391648350917 0.4314125985210118 -0.7502293905204627
Ni 6.139520301936698 4.635836601317508 0.34481164208965803 1.0572306779422245 1.448897364023866 -0.12344586186218738
Ni 1.571034692499044 6.121972917079111 1.9647145111681934 0.7459382193442766 -0.6533072859804168 0.39267790095497535
Ni 8.60544397398222 6.1687813034718015 11.723044710452529 -1.5888504795124572 0.2181722443024952 1.3206725927157963
Ni 0.054172021109712615 4.5233637626610035 3.1782341396827807 1.1442715188128165 -1.9607075870673392 -0.35220976563759987
Ni 0.21686779767662512 2.967185364484664 7.83719660907967 0.2997669744568515 0.8353164500987936 -0.6010269885194617
P 3.1315169923184993 6.781833845870251 8.107226347309078 0.4091283332015147 0.11426676646608064 0.7831672788990641
Ni 1.6077607054494019 5.560226200049457 9.92990565301001 -1.4506680827710436 1.983388830714939 0.15672493563029138
P 7.834520264246349 7.61321493200621 3.3933508852990375 -0.034664898372037074 1.5163224875460597 -1.014931660063697
Ni 3.525070550918033 8.93379388349172 5.409214548756939 0.6183703648939157 -0.017163913373796247 -0.7391533352119594
P 3.6183186811643875 2.4381095924760925 1.2250867097828417 -0.18866652153389443 -0.6391397362307831 -0.22958922789018524
P 7.883743259269651 3.78453038594725 6.405809240001352 -1.4736105504998298 -0.8404961945275202 0.11303186561771501
P 4.88597899617287 3.035338153886897 9.725485070663563 0.9631866662809219 0.02789312686584228 0.9452773901006688
Ni 6.452553113949713 5.729276452382812 6.415885162199251 -0.1839907133247799 -0.8732078258279283 -0.7030941275955568
Ni 2.0967742495294397 3.7737568077442467 1.8386369196089742 -0.01496099218520649 0.15733505841046452 0.3283771819943764
Ni 9.115202876945887 0.618762815327945 7.219093663896579 -0.6842605398288215 -1.0204065671353393 0.35641043398250877
Ni 4.87637585803127 8.528194929929548 8.683109584103992 -1.3581021983171642 0.12470107442552719 0.5650354009162011
Ni 3.747896533631648 4.813089150144167 10.250543560603111 1.4350663716780447 -0.3985258750953201 -0.14766848185497794
Ni 8.62075185541523 7.216776745538807 5.845220982150583 -0.33674303746056844 1.8843327105510257 1.0719103914415862
Ni 3.0700550649995693 4.173365320047265 6.011104595073713 0.5329760584878112 0.8449524305266608 -0.7370476017228661
Ni 8.20792750808817 2.9892301883183543 12.59870068713173 -0.1188369023352663 0.1933130191669703 -0.5351368135845558
Ni 6.678669231324125 3.998204817629572 8.764189745743481 -0.013410874089267225 -0.9143272215760575 -0.6179088518764649
Ni 4.962647428226579 0.2388978758087546 1.6411090311359442 -0.025348763177433762 0.5953844455217037 0.5617526163998713
Ni 8.886874904337324 2.5184368017296235 10.052760387171805 -1.621574966328672 -0.5990071298759555 0.817331840595915
Ni 3.3386480189331285 2.0047149914714404 5.454792590675633 0.6057920140082728 -1.3901736249304124 0.42593743433905357
Ni 1.0629346809609908 8.920144893484323 5.078864753473228 0.20570007997741346 0.25065119076680703 -0.034804766384011025
Ni 7.877918707153057 0.3479948704141382 5.2410379792410735 -0.7108215781468016 0.40691744159312504 -1.2524308868295786
Ni 1.8808418822955901 3.124558864394404 12.644710040821083 -0.866178686895289 -0.0032231349229879976 1.2739191386103415
Ni 1.2608680762269482 0.6697645106020433 9.089806170826112 -1.0118692190882894 2.234103784840146 1.8616699788461875
Ni 5.287790147646562 1.6175758130509406 4.144343936162527 0.9474319745498262 -2.003360131630543 -0.019101496716141298
Ni 8.448697166388824 0.3634907595420509 11.72788775180897 0.20379489253490063 0.7356610057879847 -0.5048487041239756
Ni 2.3235723556010486 8.852950574683556 7.42298800901857 0.506242756258025 -0.29597588284553544 -0.6380668148815786
Ni 1.8715797385025892 3.203982899427324 10.31874243032272 0.7259764315103691 -0.7183243142817499 -1.0808511455746417
Ni 7.673967222437518 5.7607769573424905 4.371290420856094 -0.4816871784058478 -1.3972698696555614 -0.15325883145856187
Ni 8.405059105831747 5.182496622437568 9.633546543037095 0.18600388710006677 0.28879916259143806 -0.9453434674519138
Ni 7.469647095182953 2.8676242307575075 4.216939789766358 0.849339246740447 0.02127562154932465 0.012708705815920047
Ni 4.484462758730398 6.626285126528684 0.012430626415920446 0.02553131150188506 0.2520511564381272 0.2647783741968085
Ni 4.334683295124571 6.920065581941121 6.281862402317697 0.7381279792712385 -0.8150157908682287 0.13498445862940622
P 6.2940091739785675 6.631068263472533 12.152010992957145 1.326148271118387 -1.2891151296244894 1.472247351603716
Ni 0.4129257240252932 5.795945455565469 7.413127742706 -0.8680792463521114 -1.3896987421765228 2.072888417538669
P 2.2721190732166447 7.944790463732179 3.492235559967083 0.3326655249570851 0.5531486767809441 -0.5257492017220687
Ni 3.0011096941384325 8.0837594848811 1.2486300655376683 -0.6854532745853421 -0.7260299104561239 0.7738529434766738
P 2.8371559249070972 7.910202577508166 12.27367777653693 -0.8387095349407427 0.1531503309051556 0.5115140319592932
P 5.52227445065684 1.0798185092483323 6.2822669875042765 0.6210078025167628 -0.6430748096191312 -0.6481843629315547
P 2.2796578131397043 3.161008395440493 4.1093680536661905 -2.9889398208946845 -0.07445143424135564 -0.7404412007854474
Ni 8.344150142321354 5.92421462701919 1.610381753901869 -1.622229054972903 2.007096972965156 1.0153800604550254
