# total energy = -340863.4922555945 ev
CRYSTAL
PRIMVEC
9.32130575899916 0.00000000000000 0.00000000000000

0.00000000000000 9.32130575899916 0.00000000000000

0.00000000000000 0.00000000000000 13.64267319031799

PRIMCOORD
 96 1
Ni 5.934166926095924 -0.04036964289789395 1.6355386709477076 -0.9580622005701629 -1.8883611149841284 -2.043372410357423
Ni 6.367328002423045 1.246267894685012 6.759740058709891 0.30930833828838344 -2.7218713651121185 -1.3041321718586119
Ni 5.403495670740225 0.29966599660646603 3.7577110205564765 -1.038290903614928 0.731091127029115 0.9314451122032669
Ni 5.462108041042461 4.783498342769014 10.729648739485254 -2.003029744874318 3.8116187847351264 0.4357878447705721
Ni 0.9268677617606603 3.378637752740131 12.635830589581882 0.14458778604712516 1.2995206412285298 0.725706208568118
Ni 4.804592457589935 5.848709195349915 13.15077307368313 -1.0632516873253235 -0.8208267411230509 -0.04957266872180495
Ni 3.7320643800269644 0.5601321741815983 6.197948692111977 0.3908601310199462 1.2907683489571964 -2.4418725744211303
Ni 3.1430044657060594 4.9410843370962425 11.791308174590782 -0.850574918919761 -0.50794456944048 -1.2075311981034107
Ni 2.774673070589506 2.1185836469105563 11.848648186663654 -0.15334393497320042 -0.8017563547551612 -0.8173853195416696
Ni 7.837335198056626 0.9471471944625603 2.0340813499997856 1.8641559784928345 1.9107176283024576 0.3451451454813346
Ni 4.165467810302537 2.8035877609008195 2.4467178432848438 0.20685964750315342 -0.17859679600271822 -0.22409555176546567
Ni 4.386140401672631 5.355034202355789 1.9282416521890702 -0.7452031409504649 -0.16277114182437127 0.039400870395125694
Ni 8.624146613007612 2.968239304955958 8.289888318782088 -1.3279657839431 -0.2614716784210787 0.9762846371154605
Ni 9.11798938950451 5.046909120817822 8.587830805962842 1.0705646760469691 2.733320744599641 -0.034120338722476724
Ni 6.069558891528493 8.598951123674446 9.92242552929129 -1.328567679193157 0.06985918688498292 0.08993384614767092
Ni 8.172557315292526 5.617000178019603 3.36607076838239 0.8320097543230638 0.37672857671457055 1.3716138596503538
Ni 5.658731663681676 3.57748916744395 0.5356628145632137 -0.3935942421216576 0.06365871450122584 -0.178634334108873
Ni 7.449196028307081 8.259021747055176 3.42002714648266 1.7207174755588042 -0.01653604998181023 -1.0880263231668421
Ni 2.6004205816534354 7.856984510492554 6.799740577901683 1.4162731502309416 0.6529804987686173 3.144770783955797
Ni 1.524145339195187 8.35011886775552 1.7590590214284743 -0.24087328544443676 0.23803967265038364 0.7492510857675936
Ni 6.793917558224869 5.251381282864557 12.637194296607204 1.9232970076293652 -1.5189529831903712 -0.19070026413447155
Ni 8.26099786386562 0.05015421750130647 5.3703295328947425 0.32899270409118825 0.3428059558251967 0.27530292787721616
Ni 3.3770997372980394 7.874844132232229 0.40897974505516527 2.0621905715051905 0.7846500340921778 1.1967955568534616
Ni 0.18440525511501435 7.602652684204937 7.302500115440427 0.11754363744513949 -0.12778511266748963 -0.737195183044324
P 7.757181290259403 3.3811731478931537 1.1425851470155084 0.27275573597533026 -0.6213495021268977 -0.002693487671763103
P 1.7494412981972642 6.189328348591698 7.944564702548648 -0.696300244602175 -0.566822831833927 0.3081487707626435
P 8.446696916213133 8.751130760690081 11.724349507156132 2.8542813781461294 2.0218980425337305 -0.7735942904986484
P 0.2540577798997526 4.439486234248919 4.702111226226406 0.5579198729173425 0.5178949957849726 0.32046924000120935
P 8.55596126174157 2.624879687835539 11.637555101171358 -1.1049642365727614 0.04023339359875006 -0.5841924334606261
P 4.528504703776012 7.0512694875624105 9.91426659040364 0.46408566327400075 -0.8213962404732758 -0.7778222125370668
P 3.6948910128569072 9.015147423610017 2.2634283484632736 -0.17684407497766963 1.2495342820080737 1.3530474095020764
P 2.004630684610168 2.208077503028841 9.32961006089997 -0.23390611009798423 0.45275584008347836 0.6598255467149088
Ni 9.05453926153897 2.7053971265554373 6.156460492528925 1.542658297227111 0.6778371528009809 -3.160414661140641
Ni 2.630929215241098 5.7545174011539695 5.682801139285116 -0.15325600324508445 0.17803500996197727 -0.3007223963915853
Ni 8.391048721126563 4.798831890661376 10.834437926142492 0.5897311038906683 0.4692345544647919 0.8302202665228089
Ni 5.964806057963521 5.1815367391821985 8.326655277023205 0.3055720111744028 0.61912652633365 3.89449469559475
Ni 8.438298419768746 3.0178659365540983 3.445743696804995 0.33571639596826697 0.3884399516142278 -0.37326298676347325
Ni 6.146338486658824 7.3581175502181555 7.556075983834992 0.47478942284475 0.2545638955576519 -0.005631230143848366
Ni 1.5658581822458406 4.180950499086254 10.230968205325052 -0.5245580096274449 -0.30006522242356065 -0.7961814317705449
Ni 3.9280541538779232 7.840001091489584 4.594688770706193 -1.3887021825912083 -0.5076599483205257 -0.7621631658435711
Ni 6.101158117884183 7.925962172743913 5.202810755203318 0.5487703452075904 -0.36087386907050106 1.8081581229709762
Ni 8.122352762740388 8.33416079238061 9.032213802233803 1.2390801765542854 0.8835793988702395 0.10930376603385046
Ni 4.9083851966668135 2.4586062365869226 4.9864790959022045 -3.217818138760774 -0.7549640769919708 -0.40519171715126995
Ni 2.449956064888374 3.8479375313035393 4.180087346177541 -0.21193989023953821 0.8078712094036474 0.19279597032123572
Ni 8.095246405736743 8.69553849343777 0.2005693313461067 -1.235006520705544 -0.9972560971608052 0.7211525277591645
Ni 4.334994397243818 1.2589541917558364 0.43104047927817796 0.9771379862546915 0.4851694805274934 -0.11224870759478732
Ni 3.513927183809893 5.379922088600536 8.831188659038494 0.24424091636508902 -0.2119638014989382 0.4522768435645307
Ni 5.553410230468416 4.872274458347656 6.332342345703042 -1.2559049614211077 0.27438324427642424 -3.9530127464353018
Ni 2.1333113099317926 0.9674769622152921 0.4698329572500003 0.4424881396088831 0.17144630100086602 0.05655655623880583
Ni 0.24227098882990866 4.567588938616547 1.3463432970448839 0.002815615071924183 -0.8254130749421527 0.10679745467222898
Ni 1.4118142840882764 0.6648840756159982 5.8628841049425695 -1.2459905305208734 0.15201673152134465 -1.0224202551312584
Ni 0.9070823582613716 0.49874298690845886 10.823196431456662 0.8203742269666646 -0.4799995062907798 -0.5093849014314324
Ni 3.5945657995040166 7.155444400173383 11.759629717136558 -1.2041653669549712 1.6830749826156821 -0.0965608645458853
Ni 1.2716684527437898 6.103479123005885 2.8901733696376954 0.5182654917505138 0.1758097201758843 1.0749257812291424
Ni 3.4188591868772416 0.5687264180458894 9.553704503596075 0.6078175290787339 0.21564536411558347 0.5352861946782265
Ni 2.1215757860433517 6.047225043048187 0.40729352085229087 -0.6845880983715694 -1.088163620075655 0.29003869142549404
P 7.50221561518353 6.335449136896066 9.303130095640016 0.36605361349922766 -0.1603962138342915 1.083602997288166
P 8.87501091357124 0.9880584052221845 7.269334909725517 -0.8317457020283998 -1.8972008247629455 1.1771369020822695
P 4.64562691001768 3.226551328781592 11.930640255946816 1.2283954431469295 -0.4576787313063924 1.2601272270325719
P 6.421121257673397 2.2108925373531534 3.3168607991494703 -0.641728837114198 -1.8568936405034666 -0.012655741090797559
P 2.7547254763708695 2.450636520205178 5.801615162513085 -0.14385939252153288 0.7206426780022815 0.745175373036323
P 4.635103155871493 8.888181918538967 7.6109877957705 1.6338144458176571 -0.8861595008925901 2.4709499514030604
P 2.4372418039004202 4.320527730782453 2.0724450479089644 -0.5416334770524929 -0.3798676365641845 -1.259326328397831
P 0.41479717194855364 1.2214825428030707 3.7353771720761717 -0.41471662592256964 -0.207994532438545 -0.3344205599749789
Ni 1.380047274229812 8.51836843581458 12.916882870816764 -1.0631827817606012 -1.8811005767669733 -1.3103966647110852
Ni 8.061960023047607 5.050646964407388 6.331332848294688 0.4489020135550269 0.30221029379102143 -0.22468716260287758
Ni 6.942965236522065 5.538058039964635 1.360792253025402 -0.4018459406074885 -1.0493944697272573 0.3110307202961289
Ni 4.013511884623933 3.047927147467698 9.757581034207963 -0.42485937078352637 -0.12355950462191624 2.126408500943996
Ni 5.558788623862881 1.2804864079451124 11.178314875729797 -1.4413681455263563 -0.04411473093102725 -0.296716874776618
Ni 3.282041061671098 3.7375453077842344 0.0633531863861613 -0.3016927307246546 -0.9126212946285444 1.4447424613152278
Ni 6.750592129286448 3.2375131842961324 10.238730988720041 1.1477139688354623 -2.429706371372241 -1.2286124442537423
Ni 2.4602654290032393 7.817536744729343 9.685356761177935 -0.0007011398320826634 -0.8823979769676288 -1.2763025512408535
Ni 5.566338881487692 1.25442403718095 8.763793754496632 -0.11814810379835781 0.833743706295035 1.565926266616116
Ni 0.817532574308829 2.2314833016657554 1.6018272367182118 -0.7999573538732094 0.6508649950875114 1.4023136027270557
Ni 7.089002133075045 7.3517790623355985 11.64339396706788 -0.8320436928847927 -2.629992222312619 -0.6831842760455074
Ni 1.5215353735964867 4.068302519585216 7.215950859795819 1.0963842082132345 -0.5469165798283032 -0.2114963749442164
Ni 8.635005934159347 6.270731311354012 13.789605031971247 1.6122457185079462 0.6700842483284395 -2.407739637293163
Ni 6.001177792842549 6.560773059815272 3.164090191351843 -1.494117155093614 1.2287507696038193 0.6249140795497043
Ni 1.3704929358774276 0.4013334779815449 8.272793976241173 -0.38501549931371115 -0.38998955548953484 0.5954453806666261
Ni 2.652936818021565 1.408467935338514 3.7096885856709654 -0.36331641707372264 -0.9232702897019582 -0.13913524757298618
Ni 9.311574266482381 1.1075109378912626 13.13309242101308 -0.7473261008307387 1.5308816163071572 -0.5326621267918181
Ni 6.865113691235124 2.9972751722414963 5.6012453071091635 2.1930648646209647 1.9900708707208048 -0.930981542303287
Ni 4.124696419128557 3.090851760260605 7.618859638442294 -0.6958904107582661 -0.18610750255746658 -2.776713252652663
Ni 5.932172166674061 4.176494914957044 3.6118978353405273 0.20452148628828004 1.6143537659898841 -0.2587203409281867
Ni 0.4919384337404193 6.959613088519488 10.528078299905932 -0.9402161735276775 -0.1950055763780448 0.392445216118879
Ni 8.239680037707666 1.410304232563314 9.897432312292025 -0.9805583247901499 -1.6892759692200716 0.17235235775490318
Ni 6.52374883353657 1.6972885927518104 13.134933378890736 2.112171017188375 -0.40808497953866496 1.2285155136645616
Ni 5.427842921253812 8.537001725928157 12.815504349918683 0.611083087203883 0.8479940455664621 -0.05418805600662926
P 3.397942176864802 0.05682174747541428 12.432854497101546 -0.022618251620148144 0.23100359173920862 -1.303460599712884
P 8.15962866427325 7.119902261502514 5.545610161850587 -1.0633553027827236 0.013584423552654025 -0.5269339660587893
P 4.433287565952006 5.587824491148419 4.410839997542044 0.028093672912422582 0.4850686932835711 0.27533043868104196
P 8.913899400991872 7.386016218207118 1.9430709174425416 -0.39055108441995967 -0.11904053370564016 0.8871514324922141
P 6.26322766025775 3.220222162204744 7.767060010050482 1.4474364632076233 -1.4671532249102603 0.3523136382053158
P 5.519415428545348 7.105966909466597 0.9135709191658542 0.6994881554118534 1.6024295037484726 1.5828839775163772
P 1.0594968921808903 5.645085272122758 12.190779255691542 -0.6909168688030746 -0.14114199359036983 -0.42855841690166835
P 1.638433868501123 7.811207578152495 5.070559137664328 -0.8471635792453668 -0.3381265480716563 -2.544672477898192
