# total energy = -340861.7851366384 ev
CRYSTAL
PRIMVEC
9.35352251381629 0.00000000000000 0.00000000000000

0.00000000000000 9.35352251381629 0.00000000000000

0.00000000000000 0.00000000000000 13.68982566751738

PRIMCOORD
 96 1
Ni 8.135647143998378 2.851281045695533 0.6556548053478909 -1.202825050876993 -1.1706438381587583 -4.474671065917448
Ni 5.663604669981706 4.290217600844237 12.776098043102406 -0.34842073090881287 3.1272533438973236 0.6196484602753909
Ni 2.5585719111014207 0.7590916697890758 12.240470445137783 0.4350784774083733 0.7503486897071464 0.09856143991568186
Ni 8.635069126887048 6.157180701278334 12.128966167499584 1.18215235301899 0.9986972004827058 0.7717891189691095
Ni 2.4955104620877604 1.5034758607248322 9.598525910811317 -1.4727140068274895 1.3991573164862612 0.23403980746237113
Ni 6.984265932520244 2.127477410420523 5.355788661121507 -0.07763805949945339 -1.0804644516591844 -0.551770822596811
Ni 5.794198551786621 6.670857452529035 0.4945048360855713 -0.42477529571015227 -0.0010240703891401719 -0.5631870348535526
Ni 6.5136808596447935 3.752296519151025 8.343770503493063 -0.30152123814379683 0.724816606874313 0.015905872596979058
Ni 6.446232608556466 9.194484603393875 0.8231146609205954 1.7909394450998446 -0.25907206784065057 -0.9839115575330991
Ni 9.030189979851164 0.4224593286652625 8.999855570878129 0.42696381872103883 0.47733352942284246 -0.8162195813683427
Ni 3.306947250108095 6.047435821231274 0.5754736040159709 -0.7058799178708102 0.9683047042337777 0.3548924546760856
Ni -0.1840950954230154 8.3836932084293 5.778913960592135 0.11821778069402865 -0.47947217303240003 1.6564409249679217
Ni 7.7667348612117 3.1944992020448755 2.6134153552050545 -1.567777203781926 -0.4955770490140627 4.874114053510399
Ni 1.8013200791973922 0.047504670313049585 7.185283420935771 0.6987309655308547 1.3180431255127494 -0.972252633137932
Ni 7.568711435363551 7.823005652856045 4.0513529541457105 -0.9444777770175088 -0.452123348705802 0.32409886633399665
Ni 4.159099921776675 6.189730959742816 12.136783841644586 1.730308461681349 3.3340569413515615 -1.3791230235432055
Ni 8.817836957460607 7.561883363904047 9.804133172740785 -0.7570194168591027 -0.6654778599046798 -0.5965419561649146
Ni 8.832147846957922 0.13865287683163777 1.9074170854510193 -3.007091552103047 0.7005999004187934 -4.023372784216103
Ni 4.991703731321471 4.779219759615252 10.165516805229174 -0.5857150407527396 -0.14212029834323908 -0.13319214261567386
Ni 4.089528421070118 3.7093544971365313 6.816438483511432 0.14152174552729174 0.12269124308434998 -0.22056722689723304
Ni 7.080083417494427 5.954658231084952 10.553308237925252 -1.83179478855331 0.11062094218337723 0.18454864271077892
Ni 5.387694461882483 2.50847444433827 3.208977519595787 -0.8543942926658511 0.45546244038136396 0.44208833306730316
Ni 1.6549655119003366 4.474800014791964 1.3628400371131744 -0.6958420740188338 0.5959097218975543 -0.7166957775393914
Ni 0.4306043760994208 8.162781712907995 3.196313785419045 1.6163039477377195 -2.1455295380441632 1.4096646437754883
P 3.6539629366116277 8.474852639174944 5.982152910612638 0.33423801165052763 0.08315564688357292 -0.12006383276383194
P 7.646785288065572 4.807467397707992 -0.05825093236760237 -0.3493632973277403 1.3314113192895394 0.0721865494665789
P 3.3679789847289996 6.036875694275412 8.8735530852179 -0.010930530869574726 -0.6381683734564494 0.6764071052226738
P 0.7722633002401345 6.60763699363207 6.574086843607286 -0.1673829295647698 -0.08277229540222518 -2.6809566291756277
P 7.706011792834854 8.027988099479359 7.984426874272236 0.26015450227155196 1.3157162771517856 -0.9712010519449661
P 0.5170889162759427 2.6662777232331774 1.6548121141305614 1.550244851325117 1.1927671524203587 -0.8530532052569244
P 7.7315188488212465 0.762600176096555 12.986579425631257 1.958759462202033 -0.6001147611178375 -0.3394792054448089
P 6.426936291541457 6.6527116187873405 2.776830747628322 -1.28536877520818 -0.9855472933643091 -1.4042517002900332
Ni 4.730553381801831 -0.010412341299615421 11.358914039989621 -0.08557659762023971 -0.6275548596066611 -0.25932506439172115
Ni 4.402983668674063 2.4067548866367625 11.041925966919575 -0.6642319033127205 0.1649630072693675 1.1951806469578576
Ni 4.1797057319482995 1.272359672104461 6.395708621165158 0.09606772695955068 -0.16791077704378177 0.16002314676558893
Ni 4.725614721896875 2.2750105215585346 8.673051911246981 -0.3179757841553943 -0.9106081208532575 0.15508637158560387
Ni 0.031974081475570744 4.066593583784224 12.273393909151903 0.8151772561467573 -1.1614058645002578 -0.36626984327509177
Ni 7.032754593405265 6.072110413710958 8.258852678343208 1.1540967324333542 -0.15208178043132517 1.113582831479708
Ni 7.029200254837305 9.274719119804313 10.440038950582384 0.20437236230492545 0.104086226388653 0.7046853833420766
Ni 8.801346697209777 1.9752301239186907 10.976022917756055 -1.0833165763959989 0.1344427271933233 -0.5776667165269664
Ni 0.8218697070695544 5.435144881764758 8.23428003925929 -1.3722833749135526 -3.6657624163882225 0.44750076233212605
Ni 1.2529698198639803 4.383790240407075 5.521900674095151 2.733886387295124 1.028523539815519 3.7771901707436113
Ni 0.5290155928759603 1.8428684263523436 5.8572057503695065 -0.19158678050448297 -0.3315409244343387 0.12597402760067983
Ni 0.4501653978025162 3.020056006538383 8.66693283679656 -0.3837086075768295 -0.6500394138624224 0.9094961187360013
Ni 3.129548341476667 6.0082071476680445 6.671681497865449 0.12427272863885694 0.4564312320525365 0.14691232041524374
Ni 3.8517338173509996 5.112382879226284 3.217615497668186 -0.25973849778005587 0.732984487397086 -0.560880498207563
Ni 8.484093919451642 3.8382460378378433 6.8889123822644045 0.18195234273851246 0.9943525503607649 -1.4718272333471618
Ni 5.953245849180315 8.832306856841225 5.898343477884634 0.4206779857123271 0.24197294626651875 -0.2504434456313751
Ni 4.98079752403136 7.46881581455876 7.645342974888784 -0.5150084182657969 0.8426068131126199 0.7025351697682933
Ni 4.2693124779510985 7.46615006063279 2.2648862687533753 0.45595917751212445 -0.0828388869741025 0.29901004168616896
Ni 4.6648261788622 0.5155979647819087 1.7059300502036194 -1.3510869433415957 2.4825299429311762 -0.30666164469415574
Ni 8.73116721753765 5.26749234362758 2.293976659227624 -0.051387610443356664 0.7217495379132151 -0.949350788839094
Ni 6.570877650021319 2.458938188927954 12.575815741559095 0.40868018992050265 -2.479972209506329 -1.5008763281943183
Ni 2.678699201175946 1.1673570279888636 4.3889580616144395 0.8537216920788588 0.25432658273586517 0.8412904082940414
Ni 1.9492740988500303 6.669828565048835 4.621055434750018 1.9551722590714071 0.8348163705339235 -0.5314958743978588
Ni 6.871340854807113 0.6255953899377452 3.1541359461966625 -0.6911323272479903 0.710322527023196 -0.37295702548728027
P 7.543831065387827 4.07460955260723 4.797092470498566 2.557270626278176 0.9791403613967008 -0.9680861604650683
P 5.455591682053079 7.354412880283162 10.80240844434725 0.2127976102541432 0.6399663458971365 0.26321925723980477
P 5.49779477578634 5.542925522076893 7.022483490296113 -0.6864562619285597 -2.063915267505781 -1.7986388706266314
P 8.80954973648373 4.836771983848573 10.111345879396687 1.596012287368219 -0.49619179977992606 -0.5112301821702873
P 8.58139861451084 0.41971968191116854 4.327326766198255 0.559790607577494 1.7267608535394068 0.35690382867915954
P 1.7723335128234181 2.6856956360413 11.380653497093975 -0.45411132567010826 -0.3765164607037645 0.13996854210755894
P 2.035588404916192 3.070013170463325 7.196343961347911 -0.34976464653121697 -0.7675686531298587 0.18169548953269998
P 7.47709368201309 2.0651081220753604 7.435519144995006 0.4338155515355496 -1.4506979075677147 1.004524348687444
Ni 4.732339904608359 9.186281564119922 3.7785425034186506 -0.6139958899753039 0.101624909332354 2.0603110950942907
Ni 4.784803812575968 6.840782896645198 4.610377453410061 0.0340257221261414 1.4933062291565442 0.45290830650094255
Ni 3.466827011008496 4.2643551110010485 12.391427880880348 -3.260150838090714 -3.4799302789793294 0.3643883099816628
Ni 2.8532546389530054 2.2729527465981363 0.6161623624488285 0.0484408691102069 -1.0116139085443738 -2.108387381776227
Ni 0.5568067790683942 1.827678305735585 13.015807312886949 -0.013119568101093533 -1.2281725285028462 1.6227579308931797
Ni 7.917317220700118 7.369443991016618 1.0440981785655146 0.874066831394114 -0.5804993008797551 1.206850112875986
Ni 3.7191663422886116 9.213977344382373 8.818684386603389 0.9389445059041054 -1.0748105958075167 -0.5349360104276594
Ni 5.57012556564434 4.6990320108175485 4.916413486929516 -0.910109069729652 -0.9582529764247303 0.1354631980380377
Ni 5.978547127670667 4.590895936648617 1.628267752493678 0.8255028064424815 -0.02724238065572082 0.7168366739926301
Ni 7.49176935888975 6.113013367810149 5.968216162017213 -1.4289625727731516 0.34245371469210056 0.44938846627314216
Ni 0.750992454615399 6.474919862208926 0.38380683209094446 -0.12460311539508216 1.2707865065186308 0.22227161118284944
Ni 2.537002688107428 7.878481395083874 11.709605660854228 -0.438522984313548 -0.577092074970419 0.2699475771025738
Ni 1.3117660625960883 6.281264531390352 10.34327956588769 0.5359446541978319 -0.7052042319600241 1.340892519307097
Ni 2.3863829145288196 4.08336444971147 9.830321165168618 1.1540165140147223 0.20213395989270994 -0.32268861625003137
Ni 0.8792638567718274 1.278617178688581 3.0009327296904993 1.4314210616159735 -0.2922207866784774 3.085778107471673
Ni 6.314151516666536 0.29336481652467483 8.245998132306502 -0.4294971266658538 0.7714559039994069 -0.6575794309932095
Ni 1.7145100364362256 7.41987818459147 8.310682417482113 1.6977374697238634 1.3065940031355434 0.28020396472325937
Ni 2.519249702312719 9.212854921676701 2.2092777065053752 -0.19101676693362588 -0.4258070794087764 -0.48190752194677006
Ni 2.808049064482074 3.0997854327312697 2.639070196847693 0.18741130897055466 -2.0389264587709275 2.8467806988937103
Ni 9.178125292458708 5.91684193942636 4.58228601914386 -0.4739214184174999 -0.13409074317054326 -1.1521691763933382
Ni 0.0025319985535446413 8.596598088650147 11.766569548519328 1.6466442505924739 1.3280375177213 0.582254593007965
Ni 0.4741347346821375 3.4455383936909207 3.9018191245348395 -1.6012354834403713 -0.8142516590086945 -2.6509472272977317
Ni 7.331075841527736 8.023292631160631 12.565316412499788 -2.236548646836213 -0.19388843205446607 -0.5488101973065903
Ni 4.115559274319156 8.355529752039484 13.618857907429023 -0.3778716891800783 0.3312190223185457 -0.2835065467339311
P 1.731748578490835 5.634917416329245 12.396315096411296 0.5196479739203373 0.35447542174332497 -0.33539552229373853
P 1.7734839960967315 8.715790026469945 0.1576872952153221 -0.07050504799909793 0.15235560291800213 -0.4171033809871913
P 1.6769182293187674 8.801805019814594 9.893185254856533 -0.8038145228357705 1.1321888766166697 0.7524978748396653
P 4.630311680662792 1.3970888952722398 13.13744145544384 -0.24765328448074767 -0.6718081729980817 0.5056102648803485
P 3.70173137626051 3.3341192331079004 4.619440081406107 0.39982865306714366 -0.7534720658274765 0.3478720574941944
P 1.4446141433348934 6.343933132457027 2.482293934728475 0.20330741137552083 -0.1856992113754544 0.47555355470428423
P 6.334860215586181 2.7187416312007873 10.248162659752298 0.4908739871114385 -0.2529708400389192 0.1228575934588852
P 3.9829263245989384 4.12088142864855 1.0465132580872185 0.27467480737491407 -0.8542865634433932 -0.38093772969991174
