# total energy = -381164.32449359226 ev
CRYSTAL
PRIMVEC
9.30767242331227 0.00000000000000 0.00000000000000

0.00000000000000 9.30767242331227 0.00000000000000

0.00000000000000 0.00000000000000 13.62271942547265

PRIMCOORD
 96 1
Ni 2.5585488675697565 5.0098826554136044 4.996009569526682 0.3082855534508239 0.14629705542874807 0.10619941607691387
Ni 8.252312761186426 3.4868402784026182 7.743439966255724 -1.075924397696986 0.34032252728171064 1.1825259343083248
Ni 2.6564562747784404 6.20372196316288 1.5223936322365355 -0.48831805345880414 0.9286215267115426 0.2784268182181785
Ni 3.1081576220393416 5.3441118678346164 10.644084891058052 -0.4979877153380843 -0.06038801416975407 0.9156708800881457
Ni 7.990515856294454 0.8426924697609557 7.046352071517969 -0.5043023447022025 0.6691437387920411 -1.9978518002178045
Ni 7.784350910037933 1.350850435442334 9.134578662188865 1.2396059671507682 0.16848824681380659 2.4049821291526836
Ni 8.502884613022625 2.719320294959774 5.502148701039074 -0.41002102021911324 0.19111652573628374 1.4689172587892185
Ni 1.0411748631217599 3.839061221799425 6.726449228635469 1.2492622592936096 -0.05237388561602593 0.8104973341725848
Ni 4.058163832854889 6.856590036538552 6.762767766797678 -2.014994373435362 0.6224283370133731 -1.446551746609825
Ni 3.9448522276301983 2.0599368508220435 1.7791411247879132 0.7329616045789505 -2.3725923999680685 -2.1746591084202676
Ni 5.962904552124732 8.712707474578416 12.511201205711517 -0.21276598568525937 0.25186732256209526 -0.8143694155334814
Ni 7.517565092676729 1.2655549244944895 11.483693728914051 0.06527670972062306 -1.1434726770606047 0.4520927525781827
Ni 7.785384061687345 5.043287892077923 1.5238921675118087 0.16293543531637747 1.3984664610668238 0.17667335372776025
Ni 1.2127431906317578 1.9360238066002342 2.199020470479676 4.759535155120538 -0.2523319209033396 -1.1529191671854853
Ni 9.261087616275727 6.856385267743174 3.392628947950524 -2.260930418114687 -1.3772972831883765 -0.42731426008192214
Ni 1.238916365750193 3.6200796104866857 9.446525306603641 1.5695600067139615 0.6472158283706982 -1.100080683228215
Ni 5.411927569795114 2.5425024401500615 11.328285382428458 -0.6364827582239103 -0.4256427859167701 -2.080672946580094
Ni 0.5129309401482112 1.0426082446894125 10.719691114915467 0.5181932437516817 -0.5120087122075246 -0.9419552677059713
Ni 6.243251648343532 4.267465464749714 13.58288661934474 -1.5808818594846838 -1.3972269322327677 2.7379875539476908
Ni 0.6310397197882789 2.393924063757608 12.589191124500593 -1.3212004401948085 -0.3795493339928173 0.06543328990314537
Ni 5.929657545893206 0.5628051725645066 6.0989054706446595 0.3804057684558416 2.832775128643237 -0.09832644108674034
Ni 0.44016076410679533 0.3363560155911981 5.261298713147115 -1.6801331263785386 -0.577503965696857 2.218558123796063
Ni 6.061705495895069 9.1711010383792 10.166717636830903 -0.5250935704159407 -0.1879386422289344 -0.8548830593768115
Ni 5.763692437238578 1.8401547796728226 13.38122937888831 0.5663281515856956 -0.9240066536473506 1.2280313749392915
P 7.454440457664913 5.679095001729524 12.798177226297085 1.2501096948955697 2.508588587691441 -0.7673429102722977
Ni 6.209511335468593 3.1530857572799844 6.060624875115819 -0.18681301326492342 -1.095557341436565 1.1797203465387296
P 1.8110310723664274 0.5987402346190066 3.919923488327316 2.9078731953296564 1.220612199657085 -2.123515495666917
Ni 1.94452171160846 6.348167732957685 8.856157323413878 0.5615772671642716 0.18619029207925997 -0.6702647397703618
P 1.8333881017528006 8.548119901456335 10.745029391809105 -0.16232582675683654 0.7299127904502978 -0.04043188276280134
P 6.87390230742059 6.372879603490917 4.2810211590038 0.2507488926869359 2.0551699172129836 0.24965103163706684
P 2.882316256081408 1.990836690054169 7.618315063072173 -0.6624244177903366 -2.0389848228126883 4.259806288721631
Ni 6.379171590112559 2.841976803391758 1.9953062343969403 0.5751799455493707 -1.0880839158776552 -1.5208214038576777
Ni 0.12147908785855473 5.888033634396178 7.3838957461223655 0.9261321846307856 0.308561689930346 -0.593889349033416
Ni 9.047625454765702 3.480632060833629 2.6854198901175392 -0.27726056582421926 0.942946170864331 2.2536891631712415
Ni 0.6591879830148689 1.7133377416256397 7.821388931285725 1.281428045392877 -0.31771764539800124 0.2616020333513559
Ni 4.723290110935746 6.335053222380916 13.560545413001647 0.08126742872192456 0.8313358681844908 0.0549105359949506
Ni 7.195454469873143 6.412092827805982 8.278077329481354 0.6591169506836584 0.7662684462611965 1.2385569570609638
Ni 0.9791113027769073 4.062882822821121 0.7344712306359354 0.8036579426532481 -0.33075930907330775 0.2732239338610004
Ni 4.117639860239953 3.6957602957242375 9.308894614625949 -0.21083920097619174 -0.9702859963298646 -0.1840087110469089
Ni 3.786668333199969 9.093084127339827 6.049399822060047 -1.9997523596746272 0.8429094319547031 -0.5940857813149382
Ni 4.061374979873331 4.419748294804023 1.722770136954595 1.293841074345249 0.28046107503938794 -0.3158409972005786
Ni 7.60652782659636 8.780690714644223 4.478673307976068 0.25025061289427863 -0.8108590883873776 -0.30084863755680447
Ni 0.7750294136297409 6.6166196236994725 10.861135160323466 1.0567871626469025 1.4602338720826078 1.2678621337829843
Ni 2.7900586060906796 2.7977281282448727 11.00826060903598 -0.43518466396893435 1.1571296057224072 2.0674415354914846
Ni 3.1982465843335572 3.1879709138745413 3.4303641138698553 -2.365442933407481 0.7975086352224008 2.197159860625945
Ni 7.155366324341458 4.340065310384065 3.903085908743657 -0.4913892361849602 -0.33154066732402254 0.17946377198870384
Ni 3.1934438253146697 4.9484334014548885 7.300183470269701 -1.1598734870161316 -1.6311060457475588 0.9975281198752691
Ni 4.551098169367095 0.24530370919145 8.104755436469112 0.27836562596293996 1.4861084258565245 -0.13187445224551483
Ni 0.14439643913046474 8.083573966121664 9.156797007254731 0.012108353227759792 0.46679637733694446 -0.4463779615815925
Ni 3.932016947228946 3.4901538098187497 13.202676573921387 -0.9358326997480013 -0.5206087951717099 -0.257409335426247
Ni 6.9825228456966 1.8160013694906252 4.315227786271851 -1.205200750198021 -0.7583713029013068 -1.5898313553684877
Ni 5.330922895877709 8.25887467031107 4.60868846230017 0.3552693783995301 -1.9639734023028046 -1.250000680121531
Ni 7.70015370444712 3.412434744299926 12.060071349543174 0.5970867729247911 1.1538969577177225 0.116458889021393
Ni 5.905718212178904 2.2739388573380674 8.434765480938067 -0.9184373870896892 0.6202909789553962 -0.6518386718546902
Ni 3.1373464830533577 0.9803585308942154 9.88589864161548 0.009502797284112666 -1.4146821515947379 -0.7230361179351226
Ni 8.714531778391793 1.0697308024046044 2.788897939327782 -2.4284257048876046 -2.2261230806275143 0.49869811114154755
P 8.668309876671255 3.3737892880084104 10.145056821348819 -1.4039763351414596 -1.2446224465287532 0.035581496649035496
Ni 7.021363763110977 7.406952712482034 0.7516252710851801 0.8068862197825588 -0.031073067255720684 -0.13426454974424618
P 7.428071821423615 8.512210900884885 8.489746833264563 -0.5589629694698761 0.9121965483862999 0.1319104476897728
Ni 3.821078798496148 7.64445659210405 11.21247932096915 2.645873669429566 1.0449279493154713 -1.745348386733607
P 2.730359194565202 5.375999953878627 13.106432447791532 -0.5024956305107668 -1.049833871257521 -0.500318677464106
P 9.284124105755858 8.294429979326866 1.6369878347340994 -0.3599626701101413 0.36773742895955375 -1.0248892854970413
P 5.260286969144493 3.345075118292773 3.5506387889046813 -1.085564491889911 0.39899921518731285 2.6891165392786007
Ni 8.77268611627941 5.463305922090193 9.565805922213627 0.3722414874774944 -0.6993724557695955 0.106029723268269
Ni 2.8195173896076953 9.156646222959953 0.7987500170398874 -0.5010516989753887 -0.0779825873230657 0.5864709450821578
Ni 4.564975909090276 1.2265930073373879 4.108066919055988 -0.5194764813394795 0.3006046398667984 0.12854281676912055
Ni 6.635737583049852 4.476553020176644 9.814311470751004 0.02876678772004723 -1.1124903697464774 0.3103884587264396
Ni 2.333275269635373 7.408953862073237 12.653476426275306 -1.5902681857955903 -0.09083218959222421 2.039273557697701
Ni 9.279274808374383 4.8198199826118815 4.922869878886331 0.9382500509402423 1.162007759750315 -0.8853393189841399
Ni 6.325066089769934 0.3533862639959636 2.3781996818070086 -0.649062908881766 -0.579293453497112 -0.5575321505606204
Ni 1.853353059302247 8.170758934590506 7.10840353188855 -0.0759187628155015 0.5498910890755949 1.3329339265816527
Ni 1.3025994611130425 7.004703029305146 5.3405693676745605 -0.11411764248272604 -0.2433520860022325 -0.5157730643459633
Ni 3.3265249269659445 2.8437638765150646 5.976096316383393 1.8460518126929562 1.238495507695409 -2.8511706004312893
Ni 1.201546060593537 2.5859785784780165 4.794202475542724 1.944785259410128 -0.30960452937256355 -1.8510407812671152
Ni 6.008121225213408 7.801849334370315 6.789195972143086 1.5753159353611321 -0.653447668213023 0.9717846923625781
Ni 5.231740337534165 4.787810896825147 11.730292135352645 -0.9226362556623852 0.8877443288812066 -2.137065723547526
Ni 5.253994982522849 5.375506647235214 8.211897916349386 -0.3671833562282967 -0.2700087693578124 -0.6040120392897146
Ni 0.3861827788776556 6.260498765517949 0.3896452330540631 -0.9975247774411594 1.7469522408856173 -0.6137999719144138
Ni 3.6418037181418876 0.7783596988564038 12.452173808141783 0.27877751668937795 0.3697516311761051 -0.8067360673579397
Ni 5.250895527574613 5.103117611018642 5.698846813578326 -1.7582419548668236 0.8859299013802872 -1.5195335382841895
Ni 0.7949934404119355 4.709738139750668 11.98167189316334 0.14785771504764858 -0.7289290863807898 0.12115192362168813
Ni 4.041931251984849 8.464993078205005 2.676523616725576 0.8376728661461121 -0.04293845123473895 -0.31194346191838535
Ni 8.142686994278556 8.091680948884166 11.551248816044065 0.7417308661311485 0.486890319873342 0.32950923871629056
Ni 6.3000936044062215 6.763569157401412 11.007607210425274 -0.11646634522056071 -0.48756163490875387 -0.275432511476545
Ni 5.564955013650801 6.201664967536573 2.406793782547174 -0.08296589947027001 0.25140812353748965 0.8251078849969081
Ni 4.411948465234589 7.52876222271495 8.92867060769382 0.0653535857051455 -0.9534846085018095 0.9714774455348043
Ni 7.794021581783329 0.517284138584517 0.18366271717887947 0.630663837549288 0.2502074183611691 0.8447822234973837
Ni 0.7934809436278866 9.144536941015044 13.17656203713981 -0.7641411155055485 0.20588134275028414 -0.19788726880121404
P 1.6777172789022217 4.877453090838535 3.0265870416328906 -1.2429885104697562 -0.36329404847621954 -0.4958786394148815
Ni 7.404067334001694 5.470510060618524 6.258086216801484 0.3804348219215642 -0.39766506975692156 -0.884818156373347
P 3.6413383345160266 6.764230002150135 4.116963192447951 -0.006316172026014928 0.4162585164883928 0.1531647290828588
Ni 1.822879739480854 7.956710389711896 3.0078013661913765 0.1508149979037596 0.8139305282238499 -0.049883257983688284
P 5.006364355202093 8.630232188403289 0.6966811494487525 -0.3090694828047 0.033942932604348 1.2856299992893665
P 8.138368234230565 2.9214364036713025 0.8182374909892002 1.1518578158005066 -0.9060112455111945 -1.850545843908568
P 2.26913609831918 2.1211534129678284 0.17747311495492524 1.269691216571923 -1.2559070183036372 0.4875076417423669
Ni 8.601946171623446 8.042024516004775 6.549885473285477 0.0609513428723918 -1.6767295000136284 0.5720827946812858
