# total energy = -340861.106753029 ev
CRYSTAL
PRIMVEC
9.31994189719355 0.00000000000000 0.00000000000000
0.00000000000000 9.31994189719355 0.00000000000000
0.00000000000000 0.00000000000000 13.64067704070745
PRIMCOORD
 96 1
Ni 1.8193272418357334 3.218492857526849 5.427488739206239 -2.596181444410761 0.257415248963518 -1.961742456089757
Ni 6.097087429585125 0.7355177082919844 1.1336777473100417 1.15508789270203 1.7315359063305469 1.204920242843125
Ni 6.619805697717574 1.124553524072484 5.913110842116571 0.6588048187598782 0.36963438887195055 -0.9236896366275641
Ni 1.8153849063612832 7.314076138611743 1.5349441230033574 -3.455877866015816 0.2601264772470939 0.6687081939165194
Ni 5.775130032505009 8.111975014826042 8.303584634808958 -0.7236940632340956 0.21698619441419403 -0.892601914083824
Ni 0.5558273621584177 5.5393354993995825 11.302937695620082 -0.2404331125832246 -0.6331374959007612 -1.7962603430921258
Ni 5.613130800313763 2.868072357517722 10.337273339086778 -0.24779572359588295 0.9742064144301933 -1.7683258214653867
Ni 7.559796409968447 5.121876656440758 6.045466134724875 1.629287504481581 0.2155911138388803 0.1875961712878511
Ni 6.690106020374262 6.105028020186146 10.104699777943456 -0.6167839942434022 0.7882236103760489 1.246005700029525
Ni 8.83313348844785 3.9672010797597075 4.309090104843747 0.6516836343340647 -0.2422567960555247 -0.10472668818612932
Ni 7.785096688359378 1.2680153915859949 3.481182879313526 -0.5676147316076031 0.5511478443008314 0.6207267809412342
Ni 4.009765254964944 3.916388755866791 5.36549248488935 0.3103126111831817 -0.154172858632399 -1.9344818206015912
Ni 6.310066744625647 4.699916281486285 3.9538866105899677 0.21505658149164897 -0.2825914911188295 1.0160544608142308
Ni 4.610025440703604 4.285001782698914 2.515013381922739 -1.1404948253792033 0.9741534497050707 -0.24440238164361783
Ni 2.7773334020112226 6.283094832419833 11.678629218416377 -0.5527622399758028 0.6428680929249637 0.6093527347763377
Ni 2.3042345051931337 0.541257496798587 5.8013116136275285 -0.9616596881134342 -0.19569180381179202 -3.0906776016558193
Ni 4.199267636057143 0.9586492361748675 11.346588576064846 1.893817253002693 -1.1451158690909826 -0.7634446036591561
Ni 1.8254597636848786 0.9495436528213497 10.980813471577807 -0.055335796457827276 -1.7523654414813885 0.85316839067855
Ni 6.298183818550176 8.906313673188711 12.938905330148982 -0.7539939997692175 -0.3135496300632406 -2.181092008529805
Ni 4.300864324016916 0.3845053919645885 6.924212711979871 0.8302094678895315 -1.4920286479957015 -0.5251650470838245
Ni 6.372100278710617 4.246901859721247 0.9965031126832075 0.33620464845859516 -0.3084480471706172 -0.7759100831160185
Ni 5.789287024433354 8.60198960641039 10.595354649544573 -0.3911388386026296 -0.6633155621460383 -0.1319559562157276
Ni 5.491505556953059 2.150455461863508 7.65753557392615 0.43985507286141023 1.6089120261490228 1.039047065054662
Ni 7.753725763520134 7.338158868791366 12.013466775368103 -0.43101639152385773 -0.14486289408538278 -2.0408010500858205
P 9.085638677595094 1.908258128590357 5.2881360341293355 -0.07748662152325365 -0.3451070931545476 -0.22394822755432398
P 4.506424965209535 6.588770290791049 9.354872230673998 1.0711426600376261 1.0913193920958173 0.8389447908800003
P 7.81758600624102 1.1768197589205167 13.198515111098057 0.40455819733232906 0.8966138634566945 1.3853967723670593
P 7.798880882606924 3.6871927417115087 2.412204169506167 -0.8057276806980834 -1.0414729008873354 0.9805372417442273
P 4.002644819261681 6.175682500639594 4.1834050947391415 -0.14540873928652376 -2.3221409281857364 1.5215513400451666
P 5.681548494682417 0.9376700466878987 9.393925583720307 -0.5195708408254988 0.08355699608704964 -0.9064606743437874
P 6.341176711088331 7.578268535052041 0.8558446837293058 -0.09647164726618869 -1.4476868886555325 0.7638618937022328
P 2.159076408231987 0.506799807162327 1.6101318232553223 -1.1521933447630546 -0.07198394653746958 -0.8774761141859792
Ni 4.213461907753569 0.24916958189829577 2.299613677939629 -0.7281011911628558 1.3558787083032842 -0.056054419791406684
Ni 7.913301810786187 8.300852959802903 9.78614881967164 1.5689239157918593 0.2412653786765329 0.2800944357285886
Ni 5.214097482728433 7.029929746306675 2.747327848677906 1.5474210087230769 -0.31477913159496757 -1.9424067318756226
Ni 0.2978597549932633 4.445053147007985 1.6966003813282682 0.4414080191708269 0.5892477364963464 -1.4193139939397945
Ni 1.7201444188591348 6.3660982360497504 3.888002076462344 0.16429606310932995 -0.567942547260667 -0.5946377971636662
Ni 0.4877917854125832 2.071058875795321 2.8532611056595742 0.9420449992063001 1.310120528231563 -0.5490505954521705
Ni 4.242819725116497 4.570863044335659 11.508844106661643 0.4176780225437387 -0.529270841722082 -1.3783810031708583
Ni 7.852451909337755 0.20813294519013362 7.763427823162932 0.35713882750810105 -0.01612955857201093 -0.41043239672491894
Ni 5.758689654781769 9.171111865860306 4.07768992440074 0.6156511661905397 0.5106421708773012 0.04953281662280501
Ni 8.263135154448054 5.224964535123727 13.009114317373877 -0.5254206147380565 -0.951558338013374 2.2168120876392337
Ni 9.168511602036732 0.08015522934861297 1.2629276352372891 0.9046141080533517 1.528052374388478 -0.07140030611985768
Ni 5.163685916342376 6.900997668402309 11.802391524482262 -0.965010349753222 -1.481816740459706 1.12641160781326
Ni 7.5778584576031625 6.998586781293492 4.4801846684522895 0.8641963663579375 -0.9738253769416905 -0.6257939110514965
Ni 0.2288427883527252 4.733663791540622 7.739379576768783 0.9718985922326231 0.742349987772386 0.8842324590732061
Ni 7.853132265105213 3.662895652865428 11.367171668015967 0.7967149356765117 -1.5213027143694704 -2.4147901163820418
Ni 2.7781535569089804 5.264425169636311 1.689274906900566 -1.7684476917552316 1.1801569198555157 0.6122976763372745
Ni 3.1838879128066733 2.4169964836928393 10.0641328663131 1.773208603478985 5.140662889344069 -0.7204405892938044
Ni 4.655124640138274 5.66753130188437 0.3070799736336268 2.2832118552207064 3.3700598418087315 0.12173453559803553
Ni 2.630730714036979 6.39963138743763 8.384406240012 -0.5871278619398662 -0.1607713377855231 -0.08883084289147927
Ni 3.5959039096258305 7.9667330383867165 0.6457554827091788 2.7447665245427375 -0.19687322571440288 -1.6354902908581832
Ni 0.301263397818959 2.815041887424051 12.683633982210209 0.0860702494272066 -0.5330912439094367 1.1035431878555189
Ni 5.629720297109323 2.8849880522839806 12.613848120353023 0.32334707576963667 -0.7170973838531843 1.796582502318235
Ni 0.7785730444416736 1.536811839384161 7.455680541680674 -0.697805882613424 -0.18341658598886476 0.5796279540183952
Ni 7.481434337464477 8.459543612577058 2.4781427592975063 -0.604806767276868 -0.46542366535913393 0.6164471797292739
P 4.523815977018813 2.485740376032192 1.119518891393292 1.5817434361540308 0.5741180799437596 0.7765204630065078
P 2.392568915658479 8.280116088808455 7.157045367511349 2.0735597325740804 -0.3085562906137073 -0.20602506741700002
P 8.93086240046933 6.12395682242872 9.548787604312656 0.062465465524073074 0.9708475252602893 -0.9937637677368305
P 2.5120692122386283 2.7281241081457424 12.152861420184097 -0.12027029234768319 0.07736218013024741 -0.013718892247989277
P 6.383852725597808 4.958246434396017 11.981138692483407 -1.6142848604251618 0.5052122581109816 0.8851372302756627
P 3.373371654014832 8.329017824587275 11.989459536718842 -0.4583145651181784 0.4403284129534029 0.2182743170979983
P 9.441474063917827 7.406697722406278 3.022091855351463 -1.8223629537164487 0.818163592468591 -0.5138959019279086
P 8.590544717609857 3.0096795565692576 8.980544215395224 0.33066366403570796 0.27956427425673147 2.87075366476954
Ni 6.920662746064462 4.477486545237506 8.635708224644468 -0.10397772583524674 -1.8862417546482806 -1.0934215260404847
Ni 2.2355931322160005 2.7402027530036333 1.0515560101952135 -2.021259123398151 -2.22788197230015 2.0156911423920705
Ni 4.438081830377042 4.6492996763757874 8.680490546050457 -0.7553628550922862 -1.6788997681920699 -0.10180771476712143
Ni 9.156582076251162 0.23288577920099138 11.838156801983924 -2.701338792376406 -0.17547162011017522 -1.3733159299431252
Ni 3.3977060226289932 0.623118275536856 9.008889887054783 0.16640411059126825 -2.4432290884490246 -1.2475357635208064
Ni 1.0760898255686018 3.232938767657814 10.453014903050269 -1.8840686582563615 0.7462130702722181 -0.13265015406927477
Ni 1.3546256127776442 8.840123444962831 13.095486880044016 3.1081371918931633 -1.1061135196858563 1.373983388323795
Ni 0.6716556015826959 8.004422883915504 5.624760223966291 -0.052940299642457216 -1.1203857133341544 -0.7937756505425297
Ni 7.549050516819412 6.702687942101232 8.009041847180606 1.01925625558098 0.21748704531001253 -2.0898870089791943
Ni 2.6042341188741838 5.6715761567210405 5.899620226042654 0.8289092610208693 0.873143034028264 1.7099856909635969
Ni 6.973329738419354 1.2053667413277074 11.247011519540804 0.45467388304179757 0.33832040925001733 -0.3592247635028523
Ni 4.844841379896931 7.798834282896825 5.863417843260254 -0.5293801136064368 -1.0508355730491579 0.13131832263172868
Ni 1.2304280654194262 7.8085643023656806 10.37520829909069 -0.08827034240231896 0.17228396641081295 0.5386877641606078
Ni 5.406656804803185 2.3296686269656517 3.275372463674771 1.3303947050995668 -1.121742484472365 -0.07917017987326365
Ni 3.8255100012299925 0.8929501688934414 13.458315018864338 -1.1114179626179053 0.6030977550055613 1.896464203707237
Ni 5.562607394623465 5.807069473807471 6.758819156904949 -1.2911470724528538 -0.21326118015412301 0.8025587960517985
Ni 8.753065866554223 7.326611460628614 0.2715262588158174 1.114632612900461 -0.03841485233277255 2.1797828028000783
Ni 7.6475995837386535 5.968080792144599 2.4034331720711664 0.46091343619360625 0.07076472941838781 -1.6942628809117015
Ni 3.067547076571296 2.2333190663631264 6.962869967490333 1.1788942510930085 2.5621153559649876 2.64698181489208
Ni 1.2584717709575381 -0.04209538212163158 3.5089003868809385 -0.07465995070773594 -0.860856246241111 0.41425716978764787
Ni 3.6241806137144423 8.193477907790744 3.938350267242666 -2.600901989814882 0.9420840799743517 0.7179425054622991
Ni 8.025215674562073 2.9581495971408027 7.0701406361518675 -1.2003030557860876 -1.4993074410453018 -2.7805503670105662
Ni 0.6230306680818681 7.76773363637616 7.975144286059746 -2.155801866504449 -0.038790747614952555 1.7267613677600393
Ni 3.4453402462930973 4.045516552553577 13.613859259212548 0.3920806336906087 -1.1960203692503337 -2.9320400223838474
P 3.853702825840424 1.6668902701569845 4.462861692219758 -0.6405029351268969 -1.095627789663184 1.340197035901969
P 0.35765184302242786 0.41855207215776763 9.515873297074902 -0.8924679596091211 -0.9339323974014947 -0.7857067574914661
P 2.0292030161836028 3.4496367395643066 8.55607398005477 0.8264906242770476 0.7274080217505731 -1.686155678423535
P 1.0477385619438309 5.740711486625232 13.22751504268742 1.042408011107095 0.8568823491950275 3.532843582038593
P 0.5235309670765902 5.471048284219209 5.668083042451953 -1.268847380514389 0.1984703949981937 -0.25523366793116686
P 6.9348104180507875 8.21623720620353 5.911665319109273 -0.21769736154860572 2.0332630898375625 2.5991096738011494
P 5.837788002705317 3.679298750820588 6.173839016108043 2.3405392281872657 0.24242417487132442 0.4459573291044061
P 1.8291504607247895 3.9394462924242153 3.101398969976258 0.3031626304019618 -0.7154847879504258 1.035931402243816
