# total energy = -381167.2003982212 ev
CRYSTAL
PRIMVEC
9.26946293290476 0.00000000000000 0.00000000000000
0.00000000000000 9.26946293290476 0.00000000000000
0.00000000000000 0.00000000000000 13.56679597397509
PRIMCOORD
 96 1
Ni 0.5647225520329527 7.626830523657693 10.107398079508632 -1.3576098320617782 -0.7666417704402152 -0.04094816027758754
Ni 7.008761286565347 0.7839175376282418 8.827696838194766 -0.2306140696102738 -0.3250753713146531 -0.744869154649814
Ni 0.5015687753864748 5.003146170767086 7.45622976957104 1.54507179176461 0.09172976170582911 -0.3881692144513444
Ni 3.1413282305741745 5.31355266979992 12.80423332461913 0.19261445043804892 -1.111329516669157 -2.7549514354955393
Ni 5.7596455645338525 8.66758726204598 0.9088884343929766 0.3722859675621846 0.18785302449366356 0.04574352478370186
Ni 3.1475665790033887 0.711692664736847 11.459831233326192 0.8866032732982279 0.022960465450915294 0.2783838807953851
Ni 3.4640074982849876 1.34240359512453 7.077417416298871 -2.0571478668749603 0.555621820911785 0.5001710961426483
Ni 7.234268776291833 3.328107904940693 13.106948950410183 0.6710764370383797 0.925077518114026 -0.9843283333555434
Ni 4.599887463390359 2.9840069088199033 12.07325461568938 -0.456636148974491 -0.37685173255599613 -0.8337501340529383
Ni 3.8435271115648084 8.554592511151299 5.323407035647019 -1.0545215065411775 0.153663008875516 -0.36301122712847805
Ni 8.073674244874189 8.253242277222983 3.403827365287978 0.9581732722267305 -1.371538012107096 -1.3355513095998417
Ni 3.3219807900644516 4.262794181106844 4.927921699730529 0.7371622729238595 -1.2072607180508435 1.6930706603758132
Ni 6.496586391902934 1.1410708642440934 13.091333613465377 1.0958175370764869 0.23139002854434987 0.011697748052902435
Ni 2.3065296849774333 3.3931239166531877 0.6608098028757982 0.5553089176570565 -1.605825931024531 -0.012924935591784193
Ni 2.5440596678877085 4.140483620150705 8.68966804925732 -0.08940368467581376 -0.3230385433902823 -0.982625491731824
Ni 6.860737235947038 1.9398111997522114 1.6645507956736243 -0.898616238598704 0.6040776024203274 0.9828206384617653
Ni 8.390958685265831 3.9273230548041798 5.623844227494684 0.7057899292601651 1.4586392739019782 0.5746803802051329
Ni 3.3807306449594887 6.355699827600367 4.170080087757893 0.5222543011949329 0.9591993994983996 -0.8370285476938938
Ni 4.247128789063201 3.5186046338690473 2.5605834121817908 0.0018447665182226292 -0.4290559253633772 0.7242635625843203
Ni 5.589764120756422 6.818069898919291 2.5051900297477028 -0.5459069076168662 0.6959911980021884 -0.07101721174882608
Ni 2.830606569807917 1.8148124945992332 4.64419920310955 3.3817555329791054 -1.944176936402168 0.363702853878864
Ni 6.912080790106648 0.6697548344273461 3.999219788714305 -2.236448888033555 2.032227706594513 0.5504999263041873
Ni 0.7844579473064337 1.4735757624674881 6.76323731898144 0.5975272028963193 1.8836374842562138 0.30637290980914333
Ni 5.20034472126204 2.1510715252354533 5.502800802096157 -1.0003645608828 -0.5393891611030066 -1.5842075814238072
P 7.625310331767067 5.618657036141061 6.918536970910433 -0.10708516111597685 -0.21820309754043066 -0.39515515885087427
Ni 0.9167980669556045 2.556925682181541 4.607229804832826 -2.615553678289786 2.2324078851949616 -0.47511543872560114
P 7.74354232911421 6.921146324673916 1.570031010981418 -0.3726227820763131 1.002050690335971 0.5568857752258732
Ni 0.9851677702902234 9.259331224934806 11.703084182536909 0.8285523919020827 0.011211552445103272 1.5901152051574938
P 5.099817397763037 8.62392809250423 9.228405516369595 0.8694316466149478 0.07435604631407194 0.5868491543571828
P 1.982497075705453 0.13626666406910415 0.37523155981272627 -0.982515962737153 1.2693479742998912 -0.33688419102412304
P 4.289017491220139 3.6054873082034082 9.844812738791273 0.705971449143352 0.5777896152580758 0.1420588489776844
Ni 5.813213789752915 6.332581787507558 9.319561413030653 -0.20330278338983052 -0.5378223308365189 0.3033300092177615
Ni 4.462032013406296 5.153478317609577 7.571520566388334 -0.906286096439136 0.20286055364608932 0.858683149849192
Ni 7.007843609753323 3.158198652775021 4.024576404060688 -1.0076616087648453 -0.19585609730379816 -0.32838875195860223
Ni 6.111495831511734 6.375174968833322 13.735566836109431 0.040131320803247016 -0.055835104691748995 0.33474811851772673
Ni 8.139144460261322 3.95007031638708 10.693497866530372 -0.34960909478995916 -1.6989949962800484 0.6341050020203531
Ni 2.435681109441389 6.37802996335962 6.389038377318809 1.0228979660986255 -0.10294311392314529 -0.041227124970587066
Ni 7.379085592799432 2.036380462657938 6.465704249812636 -0.2179328745981795 -1.0633342197368008 -0.33086678118544954
Ni 9.065868267927183 3.2820015972335432 1.0931838927431072 0.3724775147477004 -0.5926482775374632 0.04787779751788528
Ni 9.217294211373906 0.4454495940192401 4.9683643656988234 0.8140868512960561 0.20403914733522277 -1.82584885538252
Ni 7.388169666292195 6.039435028110974 3.7651788315822707 -0.08000167463562352 -0.6013244651552225 1.6079283220795149
Ni 3.3461277405222574 7.770238381827638 0.4246878513569012 0.2757040199703768 -1.5935005766899588 -0.8966601433135977
Ni 5.35242879656385 0.273115450398765 6.876601921439757 2.218821147649463 0.2951922106019755 1.0453825203543865
Ni 7.777079245335454 8.05401371438628 13.063766231253663 0.12720481468398737 -0.13946332033636627 -0.31116647454304475
Ni 5.854194084560577 5.0445621303238894 11.813558566510489 0.6836262486789323 0.03951579870643517 -1.3280316041840288
Ni 6.64625113742759 2.213955560515973 10.730453360612973 -0.007224542772897235 -0.04163927280734119 1.4458428934682583
Ni 8.999378411637801 7.210696532524385 7.843087089561955 0.7394348710081201 1.5105009957682758 0.20479710854716987
Ni 9.068834496006453 4.064436947768425 3.1068643680781585 -1.6836763636451066 -0.8188642180800414 1.6957764893427505
Ni 9.333051262167409 0.31482617887094677 8.526337334803703 -0.5637825023457065 -0.9351636987054346 1.3177495055317305
Ni 4.109125027675174 1.1856847884488606 0.0008704025520107261 -0.5735807193830509 -0.5309235468341567 1.230235581679462
Ni 1.7243518076442526 2.6224422448824125 11.413392151906399 1.1157934659777815 0.4576293661256957 -1.2669470781678827
Ni 1.6042751872103127 8.22226373272011 4.236055488864777 -0.37936807121994665 0.7811561620063063 1.9853300136017098
Ni 7.795006386289541 9.065182327683852 6.450522723724423 -0.6650479714561127 -0.1336325725872021 1.0376134179319292
Ni 5.3919445162573725 6.3893572468373305 5.60019690107898 -0.1617306163749989 0.7316243738247658 1.3381764059275147
Ni 8.10393904074549 0.3409308398610703 11.227961184369672 0.07602186405226907 1.9531662843849718 0.49874490521908305
Ni 4.186182071496955 7.638927172543465 7.617714933991586 -1.2994167686608136 -0.518739603173455 -0.09861877551617854
P 4.553160101679112 6.786053174588673 12.309465554050655 0.3768018531546672 1.0743645094090337 -1.2346617357716156
Ni 0.1239160319040446 6.218446892694906 2.965239954540873 1.9096801881768788 1.7527102264153167 -1.478835289233879
P 8.558745230462275 1.8171113213606673 3.179188424220954 1.4938281630982853 -0.30200640531033146 -0.827864878916755
Ni 6.203597213373062 2.93637113975938 8.566183047371045 -1.6589968586205557 1.4616729185219794 -0.38296350188068884
P 2.0786028654737936 7.117640396000043 2.6867954900084454 1.183552061579994 -1.1959355228460113 -3.4325163084717403
P 9.055977751175368 2.100691995201606 10.181757709670826 0.551990651917101 -1.261077506760983 -0.5014466204209622
P 2.276255619643386 3.155668089444894 6.494099395047721 -0.33393333592591523 0.11329257547826939 0.8421879804076462
Ni 1.0870762437386359 4.958272701605383 10.31217534274612 0.19013179322551127 0.4456433974084132 0.02901978427111776
Ni 8.354381385263334 3.307279422146571 8.055271580481145 1.0211686421123445 -0.32129507833661436 1.3402515432889883
Ni 6.7109612568694095 4.565553373372811 1.8660040295697808 0.207956480111758 -0.20230159581882579 -0.30807960808760493
Ni 4.691479024800561 1.479758494120216 9.604613150609657 -1.3681482696992566 -0.8108107516479455 0.01744082118426674
Ni 2.542789751491271 8.8003445075188 9.496214199345292 0.5569163713534925 1.0814221875867633 -1.0339105151590453
Ni 8.697889135768271 0.496486328961901 1.2806448726215836 0.5462231533057044 0.1676302696888855 -0.17448405938592532
Ni 8.536498519867752 5.368344464101681 0.24649355338731874 -0.6488353662519922 0.18089227690511428 -0.12365746365236124
Ni 1.7333524559722868 0.8685050929862681 2.6025184616524673 -0.7956942077214813 0.507624724207216 -0.5276137657346333
Ni 8.840564706381148 7.1914994751738615 5.543419587856658 0.11399474375161657 -0.6944809320052491 -0.7607853116594381
Ni 8.086818343050455 5.606764315435738 9.215721183545618 0.007883516513134809 0.6311343494278034 -1.8375455749941578
Ni 3.8448989920514705 5.820499587472621 10.202107888187166 -0.8938712677145509 -1.4084143163081548 0.1752728738358078
Ni 6.558728870163636 7.498022069315402 7.532149450313676 0.38611104637073507 -0.37909579139516647 -0.19037167715045925
Ni 7.235353303433315 8.058314745101221 10.043675157849442 -0.02326745516837283 -2.226890040700526 -0.6085392377361069
Ni 5.49772762513433 4.9796758910898635 3.9772826781755555 -1.6570765016693911 -1.901218687673087 -0.4013000954063476
Ni 2.6074164457683615 7.39306394262299 11.365908402034938 0.5856458780777011 0.8648532832156459 0.5787959450354032
Ni 0.7549606629506453 6.325295989787851 12.290323186530344 -0.36771686013426347 1.1549146003489594 -0.8407365926731004
Ni 1.9928232572064108 4.472664087177929 3.0593935954545444 1.1074036992521896 0.08321092560154056 -1.1922806997022433
Ni 1.7928716762753845 5.600405463990803 0.8943696748912259 -1.233773162519075 0.8125166785954586 2.2162073641756996
Ni 0.5916253137656549 7.573049100795432 0.7654861379006792 0.17004762088112652 1.3713752612769865 0.722447078200872
Ni 1.714832069402346 8.571416586038406 6.852073069116745 -0.04247873798950104 0.04740188632273126 0.1310280450848195
Ni 1.0241829389953687 5.410446363901817 4.978471787878935 -0.4503832260862437 -1.022977156075993 -0.21826840356072733
Ni 1.776974547663048 1.8616881677144432 9.112070051100634 0.292823967480115 0.13235550564699142 -0.1678714391654141
Ni 5.599645368045491 9.201619549867514 11.519851004617667 -1.1196519204919233 -1.1634920576053251 -0.9916300092232793
Ni 4.19813967844151 5.109253710840214 1.1647580493496121 0.9399438937028973 1.8973427496574486 -0.39198858819743454
Ni 0.12281018499824183 2.069954456730173 12.834703902563428 -1.086828189093683 -1.2439745285321093 -0.3268538033713145
P 5.940724519310525 8.393090661697807 5.08128032616015 0.9611338975169511 -0.3827295314930118 0.3193135291302113
Ni 3.769760727018468 8.883556474605063 2.311184809169337 0.30563011810584784 0.3880455443892865 1.635357879045377
P 8.079208114134577 5.934532518195049 11.271253283186615 -0.63045583530354 2.4486281479774084 1.6293921483802454
Ni 6.014324053527406 4.005362661677218 6.394044814148852 1.1095518559434439 1.4318506929542243 -0.4986839700741606
P 1.0990245812204444 4.2742605065257715 12.612832823072873 -0.2336294593978299 -0.770978450142356 0.7207195539868039
P 5.414061454373427 3.308030248629136 0.5162710702506305 -1.563438724307572 -0.28976718293166226 0.40042437766961364
P 4.388543712742387 1.6070467565718805 3.1041233879436585 0.284358096100949 -2.68407126354521 1.152962618828911
Ni 2.147567668316816 6.717802120377225 8.60393942303505 -0.20437056253271252 -1.1532120158355559 0.6167235733191121
