# total energy = -340862.8995860756 ev
CRYSTAL
PRIMVEC
9.34696691968756 0.00000000000000 0.00000000000000
0.00000000000000 9.34696691968756 0.00000000000000
0.00000000000000 0.00000000000000 13.68023089286061
PRIMCOORD
 96 1
Ni 2.136034350463514 3.124158324407954 1.9960139792152654 0.8429130314991289 0.8830155559469696 0.25032543199627205
Ni 4.627365614332531 3.8117773060871376 1.284626594897471 -0.0499202818692108 0.6387324734900354 1.533534480548972
Ni 7.651558125605899 0.711037807748254 1.4906935703710862 0.9571923963707 -1.4914329233932313 1.6019692762826023
Ni 2.2695744694213276 7.547068380394911 9.436582081775974 2.143922341458043 2.4816313423763066 -2.17429169777852
Ni 6.689979538225482 6.637384154353738 13.463003140347695 0.5665315258457533 0.7675267441483298 -0.0747386264644713
Ni 5.940119102627345 2.6272361655031315 10.869175839350122 -1.1609253253194136 -0.4053380129211471 -1.206344119773845
Ni 0.606249894286775 5.9840965828328825 7.3657923657606466 0.0014053649879588702 -0.047819176365807965 1.8385359639318852
Ni 1.2683086597342774 0.6158819438833331 10.479959717035403 1.7613987553282502 -0.17402151792720996 -0.2563826939339456
Ni 7.136615014132262 7.165786898451386 7.329402753446895 0.28899996574833453 0.9283430762391754 1.7290632764203382
Ni 0.9879744224708392 4.0891392078127735 6.0687698230951455 -0.9215085698158453 -0.653135793399559 -1.1021856453863599
Ni 7.24018875656745 2.444147773948176 8.56036373673967 -0.2782121311042112 0.17357568863904302 0.41017348663657743
Ni 9.291492850269393 8.366956293506306 1.4724165109037306 -2.0470902255286423 -0.406785544000951 -1.0014711636834173
Ni 4.624262421255327 6.523407237536241 8.521976677556648 -0.2105260406111471 -1.238462083354312 0.31940994549875956
Ni 2.866817626210535 0.9059015084557994 2.2797280797820663 -0.4829112806209361 -0.7941494889421806 1.7039564540503818
Ni 9.106880903077135 1.9938763278394935 13.365093659975111 -1.3326490483513822 0.19234217061326878 -1.4893277041247706
Ni 1.1388999002346674 8.387500927192123 3.3690993360505015 2.374869883148336 0.5854090794765466 0.4625759114976937
Ni 6.513592922081233 2.247571708867909 0.5836722952567058 -0.5380372750608025 2.590490821783887 -1.8078300502075961
Ni 8.99369847846314 3.097257753094131 4.166423670582479 -0.0011112307863077636 -0.6447054032440188 0.6436898174953107
Ni 3.736580955767574 1.3394203854311377 11.73869147427901 -0.6308001060168361 -0.4571524264892772 -2.204186171345107
Ni 2.3589314748974033 1.988464433888589 4.842254257355132 -1.5175324486937607 -1.80535459208391 -0.3472187401809117
Ni 4.1800478098274505 2.701666064520495 3.672280364996489 1.302486408725073 0.6321969863643628 -0.4869664245269162
Ni 8.588535495579094 7.584923597149943 9.190092277684956 0.028163864028725692 0.1929245254793 0.2121288663218927
Ni 8.57133707611508 2.3649976565453086 6.540628089721296 1.6247281672456728 -0.25045167316149125 0.6397308328475627
Ni 5.553622013042017 8.38239748315552 3.4536426534700735 0.9286593219280136 -0.520299234351091 0.20964800888156795
P 9.3020923109608 8.01854809485351 7.029969858308011 -1.2462406988584667 0.15270630138920152 0.6911426116606355
P 1.0718727991605104 1.103044934439037 0.9991973258678187 0.6382791880027008 -1.1185512312285766 0.7083602610905027
P 6.29835096370225 3.2417525174931536 2.881671826325868 -0.26409780319001613 0.4662921840070163 -0.682967532049011
P 4.09711217074908 0.4836728330405608 4.377646433108459 0.7117428044094903 2.2877745348907244 -0.03480399505306264
P 8.431637305838361 5.582354589907442 12.819046646082779 0.0283042462613319 -2.48074585444756 0.04099855389954875
P 6.231379944430692 7.186004388288704 5.438439337468619 0.6248446597643497 -1.3275873175577588 -2.7197787442491483
P 4.900250318817262 5.540910137786006 -0.42334563798368957 -2.6850289994727885 -0.195259858480696 0.613964522516736
P 8.695651738545186 9.211305219518424 10.780487142021697 -1.0961638646723122 -0.0004154902708638006 -0.5784444752332554
Ni 2.07169917591416 8.297947635406949 1.1118254753327843 1.7671086612288338 -0.20332463776670145 -1.1089954692193418
Ni 5.23986302142895 0.9243916787730352 1.994413778447744 -0.4736810202719198 -0.06424312624978613 -0.06479205677472068
Ni 8.340495029646185 8.103016636536282 3.756290905291361 -2.661491578472481 0.25416820278113 -0.28675076470284167
Ni 1.7487147277733854 2.008364126844506 7.325366733053112 1.162947497955765 0.6822586789074444 0.2877169852708529
Ni 4.213369747538978 8.2400618681566 -0.11496021775641764 -1.096537445961647 -0.4855433189271445 -0.11969873611492932
Ni 9.187582617018604 0.615752955737353 8.220081791283622 -0.37589939594505584 -0.3350728488469971 0.5805666637825807
Ni 4.699692445752392 1.6505622262562019 9.074165583530398 3.714630345733519 2.9197480923903716 -0.15271864268437568
Ni 3.8381357533091602 0.8244697963838202 6.620274531077173 0.17833968568658962 0.9702839394473355 0.050320859741739145
Ni 2.689944967777085 4.401888726979039 7.563594752924434 1.0565519067076448 0.8797320000996913 1.5528210966927256
Ni 6.176662799027246 5.42717624211311 11.51623739608566 1.9488411746470564 -1.297086063645108 1.15855862485945
Ni 7.3275268171499235 9.17173950778409 12.901114886614268 -1.6016687143230481 0.8677167208063701 0.3891017535679428
Ni 0.32814210458655874 3.099603841836233 8.72396557128453 -2.2552513654520387 1.0482189613619173 -0.3092070368238288
Ni 6.590032419025098 0.1227845639158343 7.653091028210301 -0.12448150221555335 1.0872292811868438 0.9179586476810577
Ni 5.177565485707398 6.656545436908754 1.4668083306437258 1.4362822463630167 -0.9868544422115069 0.39308156415129725
Ni 2.2431225525283054 2.741633695840129 9.677121606611129 2.018013105657028 0.33109483803585554 1.2925231268647739
Ni 6.869441306545634 5.00363712191045 1.7709876156759943 -1.3808112098789058 -1.0388583460826237 -0.17971445454692922
Ni 3.89725532021671 5.641530238617592 3.2335823335510363 -0.22074514723599403 -1.1411928798874929 0.169608733571495
Ni 0.8011836972475704 6.645730995974044 13.070967972755613 1.3442197839081171 0.5953204250529877 1.114045115828107
Ni 0.879511281545637 6.58154537289829 10.706367562312053 -3.1701545141362244 -0.9130969487133823 1.0694567876947711
Ni 6.644328950909044 1.4207483461683068 3.9258018924368443 0.41740754249117146 -0.3526828486192765 0.12340318154971007
Ni 3.5740932797010356 1.8419320306617644 0.2671036053333769 -1.0155595234556833 0.4281506399402884 1.115416285144021
Ni 4.757194987351641 8.706877446032296 8.891397792946972 -0.04859719218241308 -0.20547587978174936 0.9536435026771769
Ni 1.4395357500393229 0.04613849899905919 6.32214086436519 -0.09939036357488043 -0.8338012990058479 -1.3875732111930876
Ni 5.278886609071484 8.153527646744726 11.456564488725792 0.551291054746915 -0.2977517437990356 -0.6438651667309105
P 6.497787200715119 1.62473655615888 6.111246180384422 -1.1263624997428794 -0.34062000391747144 0.8135155521736183
P 3.080423865347017 3.7523866771336873 5.475922544933071 1.220604486347601 2.546558896287627 0.15573917467825435
P 3.0800780275643165 0.6948834445093102 8.927841617669904 -5.463456920823713 -1.7963050802871323 -0.3557344909614067
P 5.500119973361572 3.713138762280754 9.045382533042634 0.4217964155874865 0.11689906188260513 -2.458806116951675
P 2.1017029403051852 3.2278348834812416 12.092490068858382 1.1503442073694574 -0.7932521739388919 0.7139498393631383
P 2.9243201678097837 7.082439992820616 7.083404599825336 -0.9137027006181813 0.06736290282569043 -0.09623047778966008
P 5.2282073534552405 0.7061241071437797 13.16331039952343 1.0859352449657687 0.02903829621387902 -0.1369518667684222
P 2.3461541708716926 5.423671129450606 9.680569702774322 0.27553844092679 -1.6027709462482913 -0.5998689636556186
Ni 3.2633907463296716 7.95789562534156 4.538731129413285 -0.3796904875563719 -0.42224147354470504 -0.16331518725329938
Ni 4.866909687171534 3.247192452345358 6.641506166844841 -0.6887576563682267 -1.3238355638248105 0.5125735835720592
Ni 8.14641460478162 6.143275432546019 5.478672422653894 1.3552680713024787 -1.17842990986208 -0.5993814824962387
Ni 5.919714673448028 5.211223914234527 7.053444766179681 1.3794737220144049 -0.6922283885256465 0.4542619923153596
Ni 0.6826445257885598 3.9775083797373783 14.066971439965359 -1.194085099900834 1.1343190355857948 -1.6591704080839424
Ni 6.315016606041564 5.277615421545883 4.084150731471499 -0.923943661619899 0.9051262718030799 -0.3110818852490384
Ni 2.9398267862286973 6.330654081999877 11.642684101711279 1.826828702797286 0.1737294406080879 1.224489166113988
Ni 4.824764212517598 8.131580967993907 6.527125461048624 -0.6159648407762166 0.2128282063817625 1.1583328820018888
Ni 1.7785408997895107 5.92220096669663 1.9689545094607424 0.8114797526905121 0.44128126378497545 0.5402903327610372
Ni 1.218638876564835 7.0666623123558026 5.353320246875686 0.11422588592581617 -0.6093735607119442 0.5636598607249131
Ni 6.700550958015591 0.46696886813613664 10.187667904760923 0.16867825133742562 -0.6056655157327375 -0.17509135395262104
Ni 2.5964005210402057 4.821203018052495 13.660613914685934 2.794922319461522 0.5066495047781403 -0.8725586222797038
Ni 4.140762507106118 6.032495178476723 5.596172211371383 -0.0986686549175075 -2.106465482163166 0.41406305149897077
Ni 0.5042174667263782 4.150259025679725 11.033831077087152 -0.07158825376094768 0.3969009378973874 0.2805225244049427
Ni 8.53646354186495 2.101899226614285 10.959671305418977 -0.25435332220874257 -0.029740721597542326 -0.6499260282130097
Ni 7.991105399447887 9.444362497190022 5.776463990370016 1.5556922475929338 -0.7931321034212598 -0.9549557937306972
Ni 4.569545275851881 3.5227130015522925 12.63396735053552 0.010290326182414536 0.1464199541598575 -1.1701560998890623
Ni 7.962195230207564 4.835092611163107 9.562016510864662 -0.45045984496045 0.18367215364309658 -0.2424563136608405
Ni 8.915090485152072 5.623013896792476 1.6064417374540345 0.2026497231868639 0.7684657110228313 -0.694310724975972
Ni 4.441015131259673 4.816370636061792 10.392488929520107 -2.634324788249702 -0.42771638061634726 -0.756656119982413
Ni 9.175328743150493 2.705946975452298 1.9500755053121464 -1.3753964666212377 -0.7548890007796611 0.7555867981776343
Ni 6.962555792795914 3.5494733683596147 5.496922375916659 -0.000841007844056616 1.4840160621038698 -0.9368354299809026
Ni 7.933228979164638 7.308103819516107 11.591410378987476 0.19773197417027236 -0.30546299640036423 -1.302236497497796
Ni 0.2722051799765612 9.067679723059701 12.755009639783914 1.7820994782107114 -0.49559864628061745 0.37546282262826947
P 7.132053694187458 7.948660821846752 1.3174279065415289 0.10944080583234701 0.9625181794589875 1.677868755824394
P 8.219825684385082 4.526539880224745 7.39339863309052 0.04503801407624502 -0.4468158204499595 -0.860210385126996
P 7.150915873795273 3.234228208977647 12.311427818028706 2.154467206853425 0.7950254637892308 2.130421478758131
P 6.555579498294468 6.60460434073401 9.87909647988836 -0.16819796926689742 2.022424604461162 -2.053456791176618
P 0.5574708770819635 0.9684953430344226 4.279163048955935 -1.5460842921895244 -0.19499349219318676 0.477322730789565
P 0.0970196491046624 6.243549695594903 3.587626753365137 0.5053215299953361 -0.28715159968568615 0.2063983915960187
P 3.715204442009856 7.60677680622976 2.4218795595291174 -3.0198948745153023 1.1644292247076138 -0.009349816646016154
P 2.2976340646555515 8.405858370576539 11.935235759671137 0.3248946227624147 0.2787939717496102 0.24710486817644542
