# total energy = -340868.30181463057 ev
CRYSTAL
PRIMVEC
9.23043787390201 0.00000000000000 0.00000000000000
0.00000000000000 9.23043787390201 0.00000000000000
0.00000000000000 0.00000000000000 13.50967885541747
PRIMCOORD
 96 1
Ni 1.0159666243332262 0.5520568077453633 0.7839678714585795 0.7308898096515865 -1.1191243301232274 -0.0043510778798441195
Ni 5.2578605802460405 2.5643541455580254 9.427134987881177 -2.0099827791533835 0.38500315801853696 0.18818212569830817
Ni 7.422979819468283 3.171070838276306 12.605827398851496 0.3866077835014955 1.4087974106791867 -0.03165387945985516
Ni -0.07885470917728582 3.2429205680210056 8.785817075106245 -0.766395458757364 -1.1582518922523084 -0.013980887660124307
Ni 2.162885473215277 0.19499208066338655 8.143782880338996 1.6491253651431148 0.7757334483288382 0.4783072061900213
Ni 0.9843800653421726 8.014041689261715 10.88231631485584 -0.12800648464967634 0.5547396754171477 1.3784833330766775
Ni 2.6782577510371612 3.6697267927981323 5.701976645489539 -1.8572494811809885 -2.6583422342102216 0.12102799644931413
Ni 4.304291717099115 7.029440093406455 0.8237298294263649 0.1521226609715896 -0.7588724109074414 0.14184004809865897
Ni 0.764787944244228 7.696671537949794 8.727144718715032 -0.9693151477761629 0.29172019289297496 -1.3514718374848402
Ni 8.405790710342753 5.7462707485375715 4.965252925078273 0.817338011243502 0.11254001358296102 0.16132772450962538
Ni 0.8541108932087009 6.527655020387269 6.540373640969903 -0.7156521667662256 0.1917186780966569 0.1300739087016663
Ni 6.16836944991159 0.5140707860574956 3.594209810018031 -0.4959056359980751 0.4588123306902034 -0.346855443304222
Ni 0.9782879762322674 1.807910517306759 4.6739569151567455 -0.32609584215936743 -1.1096703837991793 1.5154506264640675
Ni 0.6932612798311146 9.00485536992147 6.29417293611874 0.9292295926091867 0.2024895434599158 -0.9659292620230654
Ni 6.750080885965123 4.215614898797814 8.485118940991763 0.522690360291087 1.1291799145870167 1.076944354321068
Ni 2.6812945651540687 3.80240510926143 3.2280567936366413 -0.37330746684816357 0.06541863461512605 0.13988035326912684
Ni 0.8920461474873194 2.2147605350299235 2.5223519602766435 0.5700552227282956 -0.23300596688121805 -1.639066695355532
Ni 6.697116632461131 0.1271234388476297 9.080449888381152 0.5599081069919648 0.38674996550631463 -3.769805962464398
Ni 1.4067095276673238 1.8054367599106154 10.672240775382612 -0.9189811754083012 -0.951010435929704 -3.237243851585554
Ni 3.052644318154968 2.330528688994212 1.3676250838520643 -0.5519400011848237 0.6537317751123451 -0.43518569241019894
Ni 7.856118124744493 1.0736476316783734 5.4665164783479 -0.641738864416527 -0.4538740128483216 0.13394033363560803
Ni 0.5052834090383597 7.612933004002735 4.050215602507694 -1.6135870630271887 0.3049580317394877 -0.16331570147393165
Ni 4.784385260711822 0.8816739042558035 7.774198910136164 -1.419735397747929 -1.1215069714227912 0.8410289271025387
Ni 4.563694717486486 7.993014751394497 3.767335905995881 -0.7632129472643243 0.32962416702760006 0.8994269074254575
P 1.5328896157467227 1.8519120154687554 6.9112544877181 -0.7073202498617625 1.5259191300955592 -0.4372865408032856
P 2.9579677151242154 0.4192206507914906 2.9080393526933244 -0.052191594401890765 -0.2664966424394959 -0.5001839516584548
P 4.6044378710184874 3.011310416588066 7.30895252611934 0.5061923626360637 -0.014390721504033283 -1.1486189971482348
P 2.047541919401073 1.533304985458762 12.609407885769272 1.321783309281472 -1.241970610728203 1.8418161773450537
P 4.9407304203232965 6.173658490911554 5.2656409164744336 0.2755523248838609 1.8965467361187145 -0.4142247738878157
P 3.7971529900136485 0.8354986379341361 9.847340526412102 -0.35227558587852875 0.7453064992975487 -0.7616144924289528
P 5.953097173818851 1.0966037310970616 1.473608973488323 0.1919441638439017 0.9390648335320536 0.40676394673439625
P 5.9312856487177825 7.148263522363742 2.384228608410417 0.8547082243618441 -0.56510919157693 -0.8177902682895722
Ni 5.817142051849469 0.7950065523169667 11.034975760555824 -1.2545661880050267 -0.13220406767079168 1.6964470330472137
Ni 0.8332731793214117 3.218524520267249 13.159399844523898 -0.5658136738431223 0.6230615997219979 -0.2156098828919577
Ni 8.121207074967774 6.377272723753065 2.3472394740314426 0.49135375496133443 0.5691851614185165 0.5283735267187932
Ni 0.9114411439081264 5.576458379817988 0.8760230300844642 -0.3005066808363534 -1.9032668284513672 0.3019446988344606
Ni 6.769612492869001 4.883667852327185 3.4197997601080785 -1.156503284992318 -0.4522547320773437 1.051807192933808
Ni 2.2317906932235223 6.920797837613147 2.778265855082886 0.07948642556210181 0.2310257032263957 -1.2762377594411893
Ni 0.35952463882105196 5.701586197960222 11.966738636864505 -0.5235295683629306 -0.13351764427589263 0.21870703376004266
Ni 8.774509788500739 3.325126849252544 5.417840686359758 -0.7240576172211014 1.743136723794269 1.1673253153084864
Ni 4.663392678813888 6.755840679305398 11.323786013511748 0.7770310840943393 0.9020077807787562 1.9687250580551772
Ni 1.5970319297235878 4.584047833376395 10.06105008934377 1.0401775791146795 0.6209047012799952 0.45495181929353257
Ni 5.78202023508706 8.35585404051762 6.322867598870199 2.157800642102032 0.19561312805505668 -1.880414606443542
Ni 5.255996031760888 4.7338393819757 12.877993325924116 -0.7126154368224308 0.04886150158739327 0.05498895464136982
Ni 4.142786742620312 5.667719720771977 3.0896768355927553 1.6590284831894397 -0.08735862922132698 0.0716918692183475
Ni 2.481741725052494 7.48644831146784 5.123897386806835 1.2643176109648355 1.1041540819666402 -0.11075309688586732
Ni 7.377722981732124 2.2565928802512722 10.098485053880333 1.5451926336131905 1.0990437573232685 1.1745655418106675
Ni 3.340255537208808 7.905565581353223 9.743734397616317 -1.13068992347364 -0.8418725060497566 -0.47115876807069823
Ni 4.886390831550552 1.8108181052910315 13.240634160629266 -0.46583992696094606 0.6696057660301242 -0.11759145996393941
Ni 2.7760173203750482 2.759799440729437 8.659839133620038 0.4433669426694106 -0.5224358210781197 -0.08371923269652679
Ni 0.13825257799886095 4.416450769787687 3.145431450517846 -0.43396930350459456 -0.10393144597834357 -0.033242821213529845
Ni 3.088541491713182 2.9831668109879135 11.21972113194511 3.1548261113092697 0.4069637214500282 0.32873430822347904
Ni 4.868871460140552 3.9971027389511713 5.057321006317422 0.4513936696286291 -0.3135007791031762 0.40856577582982545
Ni 4.448351163672282 4.863314736437275 10.121573148563069 0.10286649504893898 -1.2434770200704004 1.082922940502006
Ni 8.707986021508184 5.873143119470369 9.556044516490573 0.49099560029096734 -0.780229793537295 0.29214082537016134
Ni 6.915970318515449 5.195379745117332 11.013900824410769 -0.2879584118576976 0.2267605001921385 0.5374729179169001
P 0.39201208856532793 7.515939561022608 1.4136665088220746 0.19987473154488802 1.777156018162507 0.5700457096465988
P 8.490572283788932 5.1201332141719575 7.328703817448696 1.4800295666522962 -1.675824985921488 -0.2862378296221651
P 3.2932910684342667 9.26422144855666 6.164007144891377 0.5267722436699445 -0.13382232000050504 -0.22900044526625077
P 5.667027437918579 7.141663759161345 9.383336559356175 0.0055641243513388046 -0.21213863651390563 0.5620688620887094
P 6.812377112332927 2.9716933764975924 4.587116954026461 -0.9217068018695804 -0.33095034203819135 0.6810798281079947
P 1.6488423784719175 5.242482670462553 4.488347574766418 -0.2929363246882632 1.473513105690017 0.2676394977946875
P 8.853402342474011 0.6744957992849976 9.995081994721541 -0.37425260437025226 -1.8555821207808945 -0.29476000816056336
P 2.440620123560634 6.3177548592369 11.712351456510957 0.8107192203754037 -0.33161471509506757 -0.8774228923505405
Ni 7.337902872004653 7.816418010711612 4.075059326506649 -0.5000690233471452 -0.1281869760915986 1.1783129246682416
Ni 7.548347628999695 8.82873861201694 1.6830226905537033 0.602113536715421 -0.9977386932241783 0.28193328870954026
Ni 7.09551156893479 5.713576536981082 0.43375028331861437 0.4129461642857082 -0.9046223355834679 -0.44873026386385295
Ni 8.293299361884548 1.5654269098564433 0.5524306404861983 -2.551483330172438 0.7602929454040519 2.981901168880348
Ni 3.2120078310072597 1.8244237709698197 4.503208580019368 0.519607350490389 -1.589441576129237 -0.4743541350795444
Ni 3.3774265112172746 0.14931987321518864 0.8107656791917258 0.6045972223692233 -1.5295389862363336 -0.7487877729779298
Ni 3.4544452862673483 9.104848705266322 11.704326513674365 -0.3674150126231285 0.5097124599741802 1.9787888700490823
Ni 3.1778367493635185 5.64655432633408 6.297725731722381 -0.7891008707746797 1.7745959707448145 -0.10336348929001553
Ni 6.123924890723418 3.63786332066572 1.5129897143648372 1.7186132847316078 -0.2765116034733367 -2.373160613766713
Ni 6.544426726315598 5.270570893434434 6.371083715043684 -0.883990004045097 -0.6824628244984504 -1.5179625942526438
Ni 7.284634014045165 8.088605167791737 10.677523355075943 1.4930740585410802 -2.146917419530625 1.2219990527022826
Ni 6.944040080611241 2.087038963796958 7.749989317230923 0.2382343051596929 -0.7367277564896022 -1.7194609774438838
Ni 1.6257478224825497 7.5888415607044735 13.219761371077405 1.152876486873008 0.9325128913461488 -0.1364525585345005
Ni 7.3325215266242365 6.756256049017437 7.9099851150893175 -0.9073775297311019 2.810088228568683 0.7005608196507418
Ni 8.53681677839594 8.429669853565972 12.764107258277269 -0.217134032845968 -0.922851714107301 1.079460178764386
Ni 1.4186906362501372 4.399688294297403 7.578970530258818 -0.008197448209127817 0.390487835282192 -0.519537416484402
Ni 5.7358403535463705 8.79740127485311 13.329770654745223 -0.7760859465722505 0.7979094702052453 0.15219773718389917
Ni 4.376224520786223 7.421530640695169 7.692924903147202 -1.3989678261832745 -0.14801120990637734 -0.14764508481621025
Ni 2.8134282857726927 4.39469462731489 13.001552892642453 0.2813740737719606 1.3867306606871344 0.6765220335339833
Ni 5.183343253906246 1.4132077560512226 5.557165841259485 1.2573198394907636 0.9050522240320348 -0.044592699008710296
Ni 7.838035696613729 2.071337988681884 2.8890043433562846 -0.656558703038179 1.2805474425601366 -0.12822348575648887
Ni 8.94843893258853 1.3561359576170657 12.096215837413691 0.07769950886500812 -0.6591624592096132 -2.4034597789708867
Ni 4.488503569169383 5.044028252488371 7.913334841055962 1.1717411849879948 -0.79136087045345 0.34509140942526373
Ni 5.009921783910947 2.654286303433489 3.1017142498476455 -0.621392182439375 -1.2018300339535755 0.3723278765437136
P 2.327584179257758 6.234911677780237 8.382877070939074 0.368199713307953 0.31208178726846253 0.19180352450097934
P 8.870275583220838 3.878030088166662 10.878182924699152 -0.3598644539693802 0.29211074346317434 0.4507195263797399
P 8.040366898566942 8.616170854271477 6.974114693850472 -1.6861248251855991 0.14845009721600885 0.35915662926907826
P 8.59752536941995 3.8553324410132426 1.1253270082064597 -0.6129653918282605 0.13313197880169975 0.2843223577670071
P 5.570384751584174 3.0314327715268443 11.583982831571015 -0.7579352438051528 0.4520356740880021 -1.3288150193172727
P 8.817015955699395 0.2867740183231302 3.5916834391250294 0.3613598075679841 -0.3440328862537624 0.256701510725945
P 4.0278400976420565 4.296833523158504 1.4135991266243437 0.10398878157884027 0.3717437219054695 -0.7152143078978586
P 6.666148512819112 7.182305377874848 12.505964212683084 0.3898106067095093 -1.5415262405051968 -0.6620037853131502
