# total energy = -340872.34251193376 ev
CRYSTAL
PRIMVEC
9.25073443401626 0.00000000000000 0.00000000000000

0.00000000000000 9.25073443401626 0.00000000000000

0.00000000000000 0.00000000000000 13.53938492274788

PRIMCOORD
 96 1
Ni 2.3713240661491177 3.276212426884607 7.193556268530646 -0.3142227448708653 0.30976342354793107 0.08555680012589781
Ni 5.497045541956776 8.870973478813465 6.427539011094397 0.3505758295786027 0.17965274807105833 -0.08781088626739715
Ni 7.651967172739343 6.831556520710192 8.922224398850132 -0.6036073476521282 -0.8178146937696044 0.5669215621953204
Ni 2.144200029338125 7.917315245070988 8.8599974821665 -0.5475516423091408 0.8104788222298235 1.0449562314502456
Ni 9.336766469262598 2.607227050130754 -0.1638776891703496 0.5027265155746503 0.6686009789146936 -0.3901980719559151
Ni 2.611056854270529 2.961252664693996 4.654935441689292 -0.884352015370206 0.3556992668480971 0.45387478417926996
Ni 8.0084627334507 7.321133149911405 6.713653132539487 -1.169939613002882 -0.7567327388566192 -0.6954571798755894
Ni 0.8857726426813084 8.26926869507551 6.403560181841474 0.4617601004646177 0.7347552061442636 -0.25444999568760696
Ni 1.9555405471483485 8.357844479226099 3.821992819447211 -0.9368572843577736 -0.36449629631443675 -1.8251538861980245
Ni 7.598479425067416 4.47950173481023 0.4962575097561536 0.26935879447863936 0.42898110626138375 -0.8464395565951487
Ni 6.5540714845346235 -0.024810470296802025 4.0871475514249385 -0.0922522098682024 0.02742107232543019 1.0138906203936926
Ni 8.881288047933872 3.187183356736798 11.00738438958712 1.288955978338806 -0.39926146770976406 0.7559961178009109
Ni 8.10407832666015 4.533720290518492 3.084475225281055 -0.29441830855042844 -1.5249256558340383 1.3146803796881035
Ni 4.978393853791041 7.3940011866481345 2.1039796852827797 0.526661429123693 -0.19102653712563875 0.9366230568597804
Ni 7.454963527906869 1.798019037747176 9.704773644156408 -1.290925443360351 -0.5663836874139795 0.24373903702800603
Ni 2.929263624318775 7.3117806571932595 5.60235405491902 1.1892511688473002 -1.135774794195715 0.08762808083262973
Ni 3.871524952988298 2.798106708633444 1.695347909229981 -1.4899288280438794 0.07594447384711438 0.807662435826951
Ni 8.145392107549606 6.519899270785039 2.030379915436252 0.6993017504326601 1.363328222602794 0.5527977211994287
Ni 1.2540018352064104 0.6208926575223035 10.392168907911627 0.584378067108871 0.6568654356453204 0.38672554002628234
Ni 6.229537211994575 0.36132906955926125 11.573629257314 -0.1467552260120892 1.4279426161490698 -1.541512870768758
Ni 5.546740488427478 2.653267956419786 11.044766608255792 -0.8703503017744753 -0.09034573687410892 0.5802061951193684
Ni 4.22241456850955 8.741805471075116 9.961494481365458 -0.4825248438157948 -0.9474384023077296 0.5054215459083102
Ni 7.161613481828612 4.481388884676207 10.060683633365235 0.3620920577483183 -1.1559972918901769 -1.809439303676245
Ni 2.675543725426013 5.520625664546839 10.157233550773034 -1.904221736165469 -0.14521179278436927 -1.0384973631987793
P 8.945192122807216 7.7789705085726 3.9617862209897736 -0.3255358558908394 0.2788790752642487 0.6479514209851421
P 3.3251395623804254 8.792101715297232 7.202600711785374 0.06697183803485886 0.2682838162469057 -0.09774125800723167
P 0.8369269136502963 1.9257901845553151 6.094970475521995 -0.021434772835008244 -0.2716067099725516 -0.21325963749222626
P 0.4551934987019015 6.768540516362013 9.61832552897236 1.1157528425478331 0.16739964173531816 0.7318015228325784
P 8.517484406859175 1.083769816413811 11.764764236092672 -0.7559369824282014 0.5251894725638567 0.17080841030655097
P 5.154694354505603 1.05498153022304 0.7482077431128319 -0.8178650873915657 -0.21641438107112404 -1.1228843113862919
P 6.386577683194618 4.3449775517169815 12.02443605765097 0.747134810755539 1.213598230233097 0.5427807032830588
P 8.507687878878448 1.6338925038150873 2.0269404922981646 -1.1320130131604376 0.16070166088985227 -1.02680604290378
Ni 5.89620549081461 5.014573476956885 2.187368582522326 -0.6038814272491213 -0.5945601498481954 -0.38823452047164103
Ni 4.847754979245389 1.8899898415095941 4.148914706597104 -0.39932034597215743 -0.03969423326582841 0.504419587006357
Ni 5.0044346717945825 5.103648800777879 10.225932281408808 0.019998811719430073 0.025907206784065058 -0.045904732951914495
Ni 0.16979168382387141 6.8500672407191034 0.005763207678936488 0.030247228920315648 -0.5918180683266839 1.3094301870327576
Ni 1.4500619051058965 6.2496205568918 7.318525367817196 -2.3776510454378985 -1.9560248368796893 -0.20797216384104183
Ni 5.293362866716289 3.232955991721353 -0.08444255591471597 -0.16529802201128307 0.37453619704894203 0.5571845374132146
Ni 1.2709954347348311 2.733342315438846 1.9050999914658941 -0.6601335648736308 -0.9055852137173694 2.56929104777782
Ni 6.772370320501788 6.666282895683098 3.98325995130296 0.1409591881556024 1.0527068219299418 -0.15464619872439173
Ni 5.300513684590796 8.281895947855203 13.221236900302104 -0.738488962155083 0.867990543293047 0.12809775881190197
Ni 3.663420426591259 4.251711645105364 12.13780196048216 1.6334187530411353 0.9768842183726724 -0.5372592592441974
Ni 8.225521970976489 6.072422734917437 11.182787569041878 -0.5345459740780923 1.581196048290993 0.9280291445431824
Ni 2.5048399191669195 0.5808878555840035 5.339797854300863 0.035224370419932885 1.424092132054728 0.9114519569107916
Ni 6.07929603075283 2.331712420432896 2.1163950962392817 2.7909769616605287 1.067905384047251 1.6950272698815518
Ni 4.072358401960547 5.271466377830185 3.981148008585302 0.04236715211230122 1.0027713705520793 -0.7546159496239326
Ni 6.084837220800476 7.278144986052628 10.933323933155663 -0.3574722995881198 -0.09979274121962169 0.003425994962413455
Ni 5.038569882605619 1.9176495380746346 8.962084889328091 -0.613058465762699 0.11036666008072604 -0.8582571180553672
Ni 8.453182550396434 8.53531057250494 10.45592589610424 -0.39081230850114634 0.038958897761700646 -0.1106710786950223
Ni 5.381550120012118 6.651009932797185 6.083340451936187 -0.24810888396092753 -1.5036338363347976 -0.5509077032655673
Ni 3.1936866231867054 9.206839901284004 12.35741070047394 -0.434648074739174 -1.8512562397120311 -0.23170858822603324
Ni 4.836367324907073 5.952264942715662 13.330526929452173 2.4265824810312786 -1.0657903945867775 0.27727162156781276
Ni 2.303294163627611 1.7579171030951861 13.602885208491838 0.5762631513112204 -0.2885420522753095 -0.9777619929919354
Ni 8.26458782334912 2.726459768868816 7.248892312983073 0.2586141543676255 0.7858054878528595 0.0036265410089937546
Ni 7.139013937110084 1.872043416313548 0.014561581392317698 0.766073556641571 -1.4751352146744725 -0.2825228426644231
Ni 2.4827676663227103 2.9852953240159157 9.680389632726376 -0.29815129323029943 -0.8701618399127529 0.8798155609524332
P 0.36744843052172754 4.804461541143588 1.6198249116523926 -0.5473868345965024 0.5492097467378542 -1.3681955779974242
P 4.814424582347784 7.84673213978963 4.355931346600816 0.13811271984574278 0.06888448167653943 -0.3686314015287329
P 3.6550670132139245 1.2981833438333776 10.895617013701226 0.4471462072061847 1.6667729030215488 -1.3552045650543951
P 8.08442976629087 5.030697507429415 7.498016446908106 0.4880563151569853 0.25858073002652887 -0.46008399831377544
P 5.96677934536133 3.8270474208529426 4.01913985066656 -1.7000481201349107 0.00746622647005811 -0.8679653464820665
P 6.824988499117825 7.179023364415703 0.5737731155745812 -0.03935124810411287 -1.039842307262448 0.39848962254074594
P 1.923477500896031 3.393567246491329 11.851998663720877 -2.7523381662424082 -2.0480389625951565 0.21782257427256035
P 5.569534298573384 7.045165234216327 8.289299310785303 -0.48132131042599685 0.4381954257708002 0.044297022145162415
Ni 0.12569990732288427 5.998204090923685 5.319610901175702 0.466867596894512 2.4381742996339364 -0.7834141048025476
Ni 7.042121742520709 4.921511086507284 5.441397747747078 0.5767516609118647 -0.1124741933420321 1.4864095020367112
Ni 0.15234202307783945 1.4158341869484887 4.034628355669519 1.118723495140383 -0.03965772360093815 -0.6453620629914111
Ni 6.24015705535801 8.982657598087622 8.844644037889244 1.191597814702606 0.6526249152014116 -0.08066090548617721
Ni 0.015000991287581717 3.87633533499961 5.129409321521915 1.3268275565735987 -2.572614712834415 0.24024619338339911
Ni 1.7474637729552212 0.8817457978937625 8.026702406934744 -0.10555509762469564 1.165364849148006 -0.9897266215529794
Ni 0.36415701913783416 8.947023768265367 2.0966410774951387 -0.9677074369694108 -0.24321041821804562 0.13040506678883992
Ni 3.4550013752165576 8.984128464894926 1.3100455608585786 -0.22450204317526498 0.972706689956215 1.0877159910152752
Ni 8.27153512506161 0.23353294576760172 5.825645512369846 -0.7111830752512784 1.1747889706753831 -0.25168554556859235
Ni 4.395338551081556 4.067131736890565 5.923047422437728 1.2537773735551438 -0.5974369571753582 0.9681800057304552
Ni 2.15222966700316 4.297095749235159 0.49990229920318574 0.741666074331484 1.0029246083004921 -0.46692673226722164
Ni 0.7433603581629719 5.112585010437354 11.977075996602682 1.4210965397615138 -0.10518974386547691 0.8696969844611925
Ni 1.1993299935009294 7.539293224859012 11.625240956001514 0.6502222192971898 0.337391983898477 -1.0682473407677022
Ni 1.9090741070660082 6.834563009467262 1.9892603999741776 -0.6459323336725844 0.20044705910859026 1.0057466511303195
Ni 6.676625217007418 9.1466823739387 1.8623292198710901 1.0301433348071292 -0.17981447045990323 -1.5680451127313317
Ni 1.5737534779390583 4.956367854620017 3.373202679261136 0.5014126818592333 -0.5284917974642124 1.0765463475517008
Ni 5.886011181244485 4.969725915436043 7.68695900157778 0.20809223435867388 -0.43972780325492655 1.0273331190518433
Ni 3.5072310229778347 6.359010493975948 7.872502836341768 3.325415720736795 -0.9821909752975665 0.40998836720896487
Ni 7.853161400362441 8.33590173666681 12.66992641857342 0.1485110323609313 0.13491375329247088 0.47607317465318005
Ni 7.356554212837003 2.50923401811956 4.888232493723646 -0.47079984206938275 -1.4253365459847904 0.3497718456200686
Ni 4.278760793184353 1.5801827385118685 6.572505423446047 0.31665912222649983 1.146882216962786 0.753944891698837
Ni 8.614950146996053 0.07897907203802274 8.26928812161825 0.19907177602761844 0.21388518689136712 -0.7439391866363768
Ni 2.702241345588791 6.730075961740797 13.463212991573021 0.38320544268816586 0.3370297154630518 -2.281529325311961
Ni 0.40099344446291457 4.626320144236235 9.058864224954894 -0.2725068531893178 -0.462552514458926 -0.5002068344765901
P 2.42890063853066 4.981002560958714 5.626887003176707 -1.039931010321512 1.0195455046866249 -0.33484916287196526
P 3.983283078139553 4.1160311201824715 8.541158886942538 -0.016110275298301287 -0.24810425597523725 -0.6727047166704221
P 1.5864639873304849 8.63515375144356 0.363007152822438 -0.7569834214148446 -0.36446981395187555 -1.280672141063459
P 3.794040799667637 5.603142217510103 1.7762862868641496 -1.344889299171316 -0.9120849625091002 -0.40872569844645734
P 6.58853047105796 1.4039284914704933 7.028741479941554 -1.1914893141491996 -0.5650107183258527 0.31679024848772536
P 3.8932549286509333 6.716449629620294 11.37541191609713 0.2993072612116136 1.5442852913075726 0.9785510645521341
P 2.7534071588667968 1.4662136877823382 3.1707753287109077 0.008329088690985654 -1.438422432634471 -0.6827649291199015
P 0.12877392644280497 2.2251347066784386 9.063562673077097 2.0436596025805382 -0.16258447973486193 0.19455177667007784
