# total energy = -340860.4462879799 ev
CRYSTAL
PRIMVEC
9.38188456481285 0.00000000000000 0.00000000000000
0.00000000000000 9.38188456481285 0.00000000000000
0.00000000000000 0.00000000000000 13.73133639602902
PRIMCOORD
 96 1
Ni 5.274232676959828 6.730432471189428 10.040449452146486 -3.365281189473165 1.0457237057438893 -0.7735940333883322
Ni 3.8016990221135716 1.7623306798823883 3.5367527322878938 1.2462805509574664 1.1219083206262679 1.658479552664505
Ni 6.0233104674341025 3.0700152451851226 4.070229191752898 -0.47076616061796983 1.8202680188606328 1.3585567693560798
Ni 3.7195700066981714 4.78013573877705 2.09232626470266 -0.049089044217167074 -0.04968528304026927 1.6884442173473955
Ni 4.444123551536638 8.572405967140051 2.8919977427975225 1.3364447679483886 0.9282906257346851 -0.40777464738709773
Ni 8.37720648179246 2.5934624306974308 6.42047096216514 0.8307931083071434 0.6741974991658647 -0.032094566541699565
Ni 4.330143038824541 5.397876530530716 12.252087016236937 -0.32522269552579475 -0.1511852367589848 0.167593245803363
Ni 4.437818925267601 3.473511326403483 0.17702020808343555 -0.6291116625708197 0.8109513909908679 1.116579709324503
Ni 7.555484760959328 1.2606907066991542 10.21656712295748 1.084898833281454 1.3844282378062027 -0.4414674116538526
Ni 5.238450170129313 1.4056220558123713 10.477558948538515 -0.17851092115713127 1.9041973106854366 0.6353630427971704
Ni 3.3360385753317607 4.273692240817406 7.215679477884733 -0.25992695964177814 -0.08549277965718179 0.23852509692723436
Ni 0.46893847716633674 1.5754998353561969 1.309440854049109 0.36843188392341714 -0.4362732690474228 0.038260329032779275
Ni 8.865683671262214 8.163308900977324 7.060639148407101 -0.5290062752067858 0.7047710010773476 -0.5270550650176857
Ni 1.410209797249215 4.912861256378336 5.039468847208732 0.11683709829641813 0.057915127149229285 -0.7624189906081192
Ni 0.7524243086144011 8.67103771709003 2.47683059747398 -0.5340968023558156 0.9247787559266848 0.44359757062297794
Ni 4.903601336545688 6.729259735648313 4.037190886088593 0.5205458031442582 -1.579460553657125 0.9961340677412198
Ni 5.2841024192738555 5.006830209816838 5.965935553820567 0.08576248837880068 0.38297430051396625 -1.222224024228895
Ni 8.520439709842142 3.8957711762796916 1.7426850140976216 -1.356995595516547 1.1207909191923728 -0.595695291893903
Ni 0.5919856428939058 5.167269813725767 9.770765310734703 0.5939063183142804 -1.6373959925213284 0.7922178191371065
Ni 2.0204919909613883 8.572527931636328 12.023981509794078 -0.8143902414690877 0.12265910429483393 0.5215701306437146
Ni 8.76894706194668 3.2933979110568017 10.906553114986025 0.39706111762433555 0.20214810096009703 1.4446563293593249
Ni 6.255183738623458 8.996560957650704 13.055864006914137 -0.41694885768719797 -1.1924434505323527 -2.3684511241061856
Ni 2.7420996241205726 6.496110528190224 0.9978975593269644 2.446029276901981 1.4118253988722331 1.8835058437743561
Ni 5.866314015073889 2.096222561264462 12.925169667270062 0.9368932798020316 -0.7048797587410699 -2.2495751410028677
P 6.44836611884033 8.280995257999345 1.7029189591810445 -0.2229390695635193 0.42752303365861855 -1.699872513788995
P 3.651795274306025 3.573297048125918 5.137620244681068 0.012427170019759244 0.188529738845714 -0.5049402353965176
P 3.729233347556963 2.9244459279375383 11.910849119425315 0.016242430000791383 0.2207502894423166 -0.49754317160149797
P 2.847758405432914 7.011870237288489 3.1618732746496168 0.2525044419254619 -0.9365736916790838 0.3440799374416139
P 1.5179701206512353 8.732273276104916 0.3023490480797989 -0.19062261681900075 0.8653929577692 1.6086739419962879
P 9.010577492838117 2.9613824065405123 13.620318510244815 -0.1726153816083027 -1.620528013121396 -2.264210631527855
P 5.049048689296996 5.885678224328788 0.7180884883474052 -0.12050272007346341 -1.7774123571476872 0.11131565425755668
P 5.94251367959341 1.06682344892627 4.10172886838726 -0.8377042336046799 -1.9602658715442305 -0.0366904134424981
Ni 2.3965929699392907 6.194154581063807 8.299356543819483 -2.485448916350184 0.667196128147367 -0.8730538167485674
Ni 7.287875892361102 0.6061391535925204 5.73541421216301 0.5013617740166397 -0.4011841386537736 0.4868275849562067
Ni 3.356594283896433 5.30359797490936 10.048865940577963 -0.019535756040082484 -1.6784557386761159 -0.6655498507931957
Ni 5.1385424839106015 0.9905299655634605 1.361515941205234 0.09049974595346995 -0.6320676598753502 0.5502019354477944
Ni 0.6832113333546306 0.6608918305361206 6.021946341452677 -0.8344697858277822 -1.1813457979572946 -1.4409133173771247
Ni 3.8219076009580735 0.26356246188716154 13.291864369019786 -0.5416363052659704 1.8125845341734461 -0.35837784212152474
Ni 0.8307958793560672 6.417302699827263 2.625747371050124 0.24590647699297005 -1.4159347930549162 -0.09799502588925058
Ni 2.4715636076117224 8.717571863361492 4.346819338219204 -0.4066598170563641 1.996779393089232 0.37386436779289806
Ni 1.768269412662597 3.860007433217834 11.529708192185915 0.13001862998369867 0.3286067815066792 0.2660644399980837
Ni 5.9707156238861545 2.9831952876052603 7.023001843044757 -0.5389299620784008 -0.3839081251821453 0.32494527349469193
Ni 1.2950940765333183 6.338016395363527 13.319478069165106 -0.9110043278504117 1.378156545864878 -2.469848490808766
Ni 5.348133779818762 4.111423169464338 9.644244971428565 -1.384872781542789 1.1220052512154484 -2.2788708046431916
Ni 8.771620898980423 6.231485098808595 4.667541868568767 0.40134920347672814 -0.2904050736259773 -0.19884320495658014
Ni 9.381105632524637 6.06770554407857 7.686142511254521 1.0349944922518435 1.5641429494634482 0.852402201936487
Ni 2.962817834842838 8.082183747185118 10.010253857433844 -1.3569788833459986 -1.5575048753216403 -4.534227585324842
Ni 1.375299805661289 4.043235634161718 0.2622949693143239 0.7626190224340672 0.7769889180024941 0.26705302916359813
Ni 1.148858645498381 2.6315810267258493 9.314857332712807 -1.0416747324854962 0.8467442323197611 0.30440910121455317
Ni 3.923973120572437 1.5578712747021488 6.099912614791333 -0.735495683854714 1.2820533376817016 -0.22784087774051084
Ni 2.5637593849120575 6.867529946887993 5.728521341746551 0.9320596058588142 -0.7536448439599149 0.9262954496815273
Ni 6.2271225225956455 4.484531327341314 2.1884999609584592 -0.5858199417617201 1.1001603874262151 -0.5348138830274982
Ni 4.445164940697149 6.532212019087924 7.696894150695467 1.911489730581792 0.39848473744473956 -0.5973335988282744
Ni 7.120390493321152 6.05663492057044 10.715962011220801 1.3186990139291934 -2.3927609044961438 0.3893431801547875
Ni 7.94319113085211 1.9210158714218077 2.917579326797199 -0.12192531145260292 -0.5967008503402821 0.7672634631846141
Ni 7.801571586907003 5.127621970551734 6.67371804223265 -2.964682491009217 -1.1763406314332192 -0.9296887916337924
P 6.518017228098261 2.5595844463856867 1.1986454910666815 0.9148075036465857 1.2929553293061862 0.2614745066345561
P 7.7463498157469575 7.814950153960049 11.715575517191526 1.3338258422683027 0.29147619520296897 1.3073704762902516
P 0.9772170717007175 0.09424571902620543 10.121024827517017 0.2317633527233686 1.2957511468837684 -1.306089809805615
P 6.622475128216501 3.25967003689432 10.852451540814851 1.9619216619800983 -1.5315686150718528 2.0479510308670403
P 8.799926044000786 5.670082522450116 0.29524320888907185 -1.3149398039970772 -0.11795141440651945 1.1860758564431122
P 6.911990696722764 5.135981229488805 4.341766255319645 -0.9790889393334752 1.0798170478831726 0.2804356211180912
P -0.0037180407595525564 3.1262596417370214 4.382493015191504 0.008340915765527571 -0.3393624773612865 0.47855506053476937
P 2.8900988494093482 2.8131673979121716 1.6798507819930864 -0.7800212770709147 -0.9342918376234426 -0.1657489935057726
Ni 1.3754499158105518 1.6143126908249552 3.624400172065567 -0.37578266786153347 -0.2901932147254873 0.37042114643930396
Ni 4.558254174397998 7.6657594293615 -0.19088194217942067 -0.45873056960967457 -2.120270249256742 0.42357330498225115
Ni 1.1576869986518983 3.94975453870832 2.621023592290511 1.7567111200445937 0.007131211728142557 1.676656737794164
Ni 9.060714282691885 0.9277651594029593 8.424888970705783 -0.32279557414154086 -0.6731181500587569 -0.4607928514553419
Ni 5.001163551682168 8.941864572013078 5.692051142794724 -0.17159516787390447 -0.9913320183668862 -0.8366277127110495
Ni 3.0490561155943063 1.5868519153941951 10.085459980402932 -1.2332720545129405 -0.6438379130374009 1.493475407744557
Ni 2.2051274745546112 1.918370180041051 13.323694287982526 -0.11753540991502338 0.09878281189786858 -0.13748305668154387
Ni 7.543682350473542 0.6593194267225929 0.5406095061202854 1.936372095645768 1.9010402531136938 2.437035558043803
Ni 6.236776481570109 8.287299884268382 7.895476743532069 -0.8363202087729598 1.0106978244880078 -1.2229660446012423
Ni 2.011035051557833 1.0041336978404 7.843957063928216 -0.7200227850300954 -0.4688555738588183 0.4289391972798548
Ni 7.838686321312226 7.956550934136498 9.396462838982654 2.646422085733868 -0.5143484160842948 -1.0337454503360908
Ni 7.077721683393206 8.657743586995945 3.7078867461433624 0.6197127378544232 -0.12219193485042826 -0.3221432852695226
Ni 8.78820807047396 7.996217541079187 0.35265189728619034 0.012661397517752386 -0.1287420772641202 -0.5432478727274643
Ni 4.200579216242102 0.2942712456725954 8.228818846492468 2.1182779014170614 -1.193224037452119 0.8416696460103311
Ni 9.035955489947854 5.676030637114653 11.813205281895174 -0.10055995840294941 -0.14531617957271747 0.8852202769077724
Ni 6.827947776904264 7.414240492387378 5.67201706699874 0.21969665136682162 -1.459090502506784 0.44526390258180726
Ni 7.72243539259253 3.6494685669924514 8.782754381113557 -0.04198277218968899 0.005113409967165387 -0.2854086488526504
Ni 7.7638845575577164 6.581814041534944 2.257651015781659 -0.21882530450546184 -0.4527861791007815 -0.12330599385021344
Ni 0.5567688636884239 7.366148953317315 10.000257459681377 0.9621643956639946 0.7034417407429627 0.6664980736390779
Ni 1.5607139856538128 2.7885024240114307 6.0309810960614305 0.37590916613706876 0.3710698357668964 0.6446460107609929
Ni 0.01082106538498087 0.6588278159837573 11.90892677132632 -0.7586045019580354 0.5054763104056457 1.0190734501462126
Ni 2.847824078623217 0.5576826592220612 1.968757466206403 -2.2124005888350995 -0.32837923887690545 -2.3662420322700086
Ni 6.330745435008611 8.890827121263731 10.561896459524945 -3.1201671264745037 -1.3775083707579179 1.16754822995257
Ni 6.624107576089734 5.074905162507511 13.257536054260251 1.0680478231623862 -0.7113903061660781 -0.1482402951980479
P 1.0322605870585142 4.287746303542134 7.932112063648084 0.9674917214141788 -1.2238229932848987 -1.7293733514615894
P 9.209886243521776 8.297723157757817 4.801175552573094 -0.043964835616724283 1.152666170634415 -0.03796336661765075
P 6.850839574666838 1.148361405628948 7.859803066559768 0.46367840053325304 -0.007765759988347915 0.6017324992269185
P 3.6507351213768566 2.364919728444844 8.19199119774771 1.0056810879997067 1.3949111396153977 0.24236683927082778
P 6.806585226287304 6.210047493117004 8.502470586786954 -0.06233768169695716 -0.9212548019338263 -1.2378769002748036
P 2.4426674038786365 6.465131546136118 11.394743218795314 -1.4734935653059913 -0.48434415641272066 1.1888153668614623
P 4.106225605546114 8.942483776378786 11.284233065096487 4.167757710223803 2.0544572074166747 1.9105523063691872
P 2.9989662351621815 8.833062859450544 6.672921520253125 -0.5999934050486248 -0.9859185606607987 -1.013353774053616
