# total energy = -381161.14784493926 ev
CRYSTAL
PRIMVEC
9.36045135419760 0.00000000000000 0.00000000000000
0.00000000000000 9.36045135419760 0.00000000000000
0.00000000000000 0.00000000000000 13.69996672579967
PRIMCOORD
 96 1
Ni 7.021779807804422 0.19049641170291615 7.250104610394117 0.7573426045264763 -0.253926261973653 0.282190656135985
Ni 0.8080325137330332 1.7868445850468166 4.708678495327618 0.17287274903474745 -1.675739625296533 0.2177115026159928
Ni 2.1781301604431227 6.104361998977286 3.5128219010019146 -2.35014949758352 0.8229016213742085 -5.996470003197047
Ni 6.976737317282269 0.7009087036161022 13.826142546644558 0.5529586722573251 -2.2949443131662863 -0.9380245651929974
Ni 3.4952860319777668 6.8599656902532065 12.732145444757137 0.7710861793648139 0.38274238700881824 1.4398871901054557
Ni 3.672385766117236 4.358759561320454 12.589953640772336 0.9788953352654302 0.6840147423666026 2.608022145799431
Ni 5.6083610575229335 8.770312066644427 4.4037992437072875 0.6544588830863567 0.08240025677478713 -0.3579081015739578
Ni 3.4955762059607647 1.303817228767797 10.267905609168126 -0.07701816652726737 1.2952433540094144 0.19320914659925437
Ni 0.16529246116676732 3.868768029449481 9.292139428630717 0.12641522890315648 1.1709991646156477 0.18674950701683968
Ni 5.905892355057668 4.404794259655439 0.3689936611863087 -2.4205169915634897 0.20298910880415366 -1.5504425691582202
Ni 2.815651761540955 1.847266296667867 2.587759411790439 -0.14064139980486748 0.167399384625002 1.0477908726855631
Ni 7.570395844692071 8.375141904056374 11.814166008866133 -0.6501391726650804 -0.5985340468942789 1.2256803582086118
Ni 3.355506416232275 7.4339766308787185 7.089322014550204 -0.09430986372817951 0.5087359549935239 -1.9387465094152159
Ni 6.015344109354329 6.915398281456903 13.647961680407144 -3.011961735711154 -1.3305132329553022 -0.6588634399119556
Ni 9.82838001316605 4.443359318040989 2.1217409311406388 -0.15992878727956975 -0.15175962120521605 0.9695056665204143
Ni -0.06175932007816102 6.9122718908013745 1.7738719359165898 0.11711169211404346 0.2804844720781557 -0.1182452914978544
Ni 5.9443357275793804 0.8793862961522595 11.271893549664867 -0.43506793588541204 0.580609086984742 2.011239277268304
Ni 7.620558501946481 3.396083971596683 10.768913455896856 0.4400504767016679 2.00087387487358 0.4710371548911694
Ni 4.751449204376428 6.704198424089627 8.554135257446184 1.8425258018175688 -0.32831958928356364 1.2796892083248994
Ni 7.6577475740255565 4.63681176019006 6.225963618755609 0.5310227914161822 1.1784036846098351 0.4164032695963732
Ni 9.010959903060478 6.213429974780305 4.053600432213296 1.0705392221256724 -2.1149244115637966 0.7474693112768224
Ni 0.9929940907215377 9.020076982397255 2.2734270406401156 -0.31479892908930945 1.3120352287557726 0.6069952902877547
Ni 5.068815297716741 1.7567600953256615 3.7204179847093752 0.3893418946032069 0.41469734264886 -0.8238868681056133
Ni 5.231106798272244 3.054820646688819 10.625968135601367 -2.366416095954028 1.8263427642998027 2.1229236277191887
P 6.6665881317126505 3.3993133272139198 2.5720179412353463 -0.9196614893047773 -1.5502175976316075 1.8212756341895409
Ni 0.23016319517875286 3.88078684861624 12.633848539993986 -0.6261798336360055 -1.1760243857443813 -0.17409145193319694
P 1.842398862114351 5.448287983869705 9.975794948844818 0.3775531294983949 -3.1779670682021073 -0.03550230667166789
Ni 3.850552591678053 2.0525877907666654 12.958907988064174 0.3874068823640231 -0.025224321784427524 -1.233762620996114
P -0.15978196362512326 5.646149198470134 7.690174984648144 0.06492806813195269 -0.5377076596355256 -0.51363082119198
P 1.995919620022461 3.586101128205099 4.101153395710935 0.22579247985191436 0.5735331539745672 -2.119250549742976
P 3.3969732144478058 5.778187721185322 1.1714426658593953 1.443670568407288 -2.997599296341895 -0.8859797807816161
Ni 3.104683769509166 2.178495218034636 5.192986361312255 1.5403445614922697 -0.1904495815762462 0.5677795393202415
Ni 0.5605693328969564 1.5774325738328518 10.150989831192671 1.317094645556551 1.9860344958679024 -1.274342085080373
Ni 2.2451884318688706 3.3560306014918844 11.313665498585097 -0.3731416306942606 0.8462953177078004 -2.296707061493664
Ni 7.953921606155944 0.564365931848699 9.696863803620259 -0.5512440035590636 -0.3717666047236049 -1.453022184825517
Ni 4.788563392846988 6.8091103596200275 2.7252653739723742 -2.598976490657395 -0.8139616385721015 0.3498505213768039
Ni 8.954020279235403 5.892272898758888 11.838456379378393 -1.2066074007375607 0.5865359939921382 -0.6774468593410977
Ni 2.4401947088946407 0.8235736706353461 0.5916273095288147 1.007579333463684 -1.8604564181540604 -0.9003149664573656
Ni 0.7883867990389571 2.1831473622136697 7.696325737042597 1.5367046507468374 -0.5180340924659982 0.6880421183584409
Ni 6.609077520372646 7.905425109191008 2.065612858422853 5.181465782293044 -1.16392940225306 0.4772977910889005
Ni 5.287980898939867 7.852042456770427 11.08001179120441 0.46537224329590826 -1.5890104021290892 -0.8535730823161364
Ni 1.8739435822015609 3.50662153821682 0.5787482649092325 2.53865095429446 0.20360360245970097 -0.44708810027473966
Ni 7.65819687567665 3.06526691007675 0.7042522567363252 3.7233551272010263 -0.8906139371195179 0.6090519157064672
Ni 6.5525403959433435 2.436731342000793 9.085954900943776 1.0284875443712609 -0.9287745073496393 -3.049465131973251
Ni 0.5550504109493544 3.962503586408923 5.560186560074615 -0.6490703650809339 0.6490258849962436 1.1764789567832965
Ni 4.805636855588553 8.850175435126351 13.00121348269508 -0.6167423423721894 1.5779477165570244 1.135012976329026
Ni 3.19298090440016 2.341170497083782 7.682557449571892 -0.6257599724897674 -2.1499307524356523 -0.33188031005162844
Ni 0.7162926049405325 8.97841361470937 8.67747604903228 0.7496709469138315 2.18264109818448 -0.604842762721126
Ni 5.508971788120561 2.11165223698337 1.0183852502789754 -2.0803536155674625 0.00450765806236643 1.8459929344305628
Ni 5.966314066678718 4.045643112763403 4.7842472888611685 -0.5043540238757442 -0.2489781739397583 -1.1187777454170862
Ni 9.164480660968588 7.148744966042677 9.585455715051129 -1.37424538373593 -1.7520162856720858 -0.04461943848158767
Ni 0.2369027199451597 7.717972716174253 6.709777252924042 0.1889460004475262 -0.7794682327809221 -0.21966065592256362
Ni 0.5133552177278505 1.8586579656133075 0.9462994805865089 -2.2243536474319177 -0.09060336141086976 1.1300358348294086
Ni 6.100486772236603 4.68558907068693 8.248421053590903 0.064036923776251 -0.3771929179454988 -1.057573920214256
Ni 7.334362710650799 7.034968683354238 7.380076345514273 -0.7620441237672037 -0.5520199624931396 0.6275108937426032
Ni 3.368114943816094 8.445729065533422 9.896814270898274 -1.006227190311164 -1.5420072939066733 0.021185632938679644
P 6.494954900994823 2.5676653314903755 12.786808606883335 -1.6284547241676404 0.33854563788694597 -2.4677198745015376
Ni 3.565030752859013 7.423343158469499 4.76812297585754 0.934992463234893 1.1710829825787057 1.0534640118109406
P 5.442344097443778 6.2469871918463715 6.234607995313631 -0.5005516194105186 -0.7927518372637056 0.6390145235068285
Ni 8.161124550918698 1.526034337037935 11.72408851618268 1.4703205668946484 -0.7713188642009103 2.4765181895194575
P 3.5710495228934573 8.79918905817827 3.1198252351510263 -3.1053493447353806 0.48665403549281994 1.9106980879184319
P -0.23511580983695546 0.4138133729731273 6.597698020013589 0.7693062046462557 0.42814626906491426 0.06608737854737651
P 7.068254447339436 7.915618640400199 9.68786279387668 -0.46855655456116074 -0.3292945516023232 -0.7237380290981535
Ni 8.290551507786905 5.200423239682964 0.4202365144935557 0.1470897265333725 1.6080797600557144 -0.7806823076936813
Ni 1.5599846930487096 6.134652418621859 5.523730411313886 -0.4443822713078024 -0.8923730859024696 3.7553123968339133
Ni 4.988755359762466 9.05314745600797 1.8370147306620772 -1.203152866530057 3.8664043651164377 -3.300792008650844
Ni 8.27902879252656 2.4306002465535754 6.669321383423472 -1.841326382192829 -0.18108073876683653 -0.6934542905129476
Ni 6.293433750028193 5.1759175787962235 11.943233524413463 -0.11915186247252382 -0.14123043953911804 -0.20921272111636227
Ni 3.4765276880446008 5.086394224815785 4.719775310064529 3.0699262280410804 -2.7774737849677713 1.6377677740384506
Ni 4.289005479988143 4.083599741829764 2.332816294508757 -0.16176532626767623 -0.027949434025074445 0.31177685443353403
Ni 0.26483524196659686 8.885979160447887 11.061668115253399 0.6760528072070486 0.05080217025353187 0.4878508840143985
Ni 7.889765074560177 1.2724222758976182 2.2429306910721243 -0.01811419310220751 -0.7024732061821063 0.7511688716155966
Ni 6.517429344000577 5.448100774848418 2.1538397899308643 1.4834213659426645 0.8838773897266327 1.4720388351373357
Ni 2.1430565503046135 0.2813526939149324 6.556242454339335 -2.1687849090276776 -0.09679894869862038 -1.410903658388912
Ni 7.138485911676035 5.735597668842057 9.89406042619511 0.4153396042185492 0.6676370723395275 0.20790325827631936
Ni 5.680885832370323 0.2185665323550008 9.218008400380667 -2.0464927011539595 -1.2787664394003138 -1.939166884782086
Ni 4.356428809005405 3.998166904964493 6.62244050031226 0.8447865943727579 0.7952787174506175 -0.9210213457667814
Ni 2.0979859784292674 4.418357553247833 7.728917891603919 -0.3621067130363376 0.9833564563605774 0.31144286813288297
Ni 1.2168399174768905 1.7259829322257367 12.34913638019202 0.015245870415476969 -1.433487714337015 1.0680982167843476
Ni 8.03948548933612 0.42987403490951753 4.609737591531234 -0.17483090120238276 0.07501399161304499 0.6243327531249377
Ni 9.346241899738153 9.02950295661916 13.642823728817865 0.4015183820647407 0.06232354062957007 -0.1523149794880538
Ni 3.986082562640283 5.711194972917026 10.87596519054059 0.13520505928064458 -0.09579133336971245 -2.774144206373906
Ni 6.1239627835062524 1.710687955186419 5.8351030078376285 -0.6629216691417292 0.971978296430623 -0.6576635060665835
Ni 8.17951783726035 2.7769837381936955 4.15010293850739 -1.502595110657638 1.3816465612960076 -0.13030530798618206
Ni 4.50411800590036 0.0375887633395279 6.432942848737921 1.9569226661036105 0.5295328371342171 -1.8646072070976405
Ni 1.8336093985648287 6.8732200889604735 8.484731256983682 -0.5192196281336671 -0.29206420649595505 0.021427573746156645
Ni 6.746938243649924 6.425369307781671 4.485985876143406 -0.986802763037965 0.584979962358928 0.08209172439543282
Ni 1.475338134072852 5.711035845248929 -0.23919322232063162 -0.24161479159615165 0.002152013345996294 0.7893325271695115
P 3.47062124342293 0.2309766183762539 8.116339472800819 -0.06885671376239755 -0.2951940103741884 3.523387321721699
Ni 2.428400540553429 7.47989900380093 1.2107369033828663 -0.7342368717469483 2.7843170331418503 0.41913815202903304
P 8.246501225077584 8.009064023376643 3.5163564073238525 0.1501961333728381 1.1321649653572696 -0.523444207737976
Ni 1.248309753955585 8.096200462335645 4.4668877478366005 -0.625099198977317 1.731563674244689 -0.21485834943791385
P 1.9102059696252558 9.021584015018632 12.349382560055016 1.7554412521932348 -0.7400444795676611 0.8749911429805962
P 7.852061177672557 7.468535416208683 0.2113561769000519 2.8375458105590035 0.604250894773398 -0.19339658001971208
P 4.270162891995397 3.708676234894124 8.748675384008944 0.5071788949190491 0.9172058286754332 1.6497683980437523
Ni 1.6592429161361797 6.934493601628389 11.33470779257799 -0.09189379808751917 1.3027172937889564 0.2219142278434307
