# total energy = -340856.0618749794 ev
CRYSTAL
PRIMVEC
9.37083187188629 0.00000000000000 0.00000000000000
0.00000000000000 9.37083187188629 0.00000000000000
0.00000000000000 0.00000000000000 13.71515966270576
PRIMCOORD
 96 1
Ni 7.914754584556414 1.8374608380655533 5.342164163369667 0.5854095936971789 -0.35208892378901946 0.8023649348734375
Ni 6.247271266937157 7.507282699581151 0.20693327034342698 -1.6620173906144344 0.17297713582309565 -1.4476305814963004
Ni 7.04052156096105 3.194197997929718 1.3241969459742169 1.8999439347257214 2.244568688927212 1.2238199079611052
Ni 3.8726462299332374 6.3459086438718115 13.57516906789372 0.36944901233402183 -0.10515040598710923 -0.6329554617969422
Ni 2.527988072431677 4.385661794978329 0.053592724912311145 0.5777302227750503 0.5371777552739846 -1.012385753713392
Ni 5.701326598476866 5.156721958983102 9.910451290655274 0.4041265091115491 0.07019137341342105 -3.8861854043981063
Ni 5.687448396382982 9.033678771605866 3.345689678220305 -1.672715493758229 -1.1790220349201244 0.3552135854609302
Ni 7.180924735824432 6.508211452964367 11.379467884583248 -1.0360337321496351 0.7378821818090195 -0.6271560815063457
Ni 2.112026213724436 0.6252668866130997 12.132787189571046 -1.9504560845426604 -1.982743740931772 -2.0042849574376578
Ni 5.904851697245989 0.6282552449167726 6.57654262234208 1.100623957326195 -0.09149450576657146 -0.7592650183601698
Ni 4.2487445695943045 6.619171473891903 3.0907665033777563 2.438390015189168 -1.365845332597693 -1.649949917926939
Ni 1.066634944859124 6.179173431274594 9.446960572380053 -1.0022532932650803 2.9740431062885104 1.5645527833073571
Ni 4.186859595503817 2.712312336568544 5.928775431172853 0.7234462088893475 1.1796002760210975 -1.155407223714662
Ni 6.001586795298092 1.4490211127477373 0.9112843559782187 -1.7982331505477802 -2.5124061616653184 -0.8158475427409047
Ni 0.6800703230112514 5.4789099025293035 3.2474889820537625 0.0049568297846430765 -0.8260872181910418 1.7085471587448575
Ni 3.9145900736687036 0.7447693579314434 13.303636093448599 0.85934675157512 -1.24794662580598 4.2151266864260695
Ni 3.642723497606741 2.576763252646847 1.188094982968428 -0.5837270637884334 -1.4812477553301135 -2.2285764272640134
Ni 8.31271507511892 9.146606667239489 6.6902136249480515 -0.455130510963242 -0.735047797684018 -0.7306661236765546
Ni 3.4623630953778495 7.961318248435219 9.979027038746459 -1.2439770996352704 0.15561293351303523 -0.6196623442324618
Ni 4.782975698137406 3.968472357287767 7.982606904422313 -0.7231538744599093 0.8288203008514887 -0.18611238765347302
Ni 6.522951771596156 4.261835621805753 11.754070639467688 -0.7084764749533927 -1.9265854485726501 1.5908507977719377
Ni 7.765627165162713 3.3767324331672395 8.639782410853027 -0.19639808585019725 -0.9048601626258869 -1.3231614205759212
Ni 6.538591690093586 3.4364433742490963 4.4888074791563115 0.7294343081519825 -0.7169642007094297 -0.10528950266813479
Ni 8.769599356880848 6.774371192378676 7.164580130765583 0.6851064327688846 0.3246709367873828 0.2414499838835132
P 0.4741078708561609 2.7741785689951635 9.948853897002977 -1.0551115747166926 0.5794042680433634 -0.7559763203065689
P 6.366711890764738 2.913757110648374 7.102724206254092 0.192628591505436 -1.5049443276161047 -2.131534509316652
P 6.329406608836478 7.743802497589009 5.215943742638017 1.5268619536248025 0.09124382320834608 -0.13674000786793228
P 9.171064538586577 3.703081026092026 1.0524109590668844 0.7487985716112071 -0.07487309515980653 -0.3174785328040016
P 2.5121982206233078 2.2698310234887904 9.19412147055957 0.776238927210347 -0.19635951930277795 -1.3336348093034194
P 3.675212171921053 6.308312866153606 8.668282859096335 0.2921806774691613 -0.5722943964714595 -0.9226984763588882
P 1.1028063561234 5.007191593816249 5.649425308728597 0.1729287990836635 -0.2539763984852981 0.5596268283061201
P 7.349103056539446 5.611591511879274 8.365795215524455 1.4751354717847884 -2.180928229258431 -0.5849089999116764
Ni 3.8523864912924695 3.2683587618534173 10.517881735765675 0.40357166504934366 1.6586402466120853 0.20173312490986547
Ni 3.4426468649892388 4.056623773288556 4.0805343880507134 -1.0297949503287749 2.2456938036705907 0.4194518266147099
Ni 6.860357946202768 8.875742770194437 10.989162426627422 -1.0757850439056438 1.9766365995927697 -0.3808562257296989
Ni 5.486659580538515 6.218315396261869 6.482113686028873 0.2667804922285018 0.22882843846476075 2.917543371429569
Ni 5.632816446209218 5.419695615539936 4.530062566744648 -0.43682091402077666 0.4388878238521345 -1.390755208465495
Ni 2.0633728543244048 7.419581083513182 7.508048296550139 -1.14915790037084 0.34942654646550786 -0.2029903943557343
Ni 7.313634457670203 0.4629200346104565 8.87695910417944 0.09521309226873924 0.4080777804498133 -0.24957055610811857
Ni 5.127063275912783 4.163816719778725 0.3888454823405474 0.032604930519214814 0.8278893043967872 -0.43316994753175075
Ni 8.041195219838507 6.053744845841347 4.690200713660506 -0.6787059285591794 2.904575498414991 -2.391255780705527
Ni 4.1472584597517885 0.21059351729674985 2.009558977778457 -2.2991637505642726 0.23652040779237973 -1.5234704114447504
Ni 0.9617003688649884 8.314420566530863 5.466903992655784 -0.6053742097445639 -1.2894905106860375 0.28737605699166635
Ni 8.129936998251122 7.771633868432247 1.2359864937322453 0.1498076396851678 -0.8636806030637837 2.5671246362541207
Ni 0.1815561203836379 1.4542687786306374 7.71978318117642 -0.11535717131678197 0.7965750676645378 0.861590039083342
Ni 0.29404358691637605 4.575074420855223 8.188073639568108 0.17216209612096803 -1.2763837981007502 -1.14093139869599
Ni 2.465016081836875 6.4839691107517545 4.716684558871671 -0.7886380722056482 -1.350841402989693 1.314673694819884
Ni 2.806629759981741 0.38349661147276276 5.980234417653849 -0.8632643414619713 -0.5576218820609493 -1.4116364227898786
Ni 4.9417082202632026 8.019885948021159 11.614079781209393 -0.5734994725231543 -1.5256797603912435 2.1713076754495315
Ni 8.77644943502442 1.2605455700642183 1.9521195263573414 -0.1133015743393339 0.5794402634876215 -1.5545339656187744
Ni 4.279930698269825 8.158499293985193 7.459689181272827 0.7122608816964895 0.25671333780048694 0.5002801109166868
Ni 7.7347783864368065 5.506394552590993 13.384144658924223 0.9099144372203426 -0.11186535611343959 1.0451344088993226
Ni 0.9055269168381225 6.047944300874355 0.48780427881053035 -0.864897249079704 -1.5696358542572193 1.7366236052660993
Ni 1.8258503772996366 0.25342665298272893 9.168255163172839 0.330509912066663 -0.4639275404295817 -0.08262959917677382
Ni 3.9788271265745614 1.2232777714636933 7.548742071305643 -0.2593001246910566 0.5301447596866031 4.569233669086382
Ni 8.407744681759082 4.60055371288309 6.112106387124744 -0.41527944040457515 -3.153177262851937 1.7222557665802016
P 5.8706762731836015 5.202245460517261 2.346869569899345 0.33409994341076654 -0.93388688887554 -0.9829661629006944
P 5.06466290606594 -0.02272895285531127 9.406446717597676 0.7007693361171221 0.44054052896420903 -0.8572284196805366
P 2.107303314429826 1.286474662024905 2.1831929968453023 0.014851720300851844 -0.5174414531873217 -0.9690899191392341
P 4.69015760783361 5.608236754046991 11.550495875289318 0.5958927526166898 1.239167336951453 3.6107228110145746
P 0.7545356389727979 1.1918198886620937 5.589257071048373 -1.0707760207268269 0.1721528401495874 1.015795036505257
P 7.594197165766685 2.2130250403063965 10.606097810506805 0.13116945575869024 0.10560034904033426 0.29359864086261045
P 3.74954161081956 2.8347891099426605 12.57319473754386 -0.44840913307900837 0.6357559073602147 1.386623959905941
P -0.024087723485705054 6.362092070621399 11.660367942629346 0.406873218618751 -1.4576604549284768 -0.40480990833181896
Ni 1.7577056874774046 3.029505626694057 6.625244710068167 0.10858231448679365 0.2261372647858428 -0.021031366749002488
Ni 1.8872949222892372 3.579751507011939 2.141718631789717 -2.0648406075335277 0.1894018570380222 0.6635137941997734
Ni 7.70270202872758 9.1431113469282 3.828847898558082 4.154787008995748 -1.9472373204950462 1.8622541334844311
Ni 6.540625160623208 7.390812629476569 8.750765858860397 -0.853500062986356 2.0774271859492868 0.6736814787613946
Ni 8.877532599093785 8.273760526770321 10.581986659941267 2.970509896324271 -0.32733639943468784 -3.5990906260922855
Ni 9.029714909697887 3.2970709908984284 3.5515818491358924 -0.2932970504617916 -0.31902350869361834 0.023551819178011052
Ni 4.208759229732991 1.0196683352071676 11.249873964355448 1.425359685913242 -0.32915956868635565 -3.82727860275957
Ni 2.7230794224604233 5.542500368031733 11.02530103997993 0.12560738828988047 2.1230658097240083 0.7834958658830764
Ni 1.3588549678811923 7.613182471264463 12.76779880431205 2.1154103500612793 0.1317376695573344 -3.6582398827589317
Ni 2.5170429407330563 4.5263367239677885 8.985568920457991 0.3893429230444714 -1.7639037811382912 -0.5549510200970056
Ni 1.4568644990762862 2.270224598430008 13.423411255976214 -0.8463020025760198 0.8865546794484795 1.6371239698068645
Ni 0.7065719728030905 0.3008796088120469 3.6373699413229894 -0.12263802124891138 -1.2352168369441372 -1.4978030885856333
Ni 4.784690560381283 2.7589790795986207 2.967892406729649 2.4353512283628445 -1.3565446240220573 1.0273297766177338
Ni 1.256647303979778 4.014436287922813 11.573907961792598 -0.9745077477206959 -0.8176542569323403 0.5525760921069257
Ni 0.7354200789111407 8.59296854576159 0.8509858637341158 1.4844076411153337 1.7753876134081745 2.551127489494916
Ni 2.579021623142881 7.992972918707428 3.036303228178799 -2.4731374459726823 1.959153098096026 -1.5509459911571999
Ni 8.44754260498172 8.241206256632472 12.59383586904433 -1.2493021113926097 0.4768393633952433 4.006121453334823
Ni 3.1583358241192556 5.15689063395791 6.7711195136976645 -0.47325987357410104 0.3816823211754201 -1.4096890692555204
Ni 8.483948287044338 3.056896568436409 12.650561263072095 0.041221468543632234 -0.6130576944317507 0.34304532552951245
Ni 8.416290880482661 4.628619354524672 10.388588619242947 1.154419920100728 1.183353829526259 1.0098676152772286
Ni 5.772938496114586 2.4581285203655687 9.4110684119074 -0.4330635038608735 -1.9818626238783996 0.5593560911432366
Ni 4.212048391741738 8.024655701475437 4.859212101334432 -0.05118886416898927 0.9001465592003014 1.9483462372885088
Ni 2.0443875488266268 2.084119876225728 4.094770555924467 1.3496689799481467 1.9245437355522728 1.6078936121868375
Ni 8.115749558703424 5.214568104510143 2.154733780262503 -1.3800691895065587 1.2752044330806684 -0.12143937295511988
P 0.11113057006873116 7.472994825535559 3.3162437130348814 -1.1279079898531286 2.041552840650181 -0.11539188120945933
P 6.0199161425605086 0.31416276307813795 12.787013695192208 0.09113943641999789 -1.2280791974580914 0.6001013913813987
P 6.84692017320977 1.4351710231496546 2.9502265143681434 -0.0027960746878984105 2.8248371047430836 0.11141926971495651
P 9.46856971081928 8.441442193392847 8.572921525005718 -0.023017286830779714 -0.11330645943534035 -1.666748991762149
P 2.5183267447079802 5.704156589720859 2.4121945763927113 1.1670854313835384 -0.7900094986318782 -1.3865100600358962
P 4.587921831436395 0.9813322617661953 4.698333658695807 -0.920964267276601 0.06484270750699801 0.013926894493737303
P 9.133309456725497 0.7816229657604964 13.444504998659086 -0.015269781674876927 0.6992220462346603 -0.5923168623399734
P 2.9710503770913226 8.156269035984959 0.5251657857303926 0.34815899260699396 1.0360021075807513 0.4874850160345475
