# total energy = -340888.68407585693 ev
CRYSTAL
PRIMVEC
9.15241204293534 0.00000000000000 0.00000000000000
0.00000000000000 9.15241204293534 0.00000000000000
0.00000000000000 0.00000000000000 13.39548016482769
PRIMCOORD
 96 1
Ni 6.7258512556294185 2.2470086515332994 11.437436033995553 -0.4511447868426166 -1.4377634588942336 1.7416115453989942
Ni 5.129569939501464 0.6170702557949472 5.860388201173915 -0.6021405332986145 -1.3669177397262653 0.2397188601250194
Ni 3.0775442716033137 1.7293390806833342 4.872270928797378 0.43060450079741974 0.11055306505991928 0.00138351061108794
Ni 3.998780293843077 4.2142738326005675 4.671338877411438 -1.4443084591016029 1.8554579364982045 0.7616232341797012
Ni 3.7792230841911993 2.7963638724651685 2.787934501082894 0.13235679119857205 -0.24802917976292768 -0.8331227848815845
Ni 5.399849816037775 4.516038006156449 2.7076422217534524 0.7162520051337535 0.9775637609382002 0.004226379376521754
Ni 5.338308998258826 3.092444398216063 0.7731536582694639 -0.8657788803537089 -1.5506253745929874 -1.204866249676738
Ni 5.6040858881283855 8.24043814292113 12.412921147434181 1.1240371940438125 -0.21961334762439597 0.27055127212484376
Ni 1.428133204254835 6.970394549834618 0.2941502820760615 1.9708102227189799 0.6062445281646591 0.5018834508480647
Ni 0.5032270648334299 0.2584110287528878 0.6089291853882881 0.9737706124443551 0.2741521021022246 -0.541653531657151
Ni 8.35508125468483 9.019528055564692 6.756197907846799 -0.6976387609079405 1.0882682639743193 0.7317454727836623
Ni 8.874398259681168 2.5533215738155546 1.2955843138024465 0.534811311924337 0.6359914204097885 -0.0670559131082329
Ni 7.295707879271706 0.7716911028439618 4.761704301304758 0.9273555155149255 0.5409989287922876 -0.5930005186705594
Ni 1.0651576997492784 8.281697215875846 2.966884289509066 -0.5404433133991338 -0.4978463046642136 -1.1001493316826214
Ni 8.08672338465262 4.364217797156268 3.3662845629909253 -1.3106460617177298 -1.0773241062579897 -1.396387467050608
Ni 8.003427283729627 4.202970603874065 12.712283728101129 -1.3655802518617643 0.05741376203277854 -1.0927854351183826
Ni 8.729122025206857 7.324995597429445 9.034394318253321 -1.148631338443409 1.3202049090507586 0.4626191060308032
Ni 6.9633563450648355 0.795212801489396 0.3901499307499761 -0.7398303066743258 0.8949467601669168 -0.9285166257025622
Ni 2.0401732944561903 6.719334738339322 9.146179131773064 1.0236903800929336 0.13895629879296068 0.5741499616229595
Ni 0.463021434491201 4.941954647465372 1.2006033285757056 -0.2819291749444822 0.15042059067881836 0.4996764158944169
Ni 6.7093494569299175 2.2115705125624348 6.890286233984853 1.133167695590171 0.16717904108407983 0.8748137368624677
Ni 3.468123450472539 4.43058193601932 13.504652875205647 0.34808777304942634 0.9089109356564928 -0.9109544484490828
Ni 6.539837635680078 5.9107649068876125 4.7785959927522335 -0.7532620066991995 0.6682029721453265 -1.656384360698373
Ni 5.368612634140161 3.1169728621731703 9.00915654237208 0.7261186135151881 0.38570532629188414 0.7118423061018321
P 0.14387316972631667 5.92433793377134 12.28708463588707 -0.54856979916101 -0.1506563608387083 -0.20285155478502484
P 4.227114666530351 6.261521941474237 12.373606046772185 -0.2475537827884059 0.38058008925017683 -0.020233296327739347
P 2.517974958963933 8.681520330788608 1.3279902587027925 0.5909696042834597 0.3353554130844224 -0.09698561078812976
P 6.675494685221956 7.914658040475903 5.752420858667795 0.11680547372753432 0.82377219690462 0.08997112714350956
P 4.95589377082607 1.253139088262343 12.730033000545909 -0.11411430004861636 0.4719599238157549 -0.2113181974951393
P 4.4720057523886725 6.253001045972719 8.021642413941354 -1.441431394664124 0.8490690237981958 0.3255893348365941
P 5.146941217333773 1.1630518976915218 3.6189094369252746 0.09165288572130667 0.5175754076620247 0.893975397392583
P 0.580643656336259 6.0511446009824255 3.1983716681042593 0.20190590304230388 -0.41378151570280997 -0.36921375639476417
Ni 0.8836186939897244 0.7244335391140647 4.78379364748404 0.10249754174529445 -1.8936917831684226 1.476831628540289
Ni 2.251108932075383 6.863174044141519 4.309727997523794 0.5141337289703274 -0.49751128992229804 1.4096530738112625
Ni 6.2663635673821885 5.60739906124498 9.154658841420922 0.23568377082369735 0.30365602509861256 -0.3095824178853765
Ni 8.989380010686068 2.454759249802837 10.25093108074803 -0.0041775284164573216 0.9004810597215848 0.28592261237459143
Ni 2.446750889369081 5.811708352630983 6.417332602073409 0.2844596546758198 -1.1029765167187715 0.9194149205116102
Ni 1.0254087747620717 0.6034304163041726 9.118691693040834 -0.6755164750876044 -1.01642110012503 0.41138756154933664
Ni 1.3911666124926132 1.0099595034338644 11.7645798458175 0.34589642182506236 0.40617670677235856 -0.777772590246054
Ni 4.340815079865849 6.850159314385173 1.182294843762349 -0.3406449436181359 0.8846070688038055 0.13119953766567727
Ni 5.86324558417668 8.04916188611532 8.040395705974232 0.8050846477974458 0.36296700415410393 0.003923760534438403
Ni 5.7397612424941125 2.788520255446049 4.887916976981958 -0.7882421223188102 0.09103890628639161 -0.9878391747222796
Ni 1.1543021918918974 7.915234642427133 7.097903207040297 1.2830542681423902 0.42036456823696633 -0.5944056265482021
Ni 5.639093863738808 4.96252011705926 6.763873120486512 -0.7580368023800235 -0.9273460024332287 0.5513057100349344
Ni 0.9085004410471087 7.830666356246661 11.215499197243359 -0.5507107567634127 -0.8821092420826163 0.015027326646767668
Ni 4.937094716733571 0.6939642445768991 10.489102465771532 -0.7323476251440355 -0.31534220318728917 -0.2531680436513898
Ni 8.62396996460865 7.382262238839749 4.664560601140306 0.1280314243503408 0.873652883785147 0.23249148913864476
Ni 7.7008393931005585 6.429660900935432 6.9639613194930305 0.6325715960949622 -0.39287227635396854 0.04955132856556628
Ni 2.7727231924647184 5.289444270995023 2.4064711244902646 -0.2976764104764099 0.25498067138009634 0.16523965796952186
Ni 2.1014853019370325 5.557399434902564 11.4790419833622 1.459926111034202 -0.27376952195182525 -0.20719671912759802
Ni 1.2398955482078902 3.586930909661793 3.4872986686951264 0.7277975438795079 0.013562826286099222 0.22691090972707373
Ni 1.8634951346696285 1.3250953508111383 2.6271485893616755 0.5748518727859906 0.24417432479321174 -1.1675988806848472
Ni 1.6760537384600973 3.9168570547087254 7.970792528531173 -0.7743224269139245 -0.06361397730621947 -0.24589542124937652
Ni 3.9225315501017874 3.1189863927965145 7.045968760817086 0.08530611756767244 0.004743171111940218 -0.9944229985873841
Ni 4.413073372008147 7.274199711249616 5.80747627735719 0.3682344232006303 -0.25222753411499144 0.0032082225246525395
Ni 8.342029915280788 7.51056990160642 0.07691320884699293 -1.3428866669189905 -0.3283486427492861 0.2851852199879346
P 0.649381930852473 5.904266694421364 7.7602824780664585 -1.3289250625325757 -0.7119307520505803 -0.476002983536877
P 8.82684232732254 1.9557514468665067 7.981723254092356 -0.22910380361333446 -0.11617401079112251 -0.6409369373405219
P 1.7872921529879606 3.5337370915577995 10.176787391749327 0.7756226337825868 0.2603275375143065 1.2311928033864086
P 4.40557754664215 6.276083428845787 3.6499068256304716 0.0018049144192226981 0.10810331796784607 0.014056478093066113
P 6.995810797748381 3.9652000944928436 10.389909540577234 1.3322451280447443 1.5287895096648187 -1.568051540489235
P 6.670222895953564 8.408494730675008 10.21804554946285 0.2272351258357119 -0.4738023763411324 0.07096501835465198
P 2.857026058699386 8.861996741523752 5.826953525173279 -0.8495351648013368 -0.04514394352648999 0.014579440476071666
P 7.072681905500521 4.118951462409051 1.2492328388530545 1.1105867249658616 1.293790680723288 1.1567413691450532
Ni 2.886258862385579 1.7128555868076816 0.2693884316148854 0.5520073640876494 -0.829536610192223 0.11345378364648201
Ni 1.8176690081646907 1.5104591495138546 7.099617453793718 -0.4038033214441755 -0.1235034545730002 -1.2845161973998975
Ni 7.00702250235564 1.314139913737759 9.17193859513399 0.2507262669791166 -1.4138077194095846 -0.1867086264765752
Ni 3.134124482119296 2.021301021068297 9.0499195546005 -0.19320528994451242 -0.6098479292452014 1.0465783404347007
Ni 6.916733958722484 2.3642052862238776 2.6542745078228966 -1.2274004262235119 -0.639717463111124 0.21061474367021146
Ni 4.479538187402366 7.100184903333024 10.196545618611493 0.04248208042361071 0.22379267581306622 0.24315179706596832
Ni 7.155657672006167 6.485069602725105 11.240856869720806 1.067238954107846 0.19499400641381903 -0.43275908524657725
Ni 8.084160709313819 4.231956292438302 8.209017912785031 0.05107599274020881 -1.0484207929600784 -0.9631519563882444
Ni 3.2783207319865406 8.360517787367861 12.127289930377252 -0.3975915362065088 -0.26439810803925434 1.9588893029116778
Ni 0.10614692777437883 5.212939259719854 10.057567158782287 0.03858891601679161 -0.8644169670091758 0.8277265535666776
Ni 9.00814245513087 2.6944609181000847 5.783311164153478 0.23093700016733132 -0.2771055283035937 0.4923590562973972
Ni 3.557771325270994 2.7936822157713506 11.5043328432326 -0.2577484639332206 -0.016440404944210396 -0.3828364893845213
Ni 1.0299666759003698 3.455795151610516 12.59248780842405 2.3518878204308655 0.22619871415139753 -0.4018665094327789
Ni 3.475170807654245 8.632371878755151 8.250892027821058 -0.10365813771229891 0.33309104253027794 -0.8351264455751748
Ni 6.0876352673245835 8.267144880916218 3.5103929497036965 0.6396110194402468 -1.0857940914022137 0.2140353393159862
Ni 3.7884395629989633 8.445049463900636 3.379117159749977 -2.069751928792216 0.06090969100117897 0.5182711481774688
Ni 3.6477486868987237 4.668123635102434 9.340413448112807 -0.3175890902399369 0.2344408995555317 0.3360167008175051
Ni 5.32814982102286 4.534745536129705 11.638354356763605 -0.3023347351840277 -0.26321308659221765 -0.3935243081156707
Ni 8.070633444489713 0.22342227320750613 2.297807283436706 0.336284352656595 -1.120998921438121 1.3827500787728315
Ni 4.844728575593601 0.517138730958356 1.6874283559996093 -0.23602906997825804 -0.10866253290542575 -2.5166237992910916
Ni 6.307833145811162 5.922351860383768 -0.040671488109175494 -0.1973339674009053 0.19255814327881673 1.808279221929873
Ni 8.139093485683428 9.08665184461746 11.82412360731457 -0.5003076217205126 0.8369365022007199 -1.4947015668421744
Ni 0.026540164098066317 5.012547200637448 5.166743375773175 1.725669163137125 1.557576094879208 2.394642952010205
Ni 7.768045553860645 6.474159927711348 2.3135329576050268 -0.45951089941912476 0.22394205690673688 -0.12862920583533977
P 9.01402745599819 1.8675405007401662 3.4068453069158164 -1.532823056304244 0.2368816477865404 0.4278066263373083
P 2.121455864755841 3.4305161898756173 1.3597482128388987 -0.869684128945386 -0.5955376832701162 0.6782562426162706
P 4.979378859823807 1.2233205302129946 7.959447198709818 0.014444200449788029 0.3042700045335276 0.8130584100315418
P 8.70047497588382 1.959961556351682 12.614028009887875 -0.979932261170377 -1.5822247466658235 -0.7055546733209075
P 6.467780696600116 7.948979585192003 1.3476121146272853 -0.16009076677873074 -0.16505505276254157 -1.0902762955432836
P 2.0640610895785962 3.5940240289031204 5.687760898905046 0.08099746288998953 0.06098116766906272 0.316357531825681
P 7.227485800788021 4.055159151296725 5.646342573982849 1.5594267749347015 0.2299260424043137 0.34366907515644035
P 2.582590987149445 8.803284019029409 10.253623720336156 0.4551276827497645 0.23712127460117227 -1.2014590237674017
