# total energy = -381173.2015619883 ev
CRYSTAL
PRIMVEC
9.21687170847219 0.00000000000000 0.00000000000000

0.00000000000000 9.21687170847219 0.00000000000000

0.00000000000000 0.00000000000000 13.48982340102250

PRIMCOORD
 96 1
Ni 4.770929209670284 9.062737786637111 11.646884039217584 -1.401412173958709 -0.5390970837838845 1.7971872257817691
Ni 1.6287041510569833 7.496588542648946 13.535553738504838 -0.3883857013375247 -1.558611735232574 -0.08440263191679657
Ni 5.0873444092684155 1.804617361063681 1.8302319687305373 -1.2292382507631991 0.6498121283429648 2.1045968043855434
Ni 1.7031027380408492 6.531480707952763 10.131733588774901 -0.7550134421726674 0.4707692459417635 0.3624471270948919
Ni 3.370738954437259 5.439871311518032 6.147716906403466 3.9451541696228314 -0.5693124310250001 0.573848885442773
Ni 6.629308582363906 0.4202672212407738 10.752347024759182 2.5707794593978885 -0.8516282998849397 -0.9990882652735374
Ni 1.0970842181230878 1.118190853925002 3.3341848419523714 -0.6273728255028421 0.531832174691355 -2.1042931571021954
Ni 5.775429953282354 6.995983382410876 12.175455952736765 -0.6397596292029691 0.23115862925983413 -0.6319948976558858
Ni 8.978873472592737 2.9644961249153465 4.415178245759747 -0.31046996269665245 0.6974873229317406 -0.022135398446458652
Ni 8.556390515436338 7.341616064756637 5.437815027479863 0.9042757508773264 1.904384229885262 0.175519185518659
Ni 2.7090320967399486 8.567754918031866 2.1955362199811117 -1.133787588562357 -0.3353770103509772 -0.44452316776104095
Ni 3.770944733107532 3.2433986573895517 11.350377282122569 -0.24008010011918005 1.364493960776121 0.6067124689400132
Ni 8.006290755086356 0.6058655198503764 8.548460319172596 1.9666396362810583 -0.6249547029796527 1.1806965944090697
Ni 3.8007336618899714 5.65207134473527 10.586800030161399 0.7697826300620421 -1.0226313427008002 0.8045452303542079
Ni 0.4850083702363228 5.781430136647876 7.973604963582281 -1.0346468791044374 -0.17329723816667572 0.9657066044892981
Ni 8.437972150028916 2.216123024228778 6.861747022085007 2.404404402272343 -0.6218850629153935 0.09001535011788368
Ni 1.4869302331945171 6.29001710763025 6.029829432796127 -1.7642763339863614 1.532459245206922 -2.6382804304633405
Ni 1.4535928088733274 4.06624408003222 10.857540101209327 0.351450261763756 -0.34359168495128567 0.35089516059123443
Ni 5.879377830388901 8.705206123147128 8.638464913029738 0.3128394913700935 0.1201193685921157 0.26099396745371184
Ni 2.009462330800601 2.038956319694106 5.242091073808259 -0.19049586143314934 -0.5805764339745937 1.6822164912701287
Ni 6.583012236672634 2.9448181042004613 5.9460305585396105 -0.7647535522785668 -0.04381031231673101 -0.9121309852556871
Ni 1.4098956209532942 0.5921627969478847 12.818461778101288 -0.9916963436848405 -0.6182667494365158 1.2616657751642852
Ni 9.452086090645963 5.827588229266212 11.86703823256454 -0.22093155221518726 1.744478068313512 -0.06733539202186468
Ni 1.1447354439291566 8.93805194858982 9.075305912654356 0.8401547520277015 0.14781786294864865 -2.2244595768821624
P 2.4485264398380666 7.138476216252622 3.8820338422749177 0.9505869752390403 -1.234126946314068 0.5100451607232507
Ni 2.680939072318885 5.481909462562806 2.1035223481306 -1.078496015078904 0.22243898999864917 0.6720313447524813
P 2.9989211400769844 7.428733934450826 11.926663096174218 1.0219685123058204 0.08567327109910407 -1.020729754802713
Ni 6.1501787327889215 7.240829574584613 4.887929098549359 0.11744105042900418 -0.15317527060582006 0.11433310092764179
P 7.6555795765279955 2.1765918622399525 2.7290179609639096 -0.45735657208028324 -0.7001576706750523 0.5428907464983618
P 0.7286296401838256 1.8386829182356792 11.037885704734425 -0.1696141328881337 1.0656289293082488 -0.10827481054870385
P 4.73763786970674 1.0280682841122863 6.101258343773279 0.1407478434757447 0.2745130849860692 -0.18188292295315772
Ni 8.410653342816307 3.6866933104589297 12.105335837516765 0.8246065198804572 0.3964386535489882 0.013234239302086885
Ni 8.503421154757909 0.5464563310344813 4.633187673101852 -0.3431337714782607 -0.03108720832310775 1.1000462304458538
Ni 8.266234182824954 7.5707659247161105 9.421642763984947 -0.27708573080925186 -0.6128067547632091 -2.3236810189793466
Ni 8.440810946459916 5.189485779555235 9.76625421696527 -1.406348949138694 0.15846968623553997 1.5427444291830141
Ni 6.082904787497142 0.65557487306892 4.062420000034747 -1.0665864081255114 0.7454422535444646 1.464999154681735
Ni 2.403511239289355 1.578315514406736 1.394402981599828 0.763808414756478 -0.24526113009948727 0.9289673400867358
Ni 1.5292541072566967 1.690291286615233 7.716178663458313 0.05590426736678759 -0.49891819757215367 -0.7259280947709369
Ni 7.729093343845056 5.234547064461592 5.150792431188415 0.6824049746773215 -1.2525537855606879 0.2859388103245076
Ni 6.2351029870591566 1.9840145485084244 8.164526927187161 -0.6016648792137768 0.42897519272411283 -1.046544658983288
Ni 8.266612074557653 4.3217449756937345 1.9772843889177876 0.10957244631420485 0.9268934882768424 -0.8089515869520196
Ni 7.437065986313241 9.136537276971579 2.4632817294691955 1.2762241325944343 -0.1107916634332866 -1.2675466594250944
Ni 0.45433462178707773 7.898471791937537 3.344127081270941 0.7683975767890573 1.3369739009789812 0.29045495302730623
Ni 5.142664072186795 4.018316348080274 9.105617438052503 -0.03748694120186447 -0.13842382332825837 -0.08873339808166653
Ni 7.775841316241261 2.5436722046342077 9.974927875135428 -0.8915025103720582 0.14769907798259724 0.6726720636602738
Ni 2.4613931924928583 5.206020847078656 12.755261690025426 -0.00901403057315222 0.27100172939870104 -0.05920942048062062
Ni 8.985242330819426 1.9917567205929694 1.044195044226963 -0.12486151126279141 -1.1661197250361595 -0.3304047539473664
Ni 3.748317313503296 1.5270604918327422 12.959025520731968 0.3635537298955094 -1.2523406411086173 0.7113594529281426
Ni 4.830599235950456 1.5842235290569664 9.934823423737486 -0.9941311783785782 0.007263109320316523 -0.40462658867641926
Ni 2.8829452456248057 2.8823645827184645 9.29493290094984 -0.19661482984669365 -0.7636094113717946 -0.8133078070381863
Ni 1.7575652319070116 2.8471284828622556 13.098361576074955 -1.2174677404908323 1.8922067139824634 -1.0904519018891994
Ni 4.74000660568975 7.548258324441755 2.916364700102606 -0.23659934065943122 0.17328078310644351 0.8590168790395271
Ni 3.773424071548892 3.6864905392852862 0.6768179185694668 -0.37582637661527535 -0.8051550960240649 -0.9454123730166363
Ni 6.244181605515438 7.213519984243533 1.1097850670903533 -0.32947941391961966 0.8923417184439019 0.10887747712970927
Ni 5.302134383385365 5.042790052296165 1.6966822653335945 1.3007678833720695 0.8168795835498447 2.1510808068796954
Ni 3.5701644037149975 0.8717197273006644 3.961286955493224 0.7467910542628752 0.06332138576646515 -0.5195438442423052
P 0.39109950959940337 4.3298650395109775 6.431583645883309 -0.49643605458024814 -1.1210313173379534 -1.0414875561753547
Ni 2.277654858557853 7.222699988286636 7.988403572509598 1.1122566564691168 1.3670187840805037 -0.946229469601293
P 7.809049704361042 7.4060051292597695 11.396175916751265 -1.1587116054975466 -1.7328420267364804 0.10726231012378945
Ni 3.5685606680689133 0.15750435250138628 7.996578015868863 0.28736860079249865 0.6344197050472945 -0.523490230484563
P 0.5304521553111433 4.972594358729624 0.34764656877489447 -0.36571602765415084 -0.6783328614904769 0.6601011689737988
P 5.73659005665822 5.071592775824978 6.035683989591488 -0.9882765193700142 0.07661038956588741 0.415373285669962
P 9.566283128893003 8.859404383830983 6.817783466577779 -0.4010833514098512 0.5575234088098721 0.6973510544641925
Ni 6.0526550151382414 6.345521107979215 9.765997987936757 0.5513213937642182 0.8294237387634426 -0.7331354111526536
Ni 5.74403728885383 2.2794429316345215 12.047599510883424 0.9338550071963402 0.42142309140846773 -0.45752832177145725
Ni 3.9622132510819106 8.111777849738282 5.6105115493228634 -0.14212878298367135 -0.06299125612055603 0.11607913708447104
Ni 0.09444712593422586 8.898511569729465 10.957082313724905 -0.24508012443693275 0.8100214229774308 2.0895075141525887
Ni 0.47559241428207133 5.55337708440038 3.492960201037637 0.10138862495183183 -0.030324104904838098 0.9193714688681844
Ni 3.9548397538585345 6.5972246525706915 0.5867746138519024 0.35722598790526866 1.7254256796677507 -1.5844484937900196
Ni 6.562550781877764 3.269961681136764 0.6913059189262482 0.6721102776195328 -0.10770659675005967 -0.9441029101765933
Ni 2.968929440120901 5.076966211926514 8.437911318676823 -0.3794374910053014 -0.6889751716956715 0.2983400122023378
Ni 7.556931400550751 4.195630522559414 7.612051057356947 -0.12450952724001138 1.1938868678470989 0.9704322920997416
Ni 7.009965376520704 9.378258949696908 6.594041145144498 -1.094004395127148 -0.4216460060525513 -1.6285369994688017
Ni 7.965128206836858 1.522452056068132 12.28913408111671 1.847948772605353 -0.5047101216635824 -0.40543854305475335
Ni 0.37488150245658736 3.444520011028667 8.991304267224194 0.9236469563150868 -1.0129796785436491 -2.1487231052807965
Ni 4.701286528395496 2.9902757145825754 4.758993361039944 -1.9210413788259688 -0.6225219251684441 -1.2451029857095977
Ni 6.5533339103485435 3.898635271273349 3.508028864300759 -0.6567793036894172 -0.2786307066988685 0.19177010015988263
Ni 4.262305371201793 5.250427734106439 3.924891373198639 0.3605535096166049 0.513226900885342 0.3472429085506278
Ni 3.619520750753972 3.1183072769949742 6.8695168447841395 0.04859230708640663 -0.7124981945182762 0.9465161476037763
Ni 1.1727086490203398 3.474649964057688 2.2566588252142887 0.9525934641461078 0.19306773592538362 0.23245420814280612
Ni 1.6983468323317716 8.998772698224323 5.053314797895382 -0.36072140265303687 -1.659199204439349 1.5978439412603191
Ni 8.024291305182922 8.351093918994486 13.235715082352007 0.43323988153773774 0.3528754242460568 0.5045712820928729
Ni 6.21236496499657 4.5975322055910635 11.203055729286666 0.02520452429008562 -1.1102018308226171 -0.31947319463652724
Ni 2.651463517168439 0.5929895503240556 10.855935443876088 -0.327674499500397 0.44247014188675415 -0.8522199107223517
Ni 6.4856912901955965 0.9102628406615577 0.30737068356650776 -0.7238825250958179 -1.788210990425088 0.38664737849017927
Ni 8.508287662925337 6.946949625875424 1.7213954629648927 -0.1919120250543856 -1.6772066967603634 -1.3724070449756105
Ni 4.734024856067286 6.869315916984803 7.861734263709218 -0.617565095383801 -0.9334238331961925 -1.2142150378814895
Ni 7.13435627467906 6.619603216643638 7.117622122730608 -0.774993227728704 0.16970463571941097 1.4791919012423493
P 4.596840940226372 9.01476397032752 1.1858804801227487 0.5803434920281811 -0.44984560841521887 -0.5493246750491636
Ni 2.11350237662244 4.092226440873092 4.651048126751175 -0.186272310270105 1.4598744318606598 -0.5640432122062609
P 7.135204226859749 6.2090929756036966 3.252531655387856 -0.22184532227870826 -0.16844993737670344 -1.1082051121075622
Ni 3.894810269588723 7.855659423684309 9.86386641658263 -0.17570147673279415 0.37669515237347384 -0.15904407068177123
P 3.31623037621345 3.252587878304184 2.7777300486829914 0.6656840623782149 -0.04014623320158247 1.232882789494322
P 0.45751536415181165 8.773069948216776 1.2247913466576579 -0.055076115038537404 2.1003801952010344 1.0547099684028995
P 5.303065287409816 4.907772101264617 13.075335065933503 -0.8306460412063179 -0.10638736371800386 -0.2495844400651895
Ni 7.395405727001166 5.578022998869515 13.08019143554225 0.9034954210678762 0.23152783967379484 1.4772262928755462
