# total energy = -340862.24961877015 ev
CRYSTAL
PRIMVEC
9.32128816097666 0.00000000000000 0.00000000000000

0.00000000000000 9.32128816097666 0.00000000000000

0.00000000000000 0.00000000000000 13.64264743383877

PRIMCOORD
 96 1
Ni 7.4209572119212 5.954802462294509 5.766706322504776 1.0890077132435052 0.41301866939485643 1.367949523424889
Ni 8.70406982424557 9.273814925754444 9.714574836890637 -1.7571587491049738 0.4369160448377443 1.5694566483668777
Ni 2.9795404667998944 7.209503788042648 2.140286161824952 -0.4466381572215146 -0.5577779480228394 1.0226879069703485
Ni 8.156341605575628 4.508455450192258 8.479969276473765 0.008581313911107802 0.19980813997301072 0.6423261043785646
Ni 5.792360372017606 3.1927276502923507 2.162782158879768 0.6292397035082518 0.27210473265489266 -0.6580106049933571
Ni 3.305841483167213 7.0948239787423235 4.7570681896666605 0.2222595269979914 -0.5181644473962753 0.45212283448516977
Ni 5.054132985447906 0.9488698583707817 3.0517105410507073 0.7197517907568959 0.47757958399537753 -0.4528342587298976
Ni 9.28825360124873 2.7236524618488676 10.530118580952205 -0.5489125272124095 1.4681011906458263 0.3380517289696629
Ni 1.3483336661871974 4.954423165071936 8.008766037923538 -2.3181804008760913 1.324760646742241 -0.67760343952362
Ni 8.104766917706108 0.7658994949879613 1.854172015476042 -1.687005942238972 -0.1420472790134586 1.3204406792106484
Ni 1.6240200873744173 4.322943171504536 5.734536692507436 -0.6636153527746443 -1.6250606108844272 0.5486525886828035
Ni 7.799513370200054 7.239378516873626 3.6742243874535143 -0.6914138630441512 -1.5857782683450368 -1.7289516905431386
Ni 1.4202474050112237 1.6515365302789573 2.202891662205728 0.8102003717574563 0.9080161917563653 -0.384407433416067
Ni 8.048848509513583 4.876581086922948 11.847534466153606 0.22583567438502397 -0.04963591785957258 -1.0476600035346537
Ni 0.7077076245920425 8.746481685768488 2.010871260064094 0.1163097650380384 -1.1814584122757588 -0.01381299462369234
Ni 3.6168928719627744 1.1628027449229823 6.821160277104658 -0.5213137916585344 0.030859151472701695 -1.364453851566805
Ni 7.368422431362261 4.974007191678454 2.645213821252084 0.8101497210251789 0.8491844663301374 0.37314600156963473
Ni 1.6081645760666186 7.5134337126176565 0.315328927972016 0.5611815743877496 0.9810704885398781 -1.1071471031566933
Ni 8.15185806592892 1.636613147795838 5.359841411820405 -3.3070230771622207 -1.7556263716208473 2.8688309938255303
Ni 7.008602062459467 9.247957672157833 4.334896791552227 -1.7000229233239301 0.7867796788406709 -0.2383376635067766
Ni 8.78752331791913 6.157111702402956 0.24567933006313628 -3.969907465308111 -0.12649416177020795 -0.7040536632953488
Ni 1.911842825858965 8.759997553726341 6.138182030231364 0.4482510102345893 -0.14340867813735947 -1.9336274430210958
Ni 3.9674478803482547 1.7584796703344405 11.272237605364943 1.1710040497116543 -0.8515902475581527 1.0140747113800408
Ni 5.025544594394985 7.966243253070482 3.07209246993115 0.9823059036088759 -0.4551001719459388 1.5827291971060677
P 4.769143918590384 9.260457519696786 5.083495975554136 -0.035168063260700724 -1.1253731392464166 0.4391814438331533
P 6.87214772381463 3.0458893965405833 9.686743334443355 1.0527381893885095 -0.43135063493482484 -1.5200701275139499
P 0.42789932974208966 5.144913011683447 10.375329268325922 -0.5075198231982356 -0.8209383270002507 -1.0915883294864877
P 7.754202588032381 0.02002305928294114 6.931242827041663 0.015440502924786312 0.16225537853021732 0.44930104876565846
P 9.09252519064252 5.1478305749046935 4.442782313849461 0.2404997041551019 0.26779556375657754 -0.1709030269028863
P 1.369483669219176 7.857529068248108 3.9668727568634274 -1.3784298541309228 -0.9183980492113216 0.7451275505175231
P 7.2713039291189 6.878159954733812 1.6994917619222456 -1.5301750771584357 0.40699611734986035 -0.8343846823131437
P 2.1711051371553314 2.9044481686837105 11.811121785746325 -2.68366811456952 0.49657695103348676 0.033298357041813616
Ni 0.68975389129989 9.001829056001203 8.020825920657241 -0.017211478782280035 -1.1346363097158976 -2.0248694664572287
Ni 0.5579536718766774 6.236072335141559 2.452047832784919 -0.2286014100556192 0.29971683794520637 0.9879121940520599
Ni 0.6813526142030534 7.197358149457073 9.516101306895747 0.2980625901712351 -0.9713296071030304 0.5515203971489018
Ni 3.606378458820389 1.7259949807943586 9.0303410124905 -0.4598855091497241 0.520488981764394 -0.31081937561627115
Ni 6.231728614818553 4.007119283126616 4.46919511622558 1.2151375496957588 -1.076550461316759 -0.6309744268111714
Ni 5.659970115048371 6.09508785040878 4.420477403203705 -2.2468731686906724 1.3315938676139907 -1.1222649326347383
Ni 5.688866108613437 0.4393766319603688 8.038711608545192 -0.09995600627036334 -0.3560347958106449 -0.44170498158595545
Ni 5.226203966483749 7.542833055748049 6.539071063020714 0.008418048860366147 0.6709244848415477 -0.7251778468684736
Ni 5.9937374833013735 3.3230299386943036 11.494994955500385 0.7386398859106506 1.2463846806354988 1.5748695918523328
Ni 3.4755821421413566 6.649471468886934 10.206365072662736 -0.45730360735516085 -1.8408409579159781 0.8811983002325726
Ni 5.396308155699518 7.428265101906688 9.066453547416234 -0.1169995920162114 0.9555453476855801 -0.03385191555243847
Ni 8.190392271541171 3.7081762477636415 6.021578307036902 0.019618288451559763 1.6702814303954396 1.350168031071752
Ni 2.4119858680290176 1.235928251219092 13.280176388146595 -1.1485752883944929 -1.5150935002349648 0.566366975243431
Ni 7.508148542181724 2.0089799706788196 7.935764504761111 0.6555834836091032 0.37264643622539695 -0.46072137478745817
Ni 6.258545961104583 1.1068470515774698 11.577819262217284 -1.1364157702138236 -3.0705322370561956 -1.9333135113251028
Ni 4.15222377726448 8.709578705599426 12.542858759309784 -0.7625596299510415 0.6346223079764038 -1.0518796980429561
Ni 2.440602222946679 4.0912345882656975 9.590181313108328 -0.15027763734305088 -1.5913609046391366 2.865400627987743
Ni 2.7599588795701355 8.721332850078635 9.516865652531983 -0.2524237092861975 0.7475772976095963 -0.5743697909432495
Ni 7.38931143832333 6.431008436246791 10.09205345424816 0.14423888734813872 -0.2648189976267568 -0.28405701992076243
Ni 8.734830075459994 8.038278168641718 5.3740703583291385 1.2938012222462492 1.3897144259058065 2.6126470461659523
Ni 2.538140183161146 3.5316683335223242 0.30504568277815136 -0.1436202799275333 1.0296000607091493 0.7898369776097559
Ni 6.3088902389255255 0.41500053106617424 0.18223957438427166 -2.0622360800311452 0.7310523033713797 0.6759142247466553
Ni 3.8298283806725677 3.994815182640846 11.840631120078031 0.8471545803843022 2.0379563815481743 0.5054891659214521
Ni 8.088016562726617 1.8036785970431515 12.471330921819174 1.2731058986804267 0.2560322525730623 0.6905507437129075
P 7.68908406834027 8.159865052532917 11.35619444860383 -1.1064238518374236 0.20640353380234128 0.1498022403685291
P 2.2703116079659744 7.408690396588417 7.7074684451494235 -0.14954513005240053 -0.7870411600321736 1.0892679088834272
P 2.005447202433284 8.061236501593575 11.639552290018162 0.945315956648088 0.5815452256457663 -0.1528934776993431
P 2.187380106434236 2.2091266719140097 4.496698509326575 -0.5459845549323371 0.006957919375071888 -0.1105756907677386
P 3.7504482899628586 5.3249070877290645 3.1540713358040655 0.2733033809486841 -0.06036744534446377 0.5177756965982889
P 1.1541898745829435 5.319603274716639 0.5961411255661487 4.037707969891852 -2.7828826146881687 0.9519931115579476
P 6.535350936881418 2.5214830410641227 0.05002269337642736 -1.0094606096467968 0.7876548823567725 0.5295441499881267
P 4.837403712421667 0.07058731950650732 10.030892753545638 0.3669432151930325 0.10860211198113554 0.19406815216543996
Ni 7.813131772328622 8.201428676825376 0.12329827241331048 1.224925482320458 0.7706542340337179 -0.17455090806811877
Ni 0.2563643227804378 3.5022410265271913 12.878004746094485 1.6686035284723841 0.6133669981420533 0.900909662618571
Ni 4.216960124138473 1.9342884879572482 0.947152877075722 1.119869178709052 -0.7673729921792849 -1.6220408502214967
Ni 0.03533886800125062 2.899265532418492 4.134513329595569 0.7597015916769562 1.1431122083973926 -1.5243895808249102
Ni 8.239440890295809 3.2394086618323024 1.3898171274007356 0.4248917666833586 -0.8524862770098609 -0.5006212963061895
Ni 4.104247106658224 6.209907479032805 12.73067712470976 -0.5387975502655946 -0.1722916797202968 0.3228428824397085
Ni 6.540207328057999 4.798636474603246 13.62309726145795 -0.49974866389324907 -0.9225560372437531 1.4989194615782637
Ni 4.989881345562746 7.708379135011135 0.8491106351671036 1.090275267102019 -0.189701390556312 -0.5895639821851847
Ni 5.913024448372371 5.586984428075963 7.763825886018373 0.6806088020088472 -1.4329971478538417 -0.3428938875533127
Ni 1.7521878007678537 1.1109950248472937 10.954158897360124 -1.3577347876754164 -1.9049377883958871 -1.6275856912991262
Ni 4.68413376977961 4.169319019909103 9.295704106944394 1.2148927806748044 -0.5359413117637222 -0.5079088311065382
Ni 0.5636294042901511 1.7092539471031143 8.649356658623356 1.1229611873708143 2.1332628048616677 -0.14174003218568493
Ni 0.005868683080182366 9.180685934880712 12.072720011877339 2.1989956282831034 -0.20616519253929008 0.9622500133992654
Ni 3.5649266899868906 2.7879320655987683 2.909062206365874 0.0007026824939794351 0.7230024364837097 1.2675122066427333
Ni 2.821302277522296 0.0798219197726075 3.8474856969984725 0.7286362377307193 1.3794528960787984 -0.5856271090246237
Ni 0.17193489022743938 0.5020790737389119 4.0276783164837475 1.342173957122682 -0.7678812992742711 -0.36775362690946983
Ni 0.8685203536834056 6.424735209256698 6.179369074478654 0.10213244509639183 0.6312721605572483 -0.19129290341314795
Ni 0.9295850451169868 1.6294916835752862 6.3133122580698045 1.2303391971368616 0.3935060532832255 -0.3217439929485749
Ni 3.5233630656944297 5.685118950738225 7.423510312771998 0.44036235151513187 -0.004659610259198426 -0.2961679442516835
Ni 6.3857256179438595 6.776110491007896 12.459625248038849 0.0017180111323712348 0.6847729606888658 -1.1326406194421075
Ni 1.706028781369723 4.124595478900978 3.3278779407114616 0.9693125766730015 2.027575552534482 -0.8433706878618379
Ni 1.157032867498216 6.158947996187575 12.215353432500978 0.03268951981322112 -1.2768321984920785 -2.4848498493136044
Ni 3.8170302519097183 4.09404961731623 5.17416507845954 0.5074205786162099 0.2863159911582682 -0.7554487299378732
Ni 5.284350162567258 2.0847806867017593 5.2347245560701445 0.18353948471997422 -1.5979560413581513 0.3340485213475408
P 3.2848312994589364 9.292345646789073 1.4400225180268 0.48717802631709 -0.15851442343054636 -0.05351699808153364
P 5.614640690304206 3.764020085650192 6.486042254184696 0.5308492419527954 1.0480760080261498 1.1445720807723705
P 0.23509500725890012 1.0706152041621761 0.42706134592870276 0.5688180078870849 0.5298524252571649 -1.3760145598212108
P 5.296467837288093 5.390771310480921 10.895973551865977 0.5435240092069866 2.369550013597319 0.6040765739790629
P 7.688096011786109 6.960159327440871 7.94145328697813 -0.3004791700325277 -0.5673964449492099 -0.41837556283139565
P 4.48349304026734 4.477620628671859 0.7509593341859977 -0.6738961658753619 0.32797249035678994 0.08365392667623012
P 7.422504545770168 2.319816969844705 3.387756032151226 -1.0385724394110887 -0.5310670143905563 -0.24006055973515433
P 2.302908152965018 3.0003082970137545 7.539799908552543 -0.14517451178853064 -0.5004204931492929 0.5129903593945035
