# total energy = -340895.96324839024 ev
CRYSTAL
PRIMVEC
9.05513495432558 0.00000000000000 0.00000000000000

0.00000000000000 9.05513495432558 0.00000000000000

0.00000000000000 0.00000000000000 13.25310531272985

PRIMCOORD
 96 1
Ni 6.457461161310359 1.8548809912768665 11.505192666850899 -0.24999478812973072 0.12829830485848226 -0.6423587573887131
Ni 4.597291971271975 0.4595028187555571 6.19605209492891 -0.5907574882726535 -0.3371361591339291 -1.2615148514087178
Ni 2.9086089253185787 1.8204443133829382 4.678292869185347 -0.1347602584337421 -0.9731933997846465 0.9496423519375841
Ni 3.481798962311913 4.3944478951473664 4.901448518327014 -0.6201562531497449 -0.07681556359815803 -0.5627805434437534
Ni 5.014534475609714 4.462080697458634 2.5742833854317757 0.7849102297320998 0.3399959971802274 0.29756688148173915
Ni 7.583267968882354 6.141799159895072 2.479046004482686 -1.72903859382999 -0.3161994089812619 0.5456379702261959
Ni 5.098339748790966 4.403330982450534 11.450166423299539 0.19063495811417489 0.09051851500654733 0.09965107343543483
Ni 5.590622155760045 8.017190031642555 12.461059947372954 -0.24447282987023702 -0.23834152016151858 0.2021812681908776
Ni 1.8053494035619606 6.464560387045 0.2913951454889291 0.2557833697870498 0.19126924926406413 0.538122378575441
Ni 2.554190946678466 1.3575639293225075 0.429250518683029 0.5476943385345922 0.8864559490870862 -0.05697950270883736
Ni 0.5766355158097006 0.13678867830693067 4.7323130872531385 -0.08316953084064387 -0.8592243670646428 0.123684974456187
Ni 8.708975169970829 2.314564912729736 1.296568540867735 0.012118380530088808 -0.07554595285711506 0.7736853075505579
Ni 6.734050255780524 0.7527126132715551 4.852399569300444 0.0744617186540008 0.6430676105302796 -0.7105346430340022
Ni 0.6408237448180885 7.268719749055539 2.3098046283308826 0.9830571799526038 0.34690635114681545 0.42857821439601024
Ni 7.796507339832687 3.84801578168192 3.917737603606684 -1.0028330770279503 -0.31828328809348405 -0.7009084327981477
Ni 7.590783730820814 3.719351370376418 12.627717893547596 0.5513342492800246 0.4433003510975333 -0.13535135505052173
Ni 7.866947233952295 8.800160378067556 6.876387015219616 1.0275035831914368 -0.16146476430812193 0.11027204348439072
Ni 6.766929450477567 0.8681574331867482 0.4409787293609716 0.6244260841696923 -0.8179846436885655 -0.037032113052632994
Ni 1.8757349668723744 6.454382415456051 9.283097885855321 0.9296173149659086 0.1373439600005183 -0.3493694679753273
Ni 0.09321174727965227 4.891058656582208 1.236543862870556 0.3256438422236133 -0.9680910455610746 0.7228803090835485
Ni 6.07836794016145 2.2348887810472027 7.106990512788249 0.9100044258309876 -0.33454885802272705 -0.38006072641159705
Ni 3.474020601462351 4.3522600218084735 0.5728522804628473 -0.8028002226386433 -0.7450115937649492 -0.2756184022351059
Ni 6.148164919705599 5.616827716061129 4.675271170680692 0.37307735311522844 0.28872151527596723 0.20313617590497918
Ni 5.3284035603216084 2.696003413808839 9.502582583322466 -0.09862931703913981 0.8836850712101684 0.2562891057788748
P 0.011681123976641417 5.539460643769328 12.430776859841883 0.7893888343287438 0.26443950280015105 -0.6380734997497979
P 4.036462193370203 6.03474935551379 12.722980628874309 -0.8481012605682877 1.310406692013414 -1.4372613224468342
P 2.294371961979418 8.450967212244903 1.3911258811884173 0.36854526957282985 -0.6079388851479466 0.23872538586349853
P 6.461318648763111 7.817605804069567 5.589855185836926 -0.8497377677304463 -1.1625281510301593 1.0769700653526808
P 4.660197993183392 1.1679675155062919 12.7697911485621 0.017818259128343505 -0.4073000217435243 -0.8095195436403477
P 4.090313080416006 6.322376659385137 8.079371642764722 -0.6369154748859547 -0.9223590907415986 1.4640118510678013
P 4.736351677403201 1.039574758246758 3.823798728997323 0.8260831044259839 0.10231190809704961 -0.2596384818670819
P 0.3699683617448305 5.518516116825164 3.585362539769935 -0.08113604535038285 -0.39542718156533835 0.48699187844821296
Ni 1.550483577634403 1.0581468398561313 2.60843663760441 -1.3018156079102936 0.7368969350776148 0.22291695807633222
Ni 1.7538709618509478 6.58676848719132 4.886393451099443 1.04190227511527 0.0723320739055077 -0.08278026582202519
Ni 6.067012801039971 5.528033063568924 9.066197523878822 -1.2011160386056863 0.6235187418640746 0.7259252665574594
Ni 8.6020430823428 2.4045820084287994 9.998553146722308 0.5097767375532124 -0.27234101703541486 1.1914618033453737
Ni 2.5420027351493504 4.936787087653556 7.09428163100436 -0.9288362138255101 1.9501542370315252 0.31455595984056794
Ni 0.6413398875054285 9.04780926150722 9.321173822451739 -0.2904912055818804 0.045346546455599324 -0.41818170165303464
Ni 1.598276579455111 1.082939799118181 11.524608687029748 -1.4402535723059389 -0.11099838012745399 -0.7760275825304894
Ni 4.150837601857767 6.838999268872985 1.6248832822307433 0.059677104145658515 0.52778731519802 -0.3427223949724549
Ni 5.649987619939007 7.870442516010422 7.722584840843766 0.265910945139355 0.2396954630862517 0.997533776302224
Ni 5.381348933880851 3.0606899153865568 4.722413108304562 0.3581132756062284 -0.6320211229081308 0.07214104094062414
Ni 1.0915602875102453 7.554726183785942 7.125995429844199 -0.7280698237042881 0.07628000280966217 -0.4389960672952246
Ni 4.996424205878487 4.782333652250787 6.722558384122574 0.4467816247779144 -1.2208387138455943 1.122234336507119
Ni 8.141589474426352 7.229981882100445 9.059239558248084 -0.4776202074253258 0.56073060289326 1.0570069919671925
Ni 4.48851263613136 0.42405287127016683 10.392422536944926 0.13706190998372522 -0.3786399348046705 0.6923111780474398
Ni 8.343500871659803 7.065214648085742 4.911865545476415 0.305458368414674 -0.18656798713365289 -0.24043774056891495
Ni 7.2834886740213545 6.063073817373429 7.136876985412206 0.3138098257031628 0.002493198735498932 -1.9336312996758374
Ni 2.53358145972433 5.2125431097160835 2.657406806957648 -1.5541038200598913 -0.23283267452814738 0.06981933478598298
Ni 2.2553443307086236 5.248709318369345 11.52659628913275 0.2834196434470796 -0.24702079310307135 -0.632527373120588
Ni 1.0471720163990077 3.353795575851601 3.929214081535363 0.9623356311345362 -0.3027530536683689 -1.1667285622647519
Ni 3.615525194007293 2.5494370008740193 2.5046647920444793 0.36731396826889 0.1673435916864021 -0.2636545450050104
Ni 1.0264448126916184 3.3600436189088736 8.132741702149161 -0.2669206173507919 -0.07813685351274284 0.10274385342814563
Ni 3.5765971692200207 2.8014595144537737 7.484439321445563 0.2944661310692283 0.3678143049440762 -1.0203811132140428
Ni 4.217646386896264 6.861184349293738 5.992086993107939 -0.5218881761047657 1.2080451616253518 -1.632636623459472
Ni 0.7763419877033736 7.499906397309517 11.39369407471014 0.326994699824553 -1.232647019334432 -0.12639954517387264
P 0.23772083357300502 5.733385412051307 7.992709474533369 0.33924832038092545 -1.2385448728761057 -0.45502278174078403
P 8.533694924377148 1.515648473806388 7.969317344635028 0.43696695268033775 0.5022688592119414 0.1664393347045779
P 1.7521685964962126 3.338646335221429 10.302539457241874 0.08841123885555742 0.393284938411355 0.18784299719133457
P 4.1617490393708305 6.121723925898008 3.7812567998851843 -0.4494979952678129 0.2861002756030363 -0.030390182256083146
P 6.9867519044752004 3.9615852831664444 10.424362714156405 -0.3471603761391505 0.05544686811439484 -0.2726027553372337
P 6.179857891735247 7.92259103770149 10.256657994391297 1.0538617614699917 -0.6424510599922032 -0.21599863368994413
P 2.5121117349579603 8.586649353071255 5.687264893640278 -0.17119253311884708 -0.16179849349845682 1.2015526119224724
P 7.012115337233783 3.897284770485723 1.712738917237385 0.21922613948830633 0.8487548349918866 -0.37638816265601627
Ni 5.4030450370188605 2.9994590934252785 0.4810105750883623 -0.27214021387851844 -0.4296740185633503 -0.4420047722145614
Ni 1.4044876381961164 1.0691941043921798 6.848237317462884 0.5975020060853388 0.3804566762984351 0.8534270436565754
Ni 6.939710478848338 0.5869411648002554 9.074082735319799 -0.9921311172294139 0.06274134489327905 0.7817313177834859
Ni 2.5114325998430393 1.5807096178158209 9.227527428698538 0.2399170921787546 0.06978462489330563 0.5748061071497197
Ni 6.3556542800162665 1.9702977402739763 2.580604775081461 0.6594792191190836 0.02508342533118906 0.5701575526341148
Ni 4.178854189131975 6.802914556433515 10.448880397318542 0.35796749405698347 0.18849528606335278 0.1715889972263174
Ni 8.02774831889586 7.160981754424469 0.19915410866687053 -0.9335562450089987 -0.7449992524697749 0.041494005478728536
Ni 7.6217432369263465 3.9006623357905967 8.235320080933803 0.6862364326082698 -0.6267174513070304 -0.16337946483233154
Ni 3.026343788841285 8.339036690171055 12.49148882257536 1.2178570055094509 -0.6391070832206348 -0.006678440461440111
Ni 0.015728769261570654 5.028959305450636 10.27079849299744 0.035660943736719235 -0.7949251907659407 -0.4163911854115152
Ni 8.56795955470863 2.2642274180117905 5.892317517158609 -0.4772587103208491 0.2777860993103861 -0.16123285080297392
Ni 3.3810696420668287 2.689402220491807 11.635775861234423 0.9196656030698355 0.2735144685182257 0.08632401730922552
Ni 1.163865539412169 3.3756546714171916 12.719018101857118 -0.6350388266885322 -0.11909915485771747 -0.6154259375536111
Ni 3.1290290182173424 8.564926084528649 8.078894437157304 0.3283231888279894 -0.9170307365501498 0.026203140757929063
Ni 5.628137579508281 7.782852196455343 3.5809490670364346 -0.3145737004523808 0.5789844068971255 -0.3367767189119813
Ni 3.0704513507716884 8.516843318392242 3.611113532300766 0.697591966830405 -0.8445716501484745 -0.5202190159324589
Ni 3.6536835323309886 4.457625571104752 9.459536283198315 -0.7004101530054906 0.23733004817786868 -0.3349581776460038
Ni 7.049893359893123 6.124657789594467 11.280101935388451 0.18782037148351524 0.07879274192918688 0.567122622462533
Ni 0.383709528903399 8.869395939250037 0.261439853839993 1.1702309189910556 1.4152372527672594 0.39003583534643793
Ni 4.60173804249099 0.27397759357492146 1.5941628316856629 -0.38552792017375537 -0.13730333657057 0.1541206652382249
Ni 5.906718803648881 5.434910056610955 0.31947692973416963 0.904964549414235 0.8414243627687443 0.660043833373302
Ni 7.994380146916074 8.843706521636292 11.503483057388271 -1.2339084025453588 -0.12067344132337283 -0.9491517854544104
Ni 0.17533638742984736 4.655317275490826 5.802951485656383 -0.15893248480457145 0.9642400472461005 1.188320686613231
Ni 7.9335749162934786 8.803619439586221 2.465898854171302 0.06521474613443608 0.5955135149004003 0.465871808640146
P 8.52966538936195 1.5862966360279045 3.604447142012702 -0.5060378393360704 0.707957112114813 -0.24911881328268065
P 1.782285975059243 3.1938275633156725 1.5588568608446358 -0.20123973021321473 0.017837028181420893 0.5528491432626543
P 4.638175905190219 1.1091634696889978 8.285059031237132 0.13838217145704554 -0.9972003042222052 -0.06801236348423126
P 8.584331238545658 1.6312734909054067 12.367227923355005 0.10623669707275252 0.4253723058642029 0.41937777884366484
P 6.311582938625326 7.79625379605645 1.4114428872863944 -0.35552546027439413 -0.2660377005252063 -0.188089823094818
P 1.9037062784722545 3.14876921222438 6.014643334058182 -0.6135878559036078 0.08227015895482606 0.16639639728178438
P 6.931832511515254 3.97354711632392 6.0975947080216075 0.4732691295454816 0.6755308732653075 -0.884705799165199
P 2.514248746786245 8.353217031370605 10.318522675793169 -0.7578213439351077 0.6729577132214926 -0.29372925290320384
