# total energy = -381169.3921524682 ev
CRYSTAL
PRIMVEC
9.26084648986012 0.00000000000000 0.00000000000000

0.00000000000000 9.26084648986012 0.00000000000000

0.00000000000000 0.00000000000000 13.55418493861670

PRIMCOORD
 96 1
Ni 4.559290778822859 1.3717351325884224 9.256749685838466 -0.2283918651479744 -0.10292228798753889 -0.06603235693972498
Ni 4.244801686266924 2.283058011414635 1.6856389396339029 -0.5246649675189545 0.25658323998052585 0.18478338442940434
Ni 8.547066926210622 0.4479258541776174 7.761763796896545 -1.4651459646722442 -0.6857677205019673 0.2653998098308913
Ni 4.033024644287798 6.408765209320025 8.408745067962913 0.15506014633335874 -0.3136928405093243 0.18518756184635848
Ni 7.187185677378246 7.292490765026692 10.844256063581 0.03307235707393659 -1.2348080315414929 -0.4190309370272074
Ni 7.121757795552878 1.1451129533741848 5.849146135451056 0.7432269910607007 -0.2660320440982515 0.5891382075016757
Ni 5.867051982515366 8.071883621986776 7.814841413583583 0.3089699811123582 -0.2800826086540467 0.2206541301840845
Ni 3.1917230272424217 6.760149515066657 10.783127066786536 -0.34042408585658146 -2.4131507810064052 1.1688342957538451
Ni 5.519788753543297 5.422383168116656 1.9970330572279076 2.133288515893281 -0.1058831703880757 -0.5060409246598639
Ni 8.067910718759164 2.685997450653386 7.462907013543898 -1.00611920397839 0.015028097977716053 -0.4523650324029629
Ni 1.8775996218777244 2.522284202966357 3.79259639483644 -0.45984642838167256 1.3424588353529523 -0.37982855579613295
Ni 3.2526686592725347 8.318055448551807 12.593329024749117 -0.9896296909637988 -0.2612024839200921 0.6865979297127466
Ni 7.477578046861343 4.860434991306557 3.2566915710722433 -0.43030213906565246 -1.3943241567636762 0.4673761610998144
Ni 9.209180420759317 5.769627875395356 4.728011366312149 -1.518511010556946 1.051541855087563 -2.1342619355501435
Ni 6.639526987002195 3.711904785505824 5.453133809532245 0.2778593757504828 -0.3023100525936793 -0.835379185015929
Ni 5.360094713317304 8.147452130931574 11.945520760073835 1.558098028820949 -0.9866078734183396 1.262725326777051
Ni 1.4631396893635653 2.678097948431583 12.282260888958405 -0.7991988784406301 0.7208342251877973 -1.6922867310219372
Ni 4.234920362854656 3.9138282866127363 8.856481074783499 0.6195394455013524 1.2638524984029587 1.4425212852941929
Ni 9.044263263003314 5.857439223656947 10.208985133147074 -0.13571568036847595 -0.08985517039093557 -0.4100819553640357
Ni 8.273723775473528 7.108616654107698 7.842911965968702 -0.686496885358508 -0.2827573272727324 -1.0649198190563658
Ni 1.5942825392615187 6.7061958222832745 6.033442540978859 0.784268739493359 -1.3868430178952824 -0.1623736492756365
Ni 4.295717821337819 4.374999929803067 6.410777591304547 -1.311812314111689 0.37074947631300015 -0.8933207945277196
Ni 4.046221350813084 6.803323582309384 6.0974988914102655 0.8769940323432379 0.39639365924366576 -0.4507300679027011
Ni 8.52149772851496 8.445753263483159 5.015767172744194 0.17066931362552543 -0.10178945993467631 -0.4544334848962174
P 1.0894923081876084 0.7874877630469287 8.878262586185235 -0.36382960926471536 1.0848612951752994 -1.0841192748029522
Ni 4.359562098380153 7.454981580951379 3.0786295675323867 -0.05158738515898858 0.062058459893641504 0.05046869817351308
P 1.1713489320311232 5.585670416856202 11.805545840692957 1.028629469265764 -1.9542098951581375 0.9499704247009638
Ni 3.16774669517648 2.360849123563693 7.789699140920074 -2.012865500017817 -0.9185605429311148 -1.7947395355722253
P 8.850906045079483 3.404157589336141 5.1286457808111505 -1.1835559182347357 -0.9237744830318865 -0.3061865048299501
P 2.4523740713457336 5.091363464229046 7.598611756518593 0.6990515820950671 0.19480734432430966 -0.7994120228927007
P 4.5077449061774235 6.824743920690428 0.5782639364986953 -1.0192932794665024 0.6869139182912686 0.13560126627779873
Ni 6.465302678328358 5.490431869553713 7.196716940785843 -1.175320417698821 -0.6441230483779874 0.5674710069408871
Ni 7.531559522184779 5.97630219085137 13.273179818952467 0.7405957240854407 -1.4208281165914756 -0.823752399410278
Ni 4.437112428515416 8.314425196651518 9.92974189698734 1.1123343037845876 1.18522327863483 -1.7522654255684145
Ni 4.869677316297601 3.4675017806575164 13.230321546581678 2.7988663917109347 -0.5877107310265297 2.75286601372142
Ni 4.062363006584015 2.8457840993462247 11.329658712121095 0.5840191411075555 0.43815428812021956 -1.342833959304184
Ni 6.961285844205393 7.2968989280484715 3.0164976210420007 -1.3988721811456746 -0.526671713536338 2.6318732413854153
Ni 8.596417978191852 8.64601907303356 2.182047178373752 1.8282394671018836 1.101110152933994 -0.5482962337846493
Ni 1.3564362138657742 5.8988352083362665 0.5012090616610482 -0.3520503572416001 0.41656679175743094 -0.6017165583873185
Ni 8.767363947139406 6.315101005953886 2.1094106534892374 1.050793664067629 -0.8512981702390305 -1.6044727594307462
Ni 6.546325825970276 7.555795157957883 0.8655159528711075 -0.4941883961966521 0.5930401136592431 -0.06275368618845321
Ni 5.481365500649674 0.97771388870676 12.689889094873472 -0.9712802419223335 1.008267103559328 -0.4622709786627651
Ni 1.263383226380806 6.763687158500102 8.39759037813154 1.031223455245185 -0.8027359450596111 0.21130817019281026
Ni 8.785385554787272 1.5693060357536606 3.9744933149883113 -0.2738196584634704 -0.4062399559101262 0.1466760360347216
Ni 1.092474300819989 8.68766510057336 6.763308389870709 -2.2952883267692665 1.7907664098570901 -0.13458773741161983
Ni 4.974723100238882 9.168321565187693 1.3036132704625587 -0.9093341392368404 0.541003556777978 -0.12957948556375104
Ni 1.447674075400598 4.262582511900995 5.599409808997195 3.0990894798685984 -1.0506872203967517 0.31580962974201093
Ni 0.9897715110898639 7.62652950493342 11.777909622017336 -1.4134320812377206 0.8126285215829746 1.4931673895858348
Ni 2.821918897440496 1.2616884914375588 13.259856238827604 1.1318865148849022 0.05267419046526412 0.8602967741932152
Ni 2.9891420060209173 8.43714993691334 7.673404206511238 2.245028659282766 0.3707278790464454 1.2640892970041133
Ni 1.6034785600191395 1.2882578605751358 1.8427047515708612 0.20951971083381982 -0.7933287928130982 -0.36644930627574956
Ni 2.8563785079531914 8.620394310257794 5.252138245263111 -0.048534714375593827 0.4430697231439659 -1.4959765768998559
Ni 5.5295867293354055 2.7283843459279384 7.318582274475353 0.9807938378397238 -1.4818429657119512 -0.1250440595872427
Ni 3.2079109872467737 1.9179861742684436 5.540272820324548 0.7775717870891576 0.28943859594764987 -0.36851338789362986
Ni 0.05052162300213932 0.9341323442099188 11.038256910349398 1.0265718154057868 -0.7251642200217189 0.9542986197626727
Ni 8.809519321246848 3.664655945721956 13.348852975464801 -0.36178455381022856 1.0091772740784233 -1.9144603831743414
P 8.306340477496025 4.295097344609964 8.81261985271679 -3.091349173801547 3.3642524910983354 -0.11163164283607871
Ni 0.9557193778312822 1.9872480466211584 6.617125924957271 -0.04765771108727922 -1.036125777642809 -0.7247754692237324
P 3.6964391715428566 0.7706145003879307 11.107749377784556 -0.3194379705232176 -1.2845825318614588 1.6800899318454292
Ni 2.225687066204705 4.727356624451562 10.104360717729934 -0.0941255156315153 -0.8290912951246883 -0.192708552813752
P 0.5207735263665363 8.079810906748632 0.336867928568816 -0.061194569231449454 -0.14848069334362815 0.5744641504292687
P 1.2215982861407408 0.1713052897989098 3.71238264519474 0.19342229105132494 -0.578291751705475 0.43461619305997407
P 6.902405380985904 3.838667254922051 0.9055867103898882 -0.30209999346540223 0.5259541186440232 0.283542285067873
Ni 1.7405576126418008 3.4786796226056014 0.8522970203137783 0.048294316230013595 -0.32215356968216774 0.9197334801932935
Ni 7.155893276431619 0.3298426502740213 10.43609906332025 -1.1757806451646913 -0.2793593573347769 -0.5575573473716011
Ni 0.07481838036336172 0.9650820938292224 0.16815845409554675 0.027847618339887525 0.7159642986900057 -0.9306046185798424
Ni 5.8316662873342295 8.426175833592312 4.9057742445041 0.6632152891227482 -1.8476754643393083 -0.38899222457327204
Ni 9.169951474204149 2.9127214991811523 9.896561209401762 -0.132872554492726 -2.1461648576353167 3.579268192049719
Ni 3.169246952339355 4.664429171230984 12.600282068439775 -3.247364742069639 0.7317449585630301 -0.1366613321111969
Ni 8.79234971149395 2.8345229097779803 1.8301127783340667 0.20044371667448058 -0.05526072024551773 2.1154286048937245
Ni 0.9886416877943657 3.6999860758229866 8.196202153962986 2.6560341549023354 0.0418498461562505 -1.123423985939846
Ni 2.9718427444144364 5.5650094679032795 4.122112137222501 -1.196082847057153 -0.3954230678002803 -0.4515240245589062
Ni 1.9628734981477869 8.493705927615041 9.974362508482173 2.7676763392613757 1.2773335636085292 -0.2915540996287559
Ni 5.230229860261799 5.5550447968708525 4.371834572406335 1.755971413665092 -0.4809865527943974 0.30769959904036687
Ni 2.615735406858755 8.01853188423788 1.442097193527245 0.06417062114063787 0.40733730273936297 -0.7116538442401099
Ni 9.103810507184082 8.235485739513592 9.591429276335756 -1.8199777413137237 0.39719532920935463 1.0426021293957721
Ni 6.722346738900888 0.49242700075022067 2.9421663612142392 0.05854633297532497 -2.5076280235503843 -0.20105486789591825
Ni 6.379750976657764 2.603631480242229 2.8915011950884915 0.4602770881611879 3.4267318405794787 -0.8380279354926858
Ni 5.11026485231193 5.678797491114646 12.228531308664785 1.25073858672882 1.1119329545811107 0.32052220472633186
Ni 7.390785391735037 2.184318864065438 11.8191546548957 0.45752832177145725 0.5936672057202808 1.064778151272179
Ni 6.496382079801244 2.651463753367215 9.674435171252806 0.8370151779574552 1.4678690200303621 0.27598632709748594
Ni 4.789191297763379 0.3828498845262567 6.450545519136749 -0.8339460521138283 0.8184541271258162 1.460602568275936
Ni 5.409158679051316 1.4333660672731818 4.46060071396109 -2.371418691374942 0.8937406556739576 0.714799331847627
Ni 6.982780269359912 1.578789142758498 0.7874164545274587 0.02356801712792715 -0.20562346110320714 -0.2941902517000224
Ni 2.325750514629773 2.170455376578874 9.999776123953534 -1.4339962785423175 -0.18402336633492822 -0.19779213798424644
Ni 7.015341406302303 4.815890318754537 11.058439999613404 -0.15401242179513475 -0.6908384501566553 -0.6032738755721094
Ni 7.761932344306203 8.657150610748223 12.767839493585502 0.40412445222902016 0.3710245843512578 -0.4690216671230374
Ni 3.413557348720819 0.5991397370946961 3.235776874920168 0.37964729302326233 -0.6047340050574036 0.03531050237583596
P 7.295241236491962 6.778569339121952 5.800486868717152 0.1370238576569382 0.6137434076448656 -0.9039831593375721
Ni 3.4409416723666237 4.92862260544388 1.5817461311048306 -1.5908261151815892 0.464580086411916 -0.24545370572626762
P 5.058756023053232 5.508286781961258 10.043393785752444 0.5682842468708019 0.22304037102807392 1.2244819670251363
Ni 1.2742739820816742 7.18391659849865 3.2545763936895242 0.8610218252846977 0.9906779297226552 0.9344103654791778
P 1.1577354874050378 4.730357138777311 2.8079794710111194 0.3939557392261344 0.31093147571410323 -0.6966226609386003
P 4.302867194978185 3.4175117302550624 4.085624401285919 0.07937972478090845 0.11448222491099638 0.03615690953653128
P 6.40067122931785 0.9259151949468403 8.381595969822891 1.4201174636776963 -1.0101470941908604 -1.53678615471705
Ni 8.842737978303832 4.855110004463021 6.7426511452564615 -1.6201279494695 1.5413570619171841 1.4342017096849042
