# total energy = -340872.6190244927 ev
CRYSTAL
PRIMVEC
9.20204820194425 0.00000000000000 0.00000000000000
0.00000000000000 9.20204820194425 0.00000000000000
0.00000000000000 0.00000000000000 13.46812770083498
PRIMCOORD
 96 1
Ni 0.8278595072513183 1.4130021099049037 1.4052107356793497 -3.348658236204504 -1.4400954494615197 -2.1914802937426643
Ni 7.589996602367411 0.35372673347146916 10.286417579181764 0.31144723900825716 -1.015931047862489 -0.14129908799352442
Ni 0.1547618873275198 6.642112019603907 0.5227370722585941 -0.052720213211851136 -0.329406137479523 -0.2655648746538459
Ni 6.3521738843744835 4.797782303611382 3.7749010278772097 -0.7695422319164619 0.9470308824566659 -1.875391699307654
Ni 8.725069249966415 8.033323679330339 11.986350594958692 -1.097946667604348 -0.17272002550696705 -1.5973335772828037
Ni 3.839260153108725 3.251893415401028 4.045986926923933 -0.2704975360687728 -1.9670335292853673 1.4232295269441166
Ni 5.690104919239071 0.7012420843962878 8.122358096856438 0.20417181625834516 -0.10265540747939741 -0.2710732060665848
Ni 1.3744363258263677 2.5812757474717816 3.0326721005164248 1.381443701256582 0.8772210607523795 2.361667268415133
Ni 5.004782378258643 7.691430779866266 2.3465784278953903 0.21040699853477954 -0.2782015895812499 0.26541600778080743
Ni 8.402307408746026 0.8929851630993316 7.7423549147005835 -0.38453341747097003 -0.6946261993338618 0.031350746397139556
Ni 6.512786433958537 2.5196312264643574 4.474193198256261 -1.9492183554808171 -0.5726399527363364 -0.6840101143809123
Ni 8.279469267093823 8.718130905610602 1.2105450864625042 -0.884056081396342 1.1922197645573211 1.948379918739922
Ni 3.2294312157026974 8.760064639336655 10.166133005909852 0.7305499098136644 -1.0907154399632313 -2.3340086261576
Ni 4.783417906344239 7.3503016504042265 8.601056006756869 -2.2565518294310167 1.513416112532542 -1.8158423789891116
Ni 1.2864279366764944 4.434190974451011 0.12442549496967924 0.4648932467769606 -1.2661268962594323 0.04416923831804651
Ni 8.402252196456722 3.5044712348683773 3.6101852849930802 0.2517845330403019 2.322888347874722 -1.0313065018772947
Ni 7.402550880181828 0.4629016739306836 5.384207671786453 -1.5921708021349417 -0.155434498953642 0.659382031419587
Ni 8.9236586525431 3.0807537226564294 10.153621901153667 -2.019859157726831 0.6042370108163271 0.015638220757889194
Ni 0.2710030806127681 5.195586848043526 2.299386643817995 0.5537706266356591 -0.7701855219274155 -0.8068576805374686
Ni 5.826902568036855 4.0690444991419215 13.310011859131864 1.4508079507830174 1.2996047163019036 0.19467878916624537
Ni 3.8981808678438408 2.3592119198928665 9.05627857145025 -1.066805723225169 -0.7090449458623531 -0.6153796576967079
Ni 4.8574575863003115 3.6306589220716616 10.709733882091442 -0.19354853221654408 1.0345633182516958 1.0109137971535558
Ni 1.1574612309115975 4.574338168799878 8.668935835636308 -0.1331522905166739 0.2808292570120841 1.6618728946167702
Ni 1.9277922933230722 4.6513133021372575 11.033440773663743 -1.068048851603651 2.0761652885177275 -1.8362265990724183
P 8.548159872989595 1.5605845592133174 3.085507500765466 -0.5553654819266048 -2.1762987009062194 -0.17957381520400686
P 0.6405168480057682 -0.0301348675018826 6.142692017323029 -0.03325310562617499 0.5858855048923329 0.380952384987931
P 8.971067604958423 7.8901582131662105 9.256819728453815 -0.06898706869267474 0.5574383052952335 -0.15927804106944826
P 7.025561368817126 9.037662827906733 12.995557627042016 -0.6526855932360178 -0.02491707495665386 -0.5980097989596928
P 1.7181604328856752 2.59320160196135 10.110752319123918 1.6606554772699014 -0.0187741952837096 -1.517159124514742
P 7.182115815137368 4.850215574353329 1.5229224162697164 0.12240739329534403 -0.008050123997986137 0.86737270720339
P 1.0693884274242031 7.989337888851837 1.9856326875974808 0.45636824002508497 0.758183612370533 0.08121703509996335
P 6.645452363106773 5.8570484779965994 7.139064032552918 -1.9710989576039923 -0.2957673663791551 -1.618567804071232
Ni 4.900513969908871 4.417940157299329 5.743442751320774 0.11928067474090426 1.2513528232740514 -0.0897412705208906
Ni -0.0998413029524478 8.636849213707546 4.042849028481848 1.2421215344837704 0.8385799513414139 -1.3925182139031889
Ni 2.508101060048131 6.95421788898871 12.357384540717183 1.560981778126647 1.4874507988170318 -0.658989938187491
Ni 2.3195971023175628 0.23391790609238916 3.397914277126973 -0.6816490703479035 -0.5065451179897921 -1.8901583160938673
Ni 8.92500215158282 2.136991657494258 5.438429820701835 1.8468321425024066 0.2437099835622835 0.5552307561209534
Ni 6.990335928241455 1.9906882928880434 1.2924295125237912 1.1881517651355344 0.9211738121842458 0.3870268733167851
Ni 2.850279223006939 2.014613618252919 0.9467444489893855 2.6080841093856177 0.9272434154170934 0.10638993482116516
Ni 7.114453154595856 7.805830643303241 8.049724489867963 0.22005429181655653 1.1683131331430523 0.28755037778600157
Ni 1.0464017109774881 0.5990027276784221 9.713254202897408 -0.334410789782966 -1.2086162036374732 -1.4814961238954938
Ni 4.767222301481862 3.428250669484814 2.093580074824513 1.3137277859668473 -0.7298436277752591 -1.95696586063672
Ni 4.800828181571295 8.08285830488385 12.396482203182677 0.5987435918019237 1.0435557515582932 -0.6094026141776665
Ni 3.8725899717516405 5.383483470591755 3.0524565041835334 1.8571162980372338 1.280168719064479 0.7145316800085372
Ni 4.299822666382582 2.189829818357764 6.368094347995164 0.44882308068797544 0.28737554277103416 1.3115696019732637
Ni 1.7162556089047025 6.83016507697183 9.727099604645097 0.11816892973396423 -0.5228618528719446 0.5348869023572788
Ni 2.963528830416756 3.983272207708842 7.422850598549103 1.9683368214778232 -0.6018816232102732 -1.1508306600875728
Ni 0.8680936226716437 6.9624905303360265 5.905356470522749 -0.679032972881295 -0.9495685612768551 -0.49633680999822266
Ni 2.66382732202882 2.889489150460683 11.987563424913727 0.6192044307594368 -3.3910022483883537 1.302860761345356
Ni 3.2265693787071292 8.613650850151833 0.9083332593208994 -1.7699348178237198 -0.6985301623739584 0.1359409090054046
Ni 0.457711718736149 1.3382814783807537 11.588017852958878 -0.7729049777411076 0.4072360012748083 3.4859379186259902
Ni 6.907949990552327 6.38754655772163 11.748409553385716 -1.7923044437681712 -0.04485880818590338 -1.7975474373346656
Ni 1.9731215828412945 6.705955830135256 3.4656588358976186 -1.1493946989719948 0.7498288126479344 0.3717871735488952
Ni 1.7516742924929358 4.351989077726228 4.49630756053198 -1.697385228590767 0.10532472678144442 0.8656768075582059
Ni 6.9410313538933766 1.9448989009589581 12.412468921550524 -0.35465205653050536 0.1261858865011698 -1.465798767764895
Ni 7.539790227294041 4.255542410361127 5.674068509810852 0.19647547605535196 1.597365973182636 1.4281979266929856
P 8.927799574240867 5.7057944114494985 4.26565270073743 -0.2294622153940177 0.1782630668123833 1.757695081224418
P 6.565192098555832 2.251253490207974 6.541308182407934 0.3439159010599238 -0.16460330993710362 1.9633905332161412
P 0.7192873009503344 6.171602092207193 11.975818850774038 -2.1265416840877505 -1.2958516770173747 -0.7884089869139776
P 3.121233532764156 5.810725367270913 5.094414008714041 1.5106084678804177 0.8813487097675079 0.8882924880751928
P 4.19854492370342 0.7346289557381501 2.6138399557030207 0.5898612017106293 0.630382044642811 0.6699808899813557
P 6.238850660578928 7.756480058714076 4.191968219842544 -0.07362122503057643 1.0732820749781322 -0.5686593708220335
P 3.376019843803647 5.388664223738072 8.994500620743676 0.1874028243301224 0.49989470255281004 0.6702901936916584
P 2.517174279590349 4.17708574726077 2.0644887195904675 -0.7652428332101594 -1.1917011730496894 -1.124061876634161
Ni 1.9053208915765236 8.476890009546917 8.088015132704802 0.30317985679314235 0.5727996182426522 -2.0908149201101027
Ni 3.652246927189353 4.858129335820172 12.532039415880776 1.517409292852335 0.6023768176791368 1.9610636848551775
Ni 5.623942192556973 3.943464147120976 7.976201965021699 -0.05219313706378754 -0.9969686478273732 -0.3637740734364316
Ni 8.339254974361362 3.3476867373427037 7.7436211165352775 -0.7052461409415531 -0.5723928697225368 0.592013986387574
Ni 8.54830710576107 5.855741787149749 7.90696299362057 1.1417286977863048 0.45371486156263796 -1.2309842869200283
Ni 1.4087323595320953 1.9508802323001773 7.725102914702863 0.5488510778468547 0.61771524780842 -0.16529159425337986
Ni 8.389120873650691 4.532257202302349 12.508253961648803 -0.8374895464907124 0.3480947150279618 -0.2502110179055949
Ni 0.9817849283958893 8.883638944846236 13.408032996946936 2.706442175041242 0.26451432190214447 -0.89101425788173
Ni 8.59922203854717 5.90664751788763 10.191345697820323 0.7386635400597343 -0.7227155013709102 0.9228085195741913
Ni 6.525899352668133 0.5206003566625463 3.121009922992476 -0.3423156464523395 -1.030750886484141 -0.36740267132795434
Ni 6.99945515802476 6.869310590088054 0.40496281774035037 -1.3628214581697047 -0.5630361110979852 1.767462959244459
Ni 5.145969404056061 0.46876797966918676 0.7674517415242943 2.310464777399389 1.9346067762152295 -1.2639013493630233
Ni 7.724134859230408 6.876147711913478 2.8538155701368324 -0.6786699331149215 -0.21513500013806822 -0.30587308735458935
Ni 4.657736331792904 0.45447903919742566 4.937644234465514 0.5010974646116596 -0.928376243469956 -1.3234172453404691
Ni 2.7196745526593697 8.255829205223684 5.346159963022549 0.39835438251446237 0.0678030756869026 1.2534439014751253
Ni 4.835446286964626 1.0719189906839497 10.987621935180362 0.31806680120730385 0.07632216890150727 0.7147162852155176
Ni 6.2272376757287455 5.812436948239323 9.274422326488612 1.42815910303525 -1.183654391485813 1.562640653886309
Ni 2.801121881430337 6.509915394914752 7.089218377769664 0.9448724413527663 -0.7135338348716421 1.3232334114644373
Ni 4.9516589539004014 7.006163451175142 5.6600887581591905 0.3009615089855849 -0.38856619277944693 1.1402526274614107
Ni 6.534429651365532 2.294107428755753 9.67624356496759 0.3978185646156504 1.0303006863206 -0.3017433814569319
Ni 2.3166524468880394 1.488293268418524 5.279748781038585 -0.9281214471466726 0.825637789358449 0.7249312780753063
Ni 2.577916999872482 6.247546596144239 1.1011336533641063 0.1724945397597223 -0.20303358888884385 1.1065799177993134
Ni 4.400124991950714 6.332122621309074 10.805815228142315 -0.4404556825598866 -0.6383064416962104 -0.5235861326324789
Ni 7.818695106710971 7.460652612625607 5.609206032541852 -0.8518895239661264 -2.3114700787354514 0.9793162248529327
P 6.947730444995542 4.219378360867296 10.820360905759339 0.1992376121815214 0.35898873623264627 -0.34579460613987545
P 4.616989662286878 2.4270586213987233 12.869280679971025 -0.347535242980066 -0.36951174725115715 0.331095609366804
P 2.7876224766956166 0.0055497552798294235 12.027967778226072 -1.1311912885900908 0.9739333632744647 2.72108229355192
P 4.710132794341982 6.5888781706670585 0.3903720500870631 -0.6324684948581946 -1.3133349214038026 0.3042949442341921
P 5.7384892887654235 8.208282222085101 10.31965629754733 0.3526337405488959 0.08906841282358209 -0.2121044408418605
P 3.8321377677885664 9.261033346332498 7.1706334993718714 -0.27955347562345406 -0.3172167945021827 -0.3043021433230437
P 8.828040169517553 2.5680340000871444 13.302429371400843 1.2792379797200935 -0.36931814318311235 0.6189663466067017
P 0.9075363619452846 3.965134970672623 6.679827534427168 -0.5110826008488295 -0.7317858391032946 -1.457884912234457
