# total energy = -381175.60812616494 ev
CRYSTAL
PRIMVEC
9.22008563900060 0.00000000000000 0.00000000000000
0.00000000000000 9.22008563900060 0.00000000000000
0.00000000000000 0.00000000000000 13.49452731322330
PRIMCOORD
 96 1
Ni 0.08073199284944291 7.831089053193453 1.5086743334544808 0.31060983070862636 0.5951741292831105 0.672792391288222
Ni 5.641641390193606 8.025909465124418 13.252962323429458 0.44442520873059593 1.927859430189067 -0.8939440299340152
Ni 6.81994068898876 0.2587469544809968 6.900076142290076 -0.4318090626284821 -0.29173510529131047 -0.9176588570524519
Ni 6.1030790218031195 5.8861304040683535 0.4430048361749481 1.7518931298306604 -0.8695504315809991 0.4992514125418563
Ni 4.408879044863845 4.2811255366899 7.100145549039418 -0.5154971849767573 0.8696674167748378 0.6383455224642619
Ni 4.376405902846767 8.074923440979838 9.740673921324026 0.2177369565372895 -0.6600996263119018 0.5885859345426314
Ni 6.53339886400104 4.121074068128157 12.183277478805108 -0.8059377398263604 0.20358869006136548 -0.5277456633268072
Ni 7.7183458446230855 6.199650199965208 10.476692160675732 0.44498750899196915 0.14639989955519947 0.20881265746446617
Ni 0.24009748703126826 3.920177619686897 6.115894940997821 0.3018313131850479 0.18229635634149247 -0.7839861752559336
Ni 3.2728169588966955 3.2154956857790986 3.498402030954971 -0.3124368566150361 0.13958390507463056 0.1015691163937541
Ni 1.641230584296426 2.5232055471214294 7.318514059979929 -0.06178875117202262 -1.4289093509377133 1.3074026150797675
Ni 8.391854668604779 3.1982172450806305 8.000176205791748 0.3825991765627346 -0.7846430921136422 1.00455982991107
Ni 7.754885044456612 4.797911343066171 4.75779290594388 -1.5417833508213252 0.741048238241827 1.0560852514838717
Ni 4.704244491915833 4.340899352617417 1.6664659589985107 0.4967060204121833 0.15995321275960192 0.4981728347656968
Ni 8.807210311627877 1.129801647741824 1.2325364532288468 0.4147950445689888 1.0407475926855367 1.1064043114533977
Ni 1.8337090944464896 4.826235446495038 7.8751629071031735 1.0216460959693954 -0.03742034962998717 -0.17855591546245375
Ni 8.149633795824922 7.761726348084288 8.658790903250333 1.1908259695335879 0.9904822687720813 0.1396373840203853
Ni 1.7994380357078525 4.412733040708007 12.17070128183995 -0.5784874126560489 -0.7227574103524391 0.5037505859637905
Ni 7.417097982861589 3.371647058067922 1.0442023716241202 0.30570210899436384 0.018525055387381 -0.9141989235283094
Ni 3.6488304960177858 7.948894088841439 4.587883321696544 0.6309183767622553 -0.35570003817904544 -0.3368152854594006
Ni 8.517349255769586 5.516865969717422 1.397088245645938 -0.40302890517199624 2.1919780593146894 -0.5102025122367213
Ni 4.03505066806588 1.9618406261362495 1.4657622103494596 -0.1645824840014972 -0.7745797943403693 -0.1544816481220694
Ni 4.842361376474558 8.666023138513875 2.2794144937380763 -0.25948858655277895 -0.06541040708500993 -0.1143528984219837
Ni 5.681389179868683 6.370332427398528 11.530115540060011 -0.38109302433085335 0.355379164504517 -0.815810518855382
P 0.4138066686168325 3.8555263783967915 1.347717452471932 1.5931992433994562 -2.6209080006231638 -0.4391418488444695
Ni -0.07907237741415783 2.38605677156662 12.475096880877038 0.9447462001875471 1.0171520647537837 1.0916181542831587
P 5.1157369190090165 0.7437824735631149 8.76466883597007 -0.11563022247251054 -1.1673538545535767 0.09091035112832731
Ni 4.706125389409155 4.410455679527366 9.970741799074721 0.08677447458308281 0.43118402744997353 0.02996209357972904
P 0.18753931021293996 0.9399693022024653 3.416072197244778 -0.3652414020105775 -0.09709822510659406 -0.7165399686878176
P 2.5895532841898263 3.816018310951255 5.859985006902586 -0.0870665519022049 0.44585139965416115 -1.1582002130787667
P 1.4541089439680326 8.251893766895737 10.512561060275118 0.18271801725994338 1.075447458060567 0.6467802834951765
Ni 8.391200042516417 8.69218052179112 4.7378074480687475 1.2312797066732601 -0.5972132712003263 1.5279677850944717
Ni 0.7866199139735484 6.523874515419653 11.539103279650654 0.17439535632686093 1.1272603289668006 -0.11245568139927085
Ni 1.549407750296403 7.0805371926715255 8.690732046319544 -0.3038079772954445 0.22844251588025175 0.310513157229762
Ni 0.8968082367821513 0.6239628491784076 8.984993849107067 -2.486866879743633 0.3218918313803489 -1.000325480114748
Ni 0.3911492298908905 6.316367265494508 5.440048825278101 0.7387851532392631 0.7500540412848631 0.573914705683702
Ni 6.768686232295706 8.636555744451814 10.660703866080116 -0.5587292561925151 -0.5865825309593575 -0.12079556872353388
Ni 2.6387055613315193 6.900745520515641 6.5088153493615915 -0.4107098187560217 0.6065350628218845 0.8662121112363855
Ni 7.967739944117676 7.276095211462617 12.945759208281011 0.3313961713263583 -0.9287220568451489 -0.6569045164133719
Ni 6.871766790998413 1.7439607797405727 12.209916150558584 -0.8357468527679929 -0.21530623560860987 0.19098128571000011
Ni 2.300817078793228 1.9363839693761267 13.184908870497017 0.18779646022411528 -0.3904353847777018 0.05998666496627733
Ni 7.589753308645747 7.215344066445432 6.323333040279829 -1.022497131115781 -0.7772727677915001 0.07396909528829843
Ni 2.0861642624106054 1.1400267228403307 10.833218124552275 0.6012020806447453 0.22565698271531462 0.9361322332662909
Ni 8.158549618746703 3.0138339702204577 3.5238264174149627 1.5912171799724208 -1.4070778568849185 -0.8585895616941213
Ni 2.5547474604775977 4.560152991790081 0.9434323664107602 -1.5101425839875928 -0.9617679315565244 0.8582265219277477
Ni 1.396197585362335 8.333270243739216 4.020397185780888 -0.3124132024659523 -0.06220475566351867 -0.1510044882067464
Ni 2.8825307290321533 0.01355721408912882 8.42623913439816 1.6229597624913406 0.2125088753691308 -0.6381251789233398
Ni 3.407955755757659 7.458016723427118 11.995326030759074 -0.5979511778076153 0.7983678978989025 -0.30136748617475195
Ni 6.180481641687666 7.962005050780191 4.344144822801975 -0.7672529216616528 0.03612271386448618 0.4056480879623982
Ni 4.802797988514511 0.49778874169370874 11.567252201450241 -0.8870622152125175 0.46206169086543647 0.005919965028860772
Ni 1.3307257564403385 2.135436400667069 4.720858164431611 0.38265856904576034 0.1393846445796309 0.19866708439003203
Ni 5.958203814388484 2.444945459261986 7.7841431425721135 -0.06132158172761697 0.6462984587627514 -0.5427706759807298
Ni 5.0922533605997335 3.995948284393413 4.703166663891471 1.0723181684029661 0.2191199529277452 0.530024432058655
Ni 7.16340732340676 0.6352021337095883 3.372107140346926 -0.8724719761031683 1.2892364856937022 -1.60568323479908
Ni 2.8920366374420357 5.644204574032546 10.542411087895871 -0.7356805461720104 0.7852190192217702 -0.06579093035288025
Ni 3.7767868460782656 1.8975305280189523 6.352292407616979 1.9829627989211138 1.1621684536978953 -0.96057545391032
P 6.581251109051759 4.506796355545665 6.664231880816013 0.20815188395201573 0.6804316530010346 0.5344539285849182
Ni 4.62878731012487 8.688363406289962 6.736643668283227 -0.31870803433572853 0.4540300788102116 0.2848692314094126
P 7.831974181425604 0.0750966764380749 13.280112709942147 -0.4561746359570402 -0.0156742162021472 -1.229927306410424
Ni 6.1915457445895665 0.9775595918116724 1.0467517253344332 0.5511676417951733 0.2776961106997411 -0.39274500674748486
P 1.6534287577457714 3.066600520976772 9.721187270088052 0.11692811534832766 -0.527899158185536 -0.3799393703423844
P 3.6846413090769374 -0.052422641557780016 13.438201222247377 0.17857339896395052 0.8596899938471517 -0.3084467616190365
P 4.926881902559326 3.098990682222086 13.374533764106964 0.8845412485628766 -1.3407025147834781 -0.7833634540702702
Ni 9.065492573786996 1.0468393161490732 6.5574365495639935 0.8312294245136136 -0.41142175722138175 0.5600088942358872
Ni 6.698447619040141 4.660366103824044 8.997611536458109 0.3114906906516829 0.17322987526385006 -1.128081025095883
Ni 7.3411152561827855 2.586805698635854 5.932842124511602 -0.3869129734467401 -0.4527075033440462 -1.7883693703798231
Ni 3.1340454482496076 5.609168248176528 4.595466842227221 -1.05850543088959 -1.1985117682136197 -0.36071240379197234
Ni 8.669093427069152 5.5371132780279 7.805166782102875 -0.5915514449288587 0.7565800153288389 -0.5305921316366667
Ni 3.6642188191371794 2.5090803757500026 8.746248948655557 -0.27915366908187406 -0.22504428883198016 1.139426017795057
Ni 8.005551515784921 3.262850046199233 10.476895002562268 1.0972946358426459 -0.4459154201228772 0.398259765918127
Ni 2.4558067202773515 8.396031367450247 1.5090117885929888 -0.2182295799029919 2.506257625565419 1.9575430732964285
Ni 1.0998363690491768 8.84994540908647 12.871647237001206 -0.1047634549613357 0.22223767262112049 -0.33985330095477595
Ni 8.77159312036951 0.5590986239074404 11.121825248748351 0.38816227247280893 -0.6758843999499844 -0.34061203349767144
Ni 7.706055470316225 0.9914819212965641 8.884945776608056 -0.12815535152271476 0.14499299190534384 0.7325018913337127
Ni 0.43337261259026855 4.898539358958958 9.855768251761047 0.31159224922655365 -0.8597758686927386 0.4757983237252386
Ni 8.673878651574224 4.999978742397882 12.603200752309542 -0.08733497507224314 -1.4094805527891403 -0.2086013127846085
Ni 3.586631797537602 2.92105224730227 11.40925865602825 0.6820509337720124 -0.07960469630752096 -0.011783622898489384
Ni 4.797459558864344 6.306953557942141 3.0915426969519566 0.7640344147243551 0.06242612764570539 -0.06132312438951375
Ni 2.3528460226894152 0.303980695178267 6.154327946444723 -2.1395082715507474 -2.2113600633857273 -0.7487052405664525
Ni 5.994208249248418 7.0280656846592615 8.384150364950756 -0.5790545980134285 -0.6321928725993048 -0.5119770876386408
Ni 1.810852501868313 6.688886390115749 0.29800792362839096 -1.8550115929894053 -1.9247054579411174 -1.2401410137186322
Ni 5.981862554427048 2.6870188106698185 2.751628561574042 -1.167320944433112 -0.34294350984432553 1.4874705963113737
Ni 8.283795263596216 6.573118993418862 3.462843848245413 -0.1925519726312297 0.9029544609627417 -0.1795894989332907
Ni 6.97257920860623 7.860971351114336 1.7698203542480397 0.18361687492512893 -0.4105542670147639 0.2128505749792657
Ni 3.2932671090937085 0.6033522694893171 3.5003861934087115 -0.3249159629186533 2.467590805122841 0.45433346898324334
Ni 4.897976933728111 6.524999365881347 5.909483037259965 1.9040150194713017 -1.3463437722296554 0.7203308031888175
Ni 5.925159027054807 2.388472434033535 10.093784765438182 -0.7542595947257783 -0.7301719576489554 0.7997637498051645
Ni 0.896375814760402 4.611656390798427 3.900377485535371 0.6149222584443151 0.01827103039504595 -1.5265531641351322
P 3.7345219729930057 5.914832531013033 8.589023436376673 0.5589981935831858 0.8403987497177076 -0.8038777719735382
Ni 1.7009951801381924 2.0167001363581734 2.022829649365826 -0.7951730451106885 0.5562792519901258 0.6968232069851805
P 2.145126710791984 6.669856133124479 2.840382029027363 0.18259357586693717 -0.9690752638512149 -0.21518539376002938
Ni 4.209734412715386 4.956321636364133 12.726459468679591 -0.9363906291340003 0.5326276740094569 -1.185923647135964
P 6.723526252284449 5.097748531707677 2.538496137331856 -0.6817053775071357 -0.3164524055323324 0.9239981690069184
P 0.4681055976250599 8.093077789824706 6.862439752252111 0.08209043884385217 0.021245025421705345 0.08474047487218955
P 5.59794740381685 1.2754329021880904 4.798815833478403 -0.18063388103740505 0.19897124589401216 0.38298792736072107
Ni 4.0000604426386195 6.803169353006629 0.7590426374905613 0.13200300740357912 -0.8893870066909522 1.1833633426079555
