# total energy = -340869.71030007757 ev
CRYSTAL
PRIMVEC
9.21674488503244 0.00000000000000 0.00000000000000

0.00000000000000 9.21674488503244 0.00000000000000

0.00000000000000 0.00000000000000 13.48963778209375

PRIMCOORD
 96 1
Ni 1.6208660022699082 8.950648409359516 1.3019832134779945 -1.2558645951014757 -1.704573261698774 1.2036300632767916
Ni 5.194575946977015 2.172488193863576 4.39620582177118 0.3108263175948066 -0.017333091961808857 1.6146401868820517
Ni 1.9175069418930026 1.4135629724733372 2.986403281280637 -1.6779397182716458 -0.1407396159456286 1.3638671258253994
Ni 2.3890724859314054 5.249102210727527 3.057399868445984 -0.22603750598318487 0.9874311406505832 -0.6266930258269982
Ni 4.885649086194449 3.509552182373213 11.807142590752205 0.22777968548527222 0.9538584469014605 -1.560321775945145
Ni 4.683350748963214 7.721641539884868 1.4622366031133733 -0.3556992668480971 0.9430672698232274 0.011876439722611805
Ni 4.990443477479662 8.85257302522003 8.272966030613231 1.3677597760115863 1.1555550621464357 0.3981641208805272
Ni 2.0163104488919017 0.2217143323659254 9.800801894987236 1.2570305903851189 -1.1352973403386641 0.4264226015055882
Ni 8.019711074991623 7.709152850334168 13.53914502658027 -0.6809816119672336 -0.21182084816317068 1.9656446193576405
Ni 4.960848509105272 8.97066717962086 5.865200142359515 -0.7588682971423835 -0.1283983207714563 -1.2352060383108598
Ni 4.042427514523246 3.6636653764523732 9.232389558925295 0.882698796037499 -1.6989757130063383 1.196120642273624
Ni 9.364028641860228 1.556892574837132 5.009229047252531 -0.03383006117556754 -1.7014077194865986 -0.6162466336826935
Ni 3.0953240093273617 7.778471989899347 7.568375364676343 -1.1862501772374472 -0.30836782875198504 0.33668595897038794
Ni 3.7327080136658766 6.6490704842434605 12.910352871982834 -1.5178854611578052 -0.656204919243186 0.5192841628230154
Ni 6.230897544313697 3.6388078150366985 7.6175577596434625 3.3496349982954765 3.2990197472417697 2.2750614581994304
Ni 1.2365461669303468 8.313338138981447 12.446173627432204 -0.1573340299692 -1.183762377818587 -0.6064777272213878
Ni 8.143685512738095 5.208382631070704 6.627189009806325 0.6331976597147352 -0.5589673403452502 -0.013524773959312193
Ni 8.831973600020167 1.0853731145240086 7.497527167106394 -0.5649937490449882 -1.2793032857403903 -2.0432196868296426
Ni 7.084626205348589 0.7662073716588796 0.8231981930373307 -1.8585648575583023 0.4286368355480876 -0.41424097183773173
Ni 6.492477985744271 6.803626082085301 3.6169493824622037 0.9419912631502292 0.3502899229070677 -0.5916643163576392
Ni 6.576405666223001 5.989649242476366 8.531872694303098 -0.09637523089764047 0.34742957064013713 1.1888513623057204
Ni 4.427254270840881 7.575924800551603 3.778757636988507 -0.8497763342778655 0.6060046442397111 -0.9157094466355647
Ni 0.04175462012659638 0.7740655684935123 13.286403443658271 -0.24179733992060293 1.5270061925121508 0.7458058075314703
Ni 3.072438831353643 3.5730647725531957 13.6675665438162 -0.8654698337537223 0.8572379327622334 -0.5969165658955139
P 6.420264788231549 1.7485271380387284 12.121275990816832 -1.1519933129371063 0.6424978540697387 0.4624234450802294
P 2.4292667111200434 5.700492299838635 7.220530797895376 -1.9029714086981357 -0.34282189666479673 0.15403659016485083
P 6.7224910753585 8.467709401922171 9.605323949097343 0.23008725057252633 0.25691645495022847 0.36429909270196614
P 8.13682825441653 3.849152370701706 1.1967482617791108 1.4762952964208444 -0.3111903858024447 0.7685803822238246
P 2.784913252590801 9.226791307978361 4.939622345241609 -0.3593690023902004 -1.1997991195664757 0.06326533571754911
P 2.8158815159785164 5.008895401081509 11.811958340043896 -0.6692080163710733 -1.730617765391652 -0.2902698335996936
P 8.231401275434786 6.4523390610259685 4.839596697848302 0.969326974850705 -1.2393450001798978 1.0893296153592982
P 5.483060067225667 7.097253146075127 7.063875625529809 -1.3039452526587865 1.0251160567958666 -1.3321844500101379
Ni 7.476642022809799 3.0361156390884694 5.5959338572268535 -0.8173333832578117 -1.0266648893402253 0.5154300791842478
Ni 2.8442783074956437 3.5431287846117385 7.359002253940224 -0.13106789718381945 -0.5426076680403042 -0.2055177887632783
Ni 7.3882995214493095 5.746142838100347 1.719659370849246 -0.6013699736811772 0.4040136376827687 -1.1070005502765
Ni 0.8774737613223229 7.918898317570544 5.996117554156574 0.5226546219571451 0.8302601186218088 -0.010467475190227135
Ni 6.014248735030476 9.340802444319442 3.2925107397506124 1.9124947748075387 -2.0916407584455077 -0.30375578390127045
Ni 4.918939969336242 0.48711234959864025 10.671949282503212 0.45018242292934724 0.4426172089875796 -0.6124241746128097
Ni 0.9528731876008579 3.873226508787632 10.789754031109286 1.3343153803102117 0.13984230094233982 1.210576412687638
Ni 0.38597700610060653 6.617650600348007 1.6953778559995631 -0.6290026477967813 0.21320872964963278 0.5517533390953143
Ni 1.5114724552018173 7.7330795204992 3.4871389017463548 0.9167224612811115 0.8629604370683074 1.3563664465729801
Ni 8.840794025038631 0.757551004702409 2.4258012149790376 2.6500679100165714 -1.4066291993832742 -1.1739898718128554
Ni 6.053502852223415 5.463133464414882 5.509707520531191 -0.7596152026107369 -0.5716127970234026 -0.07931133343681825
Ni 3.2032705274216817 2.1232062580498527 10.922411564372894 -1.5475685900445346 -0.05357587634392708 0.25765359022656914
Ni 4.564786540564535 5.329804030436702 7.536215376152904 -1.6202433920014416 -0.693788791034231 -0.09944872761664163
Ni 7.5221819601308395 -0.01126931417980915 11.843807724258953 -0.3402245682512657 0.3915723265956224 -1.4327922309318872
Ni 0.4146595167144661 3.2982675187125077 13.220047487628554 -0.019550411328101813 -0.38022604834486773 -0.52987068008961
Ni 8.657436098897204 6.858299813756707 8.0497659589443 0.8879908976743739 0.7094894895989394 1.2310148830476477
Ni 2.9499482895611644 2.1396489312295204 5.271831625709802 -0.5393706491602452 -1.2624085668675809 -0.10900808917030257
Ni 8.135657727794435 5.113496240720549 10.188062793674126 0.32972032628583214 1.6252128201915752 -0.5215876141452115
Ni 5.785304787842728 5.808945738911029 11.23442695642368 0.7723233942060247 -1.3280352037284548 1.447369871635746
Ni 3.363383822532211 6.680278383002627 5.383863005212882 -0.0724176916407785 0.6270216128110104 1.8325406655803986
Ni 3.2404232267418833 4.361225509260646 5.075935239594372 0.5651331028363299 0.47061729374493144 -0.6003160784953661
Ni 7.360990305848774 1.932557886569234 3.3269085539736154 0.24018037314247023 2.480350418781354 0.0903915025103798
Ni 3.175389873627682 9.108798537773145 13.13933921619784 2.4147263530236414 0.08449210630680933 -0.11638458414003183
Ni 8.434805622072725 8.442501604194375 4.296517507246917 -0.16890965062194135 0.7217197131165441 -1.2455025351408615
P 1.211900590650957 3.2976407800487086 4.184391195269762 0.904360854391965 0.5091085078415942 -0.8620500094388961
P 4.845353476810196 3.4483898621824767 6.186078356456024 -1.3540663376848936 -0.46274020498969987 -1.7749068171170144
P 8.793770191763596 7.340556782059916 11.698686386656297 -0.4654087529607984 -2.1077736594516283 -2.298376735886603
P 7.586164604308672 8.200248677145954 2.092715422056032 0.4318982799081788 -0.6949601856345128 0.930805678847055
P 7.118304191782728 0.7353967146116204 5.130514038791703 -0.429757322305776 0.7900406089801296 1.750507048116411
P 3.7800912999980913 1.3802167888612087 8.81356315177107 -0.25328194352143474 0.8548396077333859 0.36451737936035933
P 2.503830178622011 6.9571494044808855 1.679311226018175 1.0064269650267959 -0.1366947564522936 -0.7992374449880494
P 6.112388636385353 4.052446116398975 9.701464738449602 0.7194805393733802 0.44555238035650363 2.322940027048264
Ni 8.879283152391933 8.84142076370243 9.92444821660972 -0.18744884707670945 -0.37744591449656933 -0.4482407258219442
Ni 4.616907233855466 5.230631853635568 1.503123005855707 -1.5141810157230242 -0.6075210808842376 -0.9173600948651104
Ni 7.179650846874582 8.092228425091188 6.489406044617151 1.6343235242435918 0.5415229196165577 -0.3714102498254507
Ni 0.7955424278226947 4.6497925802148 8.58075831007942 0.38486637533035656 0.809625987311225 -0.8635641320905773
Ni 0.7792048255366639 3.4311084652027253 6.243921726752142 -0.14300218672756015 0.3854207051719298 1.299545323818878
Ni 8.509120237458184 4.403862171889089 3.918469666917874 0.5243525784848583 0.5652143496962265 -0.5623768802474315
Ni 4.7929101974423105 7.250131296316801 9.93993419165259 0.7507225281067974 2.487094936594039 -0.021295933264298808
Ni 2.1947742834086634 1.1186824311559136 7.325615516649849 -0.24330272082153578 -0.8997022725740311 -0.2727714197046141
Ni 1.0850320949569414 5.610776503464822 13.199246215711968 0.9758087259203067 0.13715369836658314 -0.8757575888329757
Ni 7.2832747115376995 1.668101820681229 9.202374306976356 -0.6075545052253343 0.319348753243521 0.4186568415172403
Ni 6.195781745650842 3.9037708019027764 0.2544946078316236 -0.08278463669739936 -0.7591578033583442 -0.25670176783626114
Ni 5.638270053966475 1.676654960093074 7.280883887870208 -0.9559878345396374 -2.987436753986597 -1.1616269793721286
Ni 3.922222725504623 0.5259968753148395 3.0645622010288984 -0.9590890991727806 -0.015385481317134794 -0.8688372075640585
Ni 3.6862464018392482 3.1733437562252798 2.6313558282385103 -0.16125650495205773 0.21424334156173425 0.258495112291258
Ni 7.89198542200741 3.1861089481276563 11.295008621675898 -0.636742182532884 -1.5228890850199839 0.760942920283225
Ni 6.2715433900100725 3.986352837603349 3.10600253014909 -0.5954893465306841 0.6197232793773844 -0.7352480866202822
Ni 5.376818646966682 8.443257377288955 12.546631540168631 0.5568736910410151 -0.9157014762157649 1.022191169839588
Ni 4.56653772212515 1.7805000266375326 13.366221377516588 1.6313562140851519 -0.5178502585899663 0.8140534269549592
Ni 1.2620120335197085 5.69974574348911 5.206636057882617 -2.105388447048903 -0.4971747325184857 0.13501351209512877
Ni 3.3771259894105095 5.720188484023025 9.789362992698399 -1.961085025011416 -1.1404997104752101 -0.18067244758482431
Ni 7.948649970610884 5.412201731236157 12.64644151572763 -0.22396673949708526 -0.02917327912984653 0.15138732546746184
Ni 0.7671511663526005 2.0283475179348645 9.154944936918863 -0.03136977256053307 1.687924083177867 1.4651611341808959
Ni 1.338815170070252 6.550119509323666 10.668375028770546 -0.4476758544574097 -0.0068663881025301104 -0.24979655607599563
Ni 1.2743163881692916 3.365743309266513 2.017982366445036 -1.3824068365007998 0.7659879389063001 -1.1553588869752294
P 8.450086985375354 3.2901291328281763 7.8857051319263425 0.12143937295511988 -0.8423149929038138 -0.11291436620324426
P 4.628944302898429 5.36315021404883 3.513038877027848 -0.1500953461289157 0.49620156997193904 2.7345345624020836
P 5.41110493857451 2.0550207781265453 2.1564667259329617 1.2080952981369968 -0.6965938645831938 -1.050171714212914
P 0.8480585194765219 8.456833642756248 8.076826322428326 0.7839730626298111 0.8236577828139428 0.3784008222106709
P 5.692777884226874 6.329857735978546 13.603895425621255 3.385710918082427 0.17910433176675605 -1.8956967294135934
P 3.167011852371899 8.010199394093966 11.328894906548298 0.24685598539043288 0.41369435530564236 -2.1127016928808646
P 2.581121802660516 1.4872600659400534 0.8516023579505029 -0.37974370939181057 2.938865529946113 0.82996649864079
P 0.8322573317527427 1.651825048912567 11.506067475082734 0.3232282908035853 0.7562280313060589 -1.441077353758815
