# total energy = -340856.4372213253 ev
CRYSTAL
PRIMVEC
9.36431425221209 0.00000000000000 0.00000000000000
0.00000000000000 9.36431425221209 0.00000000000000
0.00000000000000 0.00000000000000 13.70562046749820
PRIMCOORD
 96 1
Ni 4.68064001016008 3.7186252983459216 7.146096280429581 -1.5620775822939872 0.679752624656139 0.4847475624987265
Ni 3.0944563091189923 2.104451662585247 6.663644947294747 -0.6658977210509177 0.28199242408224984 -1.1266923722784723
Ni 3.707079099112315 5.406290070834368 11.370127654960898 0.7000543123279686 0.7098499582621517 -2.240571651952677
Ni 6.303971945069551 8.190619026978032 6.800372360425294 0.23718478084925607 -0.916233180349519 0.46344263037336314
Ni 2.380155797083091 6.523387187764306 4.8613974915602896 0.7711288596772914 -0.5242553907853615 1.3036616599800968
Ni 3.680212882079698 1.784145300228793 0.6850042555052135 2.087856865923043 -0.619310874430314 -0.820521036957174
Ni 1.7546664395739728 7.2400568712569005 10.468790888948845 1.633958170484373 0.439420813537469 0.0608847513005145
Ni 4.610585576691621 2.042047873702236 10.216443226574654 -0.07244417400333975 0.0651790078004942 1.4137215874536815
Ni 0.9184537956788054 9.285120054085835 0.9404318407731072 1.0763452872844883 0.9593883755807541 0.2404310557006956
Ni 8.261825271075635 9.358414540218389 10.54051310675105 3.8201337641846727 1.3158013806664242 0.9332417990923735
Ni 0.6172272232156786 0.9790671277139129 12.593038711452866 -0.29735913634630723 1.4513306560557069 0.9456890237167905
Ni 0.5928303758001757 5.478769861643868 5.7466295102552625 -1.5678484233394934 0.39437945702711436 -1.4165539146961539
Ni 3.220968192043585 0.7324345062093632 8.63029230063277 0.20207919539537456 -0.4779811903091704 0.9580465168408792
Ni 4.038632002652518 8.04829081760935 5.811223612196458 0.6698047694148077 -2.365549377078358 -1.0751214421797162
Ni 2.346050965283582 5.341798039916406 7.238212101387459 0.8643645165046855 -0.009063909974481164 0.038386570197998404
Ni 1.280307746648127 1.3726679762029204 7.978425543284865 -2.911105586224025 1.8053890448662713 -0.5091270197843554
Ni 6.381442915272006 5.615095545701324 0.24888192974129927 -0.6291283747413682 -0.664506754240662 1.134031329142047
Ni 3.4679894325815446 9.214260289608383 10.770274043617166 -0.5679754573811314 -0.3652488582097452 0.0018270259064097566
Ni 0.5394659592774239 1.4900496529208904 2.407940653324805 0.24321478909341984 0.8465650264294194 3.188160978015974
Ni 8.048824583510662 5.154605401895488 4.044021165392939 1.6115934296359276 0.821992479296378 1.207871612161965
Ni 8.557625223542107 5.757545491152761 7.561925201198242 -0.3988812015522098 0.6428850622058282 1.1568840653705044
Ni 6.681456809064612 1.1055134604400993 6.249132649082653 1.850696253443503 0.24714909115081954 -0.12930437752549342
Ni 0.44213983397763323 8.633176509362658 8.228594129777743 0.2857788877078756 0.26469147090995704 -0.33290155222729123
Ni 4.873629158582947 1.5654136524602777 4.48664419797597 1.0723603344948112 -0.7418182836386321 1.1218844093668678
P 0.8825416512660877 7.374116391312302 0.46180770279380806 0.7199855040342568 -3.1956341464645672 0.24827831965925629
P 0.2316206896380497 7.457383871916704 4.307333503097733 2.261978913983859 -3.5323352749436063 -1.0501187494877913
P 0.9102216271903516 3.8399118940261086 3.2019754902709976 -0.7181309673240213 -0.5282737679161353 -0.5626373329976697
P 8.925109000123143 2.6501102427492764 9.380715654147693 0.056188888486741945 -0.2018971612915555 0.268606232583331
P 3.224564088641886 0.34570238208195386 4.454176248273812 -1.9365397315718842 -2.0564567543452066 1.9171232747184852
P 5.28043368989384 2.0052554837680594 8.271890035825253 0.5542784195100131 0.16850650164625172 -1.1829072289071434
P 6.416156427485289 6.309056767603087 9.586669695383966 0.01396057594515015 0.4245115005258044 -1.5647718412966987
P 8.859671173485316 0.6488233552790292 6.550710383322958 0.5831272254209053 0.1633241861143639 -0.19085915830983904
Ni 1.9143654515203836 8.881358924843818 6.243649843201649 -0.5048335346153241 0.4515582202309514 0.08865575076619571
Ni 6.88879208662445 2.205679897553038 11.387478792479103 0.1929026711024291 1.0971964197018846 -0.08957954813204573
Ni 5.830914891797777 5.694430014401334 7.144726281282885 0.5668817100963205 1.4366049198097581 -0.23713361589634646
Ni 4.35165292867179 3.8914156213455207 3.6864279773200423 2.445600931115311 0.3854595288296652 -0.2513039938594575
Ni 6.5067748946252815 7.572190362268703 1.6953163535052995 -1.6158493766988045 -0.05115749671042157 -0.51065554061374
Ni 1.7719623276392373 5.606527198338186 1.7088580880646815 0.20275076754110244 -0.012349522704288409 0.00943646282255149
Ni 3.0171258036274087 1.8178100092675724 2.9958706835783904 -1.5345474951945184 0.8749217231952418 -0.9755158772702361
Ni 8.64166994221333 1.9158450131415594 0.6480685915659484 -1.8723344005385687 -1.508893799182156 -1.96761511282045
Ni 6.181561631702396 0.058010052726962864 10.87752072323008 -2.563635906374572 -1.5794284148676088 -1.0322390409938933
Ni 7.732956906017735 7.962944459284056 8.970369539260037 -3.571833075927913 -0.28927044580090183 -1.7008695875949418
Ni 6.918139846882457 3.739629454778184 7.997092366928232 0.7159923237144638 -1.009627988462597 0.11982523439046461
Ni 3.7244030801197536 4.316002985052698 1.45350822660347 0.895087142399523 -0.4983828938939739 -0.8264127198512606
Ni 4.880680487068678 7.19360050921479 10.726183107306126 0.13147104615950905 1.6413650044714052 1.3713266674272384
Ni 1.85046337238808 2.803675628987648 0.9926472559609334 -2.7576554646902633 2.0595590474196146 -0.4559476075478986
Ni 5.918377585100198 0.8204384568643404 1.4558661608832935 -1.5511678773600188 -1.7187418398896723 -1.3938947825357413
Ni 2.5260049885376086 4.070152283771998 4.749805770224427 -3.8199391316753624 -0.7773321602745257 1.6003535950560506
Ni 4.567210073974618 8.337891594169378 3.3769139869155196 1.1500295043425164 -0.3363985096369561 -0.677285136952253
Ni 7.253223096822554 1.24872191533024 8.736880668967402 0.2932867660491465 -0.2766339879838139 -0.009618496926370531
Ni 2.423596849998501 6.034691730015547 13.104711386605922 -2.026560223896091 1.6194967436434045 0.48478252950171996
Ni 4.108929908286487 6.774350804520716 1.0857678678172427 0.10419035606668507 -0.5868807789260667 1.2271633705120413
Ni 1.4297341060728295 1.692871331104736 4.743433354507907 0.7913184472512889 0.8619559070631929 0.7057156243788039
Ni 8.223525226578108 4.790324220722312 9.862221191562663 0.5674555803219196 -0.8742972022373652 -0.4750388198513948
Ni 3.352845826923455 8.220322631170246 13.167099256155035 -0.5128515198237942 0.704630104624109 -2.0208994260658875
Ni 9.274313635662818 0.052123644910056936 4.3100060783299075 -0.9332703383374636 0.5662078239577475 0.29320269097577245
P 0.010763342578351378 6.88130063537799 9.322522060865193 2.003135160103931 -2.5248850108586196 1.4366044055891258
P 7.912068141006535 4.375522565205823 6.064518006721922 -0.06555798840646775 -0.8204996968009353 -0.2173507768424644
P 2.1661063063436132 3.401053315694425 8.290447296994142 0.19770343492518208 -0.3386618517498361 -1.0872074268099727
P 3.3190219245456882 7.4481132009992095 7.927426552493183 -0.5819707432189589 0.47189590334703896 -0.4601377343698463
P 2.8673436002684998 1.8767677305772126 11.737452238202946 -0.08690714350620517 0.10912507436414111 0.7608128224632639
P 7.5508022689600605 0.4975110230030306 12.549769961916123 0.8433249222255671 -0.14419029349839038 0.9143169371634124
P 5.474537191689619 7.531923811818981 13.195154741073027 0.8082033959320855 0.0020527687639706584 -0.5601446484828031
P 3.8315776545144216 9.094940199880392 1.2937745666950446 -0.19657549196832597 -0.074952028026858 1.2497718519401766
Ni 7.16285746616213 6.444502206139083 11.802225198542649 -1.8504100896616522 0.4602387787240848 -1.918498557799457
Ni 8.557840602765443 7.936443450499704 2.4136556941944485 1.6287645420985757 0.45686214894236804 0.24311168785665227
Ni 5.022989967809243 8.683369232713938 8.72514811988404 0.8227162448362798 -1.796756566002254 2.340591935802072
Ni 8.078818481438676 3.331504555185102 2.4519763401829024 2.1843907338857345 -1.9085103362384939 0.8024454104023858
Ni 5.994050607003501 4.392097401088616 10.288302163362104 -1.3494406659874243 -1.0100879588181508 0.35734965796732654
Ni 0.7692465612030619 3.1571972133080943 11.49349219193057 -0.06627815440194391 0.9929986074360319 -0.4906886105735098
Ni 1.2153287713991447 1.0685244199107031 10.48515596419674 0.5481370824989658 -0.8275743442595295 -2.4000530672821827
Ni 8.299722650068665 7.599796360111909 5.913166344326879 1.218244727866173 0.0641852764286572 1.0781789980591172
Ni 1.4497362809008776 4.891383898037057 9.624347012996632 0.07202714107057917 0.25502026636878017 0.22473652778357422
Ni 3.197510585328107 4.029117859569514 12.826089331847582 0.1747152015601249 -4.59638066181482 1.411199592362776
Ni 4.784761818171815 0.8719131548101727 12.421375851865859 -0.3674173266159737 0.4867689638041294 1.4681657253351745
Ni 0.4244422168392773 3.2346400905683743 6.416477623457482 0.451863410176196 -0.36503442820609394 0.7074925137735686
Ni 4.708667402135899 0.3866188159273067 6.895146710144259 -1.039866218521848 2.876692398851478 -1.3105306191857882
Ni 6.335314304221928 3.104953705178094 0.8199524489647262 -1.0780237034281757 0.6415866551093788 -0.50310575329094
Ni 7.760244517182965 4.253056065954318 12.51364243828007 -0.11148354729398866 0.04425717004616249 -0.9171078696449881
Ni 6.137820920737127 3.174858309621624 5.446010681774505 1.0989231725850042 1.8311507272114076 -0.3381656288397079
Ni 8.23135379313066 7.124501235780254 13.615902736016395 -0.4786008261710402 0.5691833616463037 1.376885135351622
Ni 2.233136066371314 7.779385175117671 3.0800642948431367 -0.7821979730072594 1.7930834880260411 -2.016907788407991
Ni 4.1131906711829105 5.717747156405942 9.054316869065056 -0.16772077252016276 -0.2006010681879513 -0.9398590472985751
Ni 5.761085201866713 5.921420987169072 4.014060978995535 -0.7303907585279809 0.7144126379321696 -0.10183676823284397
Ni 0.37814130241053145 8.152993213092687 12.179526521982172 0.3998124551172275 -0.34279849962602893 -0.7457361306357996
Ni 8.382418907515524 2.133630865190209 4.563491504862156 -1.2090440352035114 0.9479950461421479 0.47090602862994385
Ni 0.05952988089858843 5.786340756881341 11.464284896383434 1.4421019383685874 0.5019875805260967 1.2352417766448016
Ni 8.837262369944343 5.509035324679566 1.652034493928877 -0.7154014842080002 0.1390606855813089 -0.7201012036765146
P 7.653650530259897 1.0142488556301008 2.4302670509020676 2.9258904578426836 -0.06278171121291123 2.1506007819194832
P 3.547679745215763 5.832422546361128 3.1317618634635513 -0.3371366733545613 1.1801538345317224 -1.486829106072633
P 6.774332075892599 4.854891166152739 2.412573179489335 -1.8650635779087685 1.5954749268075104 -2.2070719775333347
P 5.012633036461012 2.3893234605459464 2.557290225374232 1.1778807222268295 -0.6029794842601423 -2.7449804403257563
P 0.04598627347639459 3.5921789656197354 13.465908899159773 2.2585549759039747 0.8984684001669301 0.838142349583363
P 5.585944436038536 4.186354056918651 12.376997431113233 -1.485779581762196 -0.38952264315544527 0.5959063794634447
P 6.569571984698732 7.818509279252307 4.67384994603657 -1.2077384290182103 0.4285846421539135 -0.5909971150872854
P 4.220580624800915 5.180628830662878 5.361377884180435 0.7354404051367462 0.881872700591778 3.933564407902703
