# total energy = -340868.4321544381 ev
CRYSTAL
PRIMVEC
9.30505286882455 0.00000000000000 0.00000000000000

0.00000000000000 9.30505286882455 0.00000000000000

0.00000000000000 0.00000000000000 13.61888544268327

PRIMCOORD
 96 1
Ni 1.1923215199916712 6.358161024944777 0.3903906886753597 1.10465287597993 0.4417471476778005 1.6236899557891455
Ni 8.985098328560506 7.628458885396505 9.024281904894313 -0.3930537962371553 0.760615104630161 -1.083740294196979
Ni 4.227685495661486 8.909420336082984 0.7818905396159747 -2.4527359994981954 -0.30189301966091875 1.8932842633173586
Ni 3.7543467769428 4.010775415415142 7.686852742742218 -0.8071942379412808 -0.9261159866808695 0.6558593629783092
Ni 7.3390531406484545 0.5865821388896802 6.6872397917913355 0.5477596445548889 -0.5519973367853204 1.4229423347210008
Ni 3.8527663178790785 6.7286416926556525 13.279597823630034 -1.39364050043309 -0.5315609233078394 1.901850407719815
Ni 0.6101732386472436 3.5840643150789546 4.366160496356525 -0.841581457171899 0.32262845243605726 1.123630188413381
Ni 2.816341648492154 7.273303639253376 2.165824493456764 -0.47238338450641876 0.44103598054338883 -0.3837669716185907
Ni 4.219524964565607 2.4503739312732993 13.398463356558304 -0.3056841112722349 -1.613023220103919 0.05386872499399755
Ni 6.237251171968886 6.204115879799643 12.640586366086154 0.2174968155020254 -1.8423977608801365 0.8764679846364388
Ni 1.5728423394157205 8.895444147136564 3.988249744175798 0.2754847048707191 -1.2846563225221874 0.4304427784085748
Ni 5.657806938898647 0.5519580383106983 13.16824984266569 2.8731535324602837 1.739977866450313 -0.4914442577926117
Ni 5.763400675359352 1.1960900662788219 4.984729683929437 1.1785450952837058 0.39358164371616733 -0.8413922239792284
Ni 1.48074092916827 2.2273597365470263 0.21429163845571686 -0.706403651584764 -1.2758850040874608 -0.8471792629746506
Ni 1.0618367679306489 3.9681675797389375 2.1590429711504053 0.020199357766010374 -0.1162799402413675 -1.179012778948744
Ni 8.612291397709415 0.3793055795596002 1.8454273406494939 -1.6011017860759844 1.7494122723903354 0.23252491347974147
Ni 1.3710436645282222 6.117597501088712 7.392344107169789 -0.39304222627292956 -0.3077528208758054 0.7694820681024878
Ni 6.8822681104355485 3.142223199278799 10.451568098616178 -1.2417656938062485 -0.42868080141214554 -0.06042760915843786
Ni 3.997729731724808 7.427916392604723 4.361475402392128 -1.24118513871243 -1.1065873739984813 1.0094858064577774
Ni 1.204753070212988 0.1512815445345575 9.448999862971963 -0.22311364746817056 -0.10109371941923236 1.2406120398177793
Ni 4.276443971080424 4.973904185780126 2.710648347969047 -0.9159318470590162 1.1516883801021778 0.12160340933680994
Ni 1.836184631940786 5.757129069933328 3.7251326339227053 0.4740689997389577 -0.18485177577349457 0.27898988981050016
Ni 3.4698634049994475 0.8523930618591433 5.084147657005496 -2.0961134495048803 -1.9454702012922949 -0.42467142314243644
Ni 2.27790478205765 8.583603920664267 7.426745816992566 0.562800083827779 0.3557118652535874 0.8389288500404004
P 6.690909704521341 1.2054881693652966 2.7292789242064126 -0.4039267343959172 -0.24677730963369757 0.5010180175239759
P 2.280547416984936 7.227011002763068 5.786719137076883 -0.28535259880373437 -0.019772554641236915 -1.5789082806980808
P 7.308653533932105 5.2169614637225035 10.9670838290775 1.342103508896063 -0.24654102525317545 0.5086539368026789
P 5.054364975273933 5.365832999643796 8.566428654647419 0.8343463728760405 0.534227414396409 0.07692663525472558
P 2.4635312755943635 8.53959102205137 13.279012535823956 -0.4597937207668662 0.44208833306730316 0.00471180365337253
P 7.166007078174031 8.279077465504807 12.893011970946814 1.4011272957284384 0.735481799897643 -1.5130088497917942
P 4.249282522655256 4.703415612888315 4.892149063475102 1.1597827270745382 1.8718590035640472 0.5637256809658421
P 4.887385807069195 4.405877252202068 0.6874879898702221 0.14380257114166847 -1.3326418492625307 -2.0496132490608123
Ni 8.045334545175857 6.795498495305474 0.5983623354317366 0.6246019476259242 2.336579986429202 1.2578636278093756
Ni 1.5668778007242057 0.45646586691006835 1.8932562413176004 1.751704925079254 -0.612376609204326 -1.1263907818776535
Ni 0.2713679003588121 8.888511882978719 5.998193205617168 0.3268512322681532 -0.21417623576922468 1.0552249603661052
Ni 7.7253337876076795 7.158376935074121 6.719176593190739 -0.8649828668149749 0.6272758949136615 0.5587580525479217
Ni 8.162112954814724 4.589000686599908 0.6087356080265898 1.3517477168540464 -1.4238972424351024 -0.48218340131597603
Ni 2.632725046308588 1.0316232622655175 11.854150308294196 -0.7338159821594459 -1.5272874711979953 -0.31773435756854956
Ni 7.4363746853825505 5.631827232148709 8.843245593785875 -2.0260061511648333 0.7223779155258333 1.3685064243696237
Ni 9.225112854315482 3.8534269766109 11.730150247362841 -1.6212157832170402 -1.776718416404456 0.3782455275797292
Ni 4.387015910661193 3.1147919043293664 9.970208424590023 0.4180107232928091 -0.7034836497244916 -0.4194448846361744
Ni 2.955936047010264 5.164080850019102 9.96787936993404 0.5455605800210411 0.7498164713527602 0.20461353178145406
Ni 8.008802908821897 1.4815225535833827 12.220021252966419 -1.4890775357871775 1.3533644265218627 2.6163905723687844
Ni 6.147020077286169 6.376650164383218 4.5461741821885235 -0.09406612314848961 -1.2229863563162164 0.37349232916546
Ni 0.37380722400138455 5.613719599865264 9.736807930195313 0.8708763494812742 -0.9588764689413422 0.8552813232564948
Ni 9.095344591301645 6.108190092949676 12.265454102600104 -2.577977519808224 -0.1567226216374462 -1.6622477614576858
Ni 6.284353348031989 7.649720930498082 10.826264885642379 2.2402908874874643 -1.752136099079402 -0.4614114588759473
Ni 4.346734338125205 6.3522988418314315 6.664428455438373 -0.5379082056821058 -0.5148595513927584 -0.5475974079454118
Ni 2.0474279351775633 2.756258924106643 9.334696597314286 -0.7545539860377456 0.27581971961263463 0.31631433729257136
Ni 7.775050683440386 7.752690642136625 3.5229329112698338 -0.45740259482687035 -0.6697852290307821 -0.7776152387325834
Ni 4.333623519066944 8.72056498930765 11.70176797604169 -1.8691192360353812 -1.22741251040837 0.9055335345438275
Ni 6.484579469036701 8.636475229315106 1.3132416085253795 0.331081725409733 -0.79155678851434 2.0588360532106607
Ni 1.239861033525135 7.717871135453866 11.688680419614832 1.7021116875321587 0.032065513075977034 -1.9420133530919457
Ni 8.31531134017682 2.743138799995822 2.9409707309766233 -0.6533185988343264 -0.3456884195793143 -0.6063998227956008
Ni 8.393473781688092 4.7350620966478205 7.07550148444077 2.306737963367105 -1.0832397004114762 -0.9551679097415033
Ni 4.791180868642403 9.165104570350456 3.2989295894563413 0.7874196264175148 0.7873026412236764 -2.088698902208364
P 1.198425634471599 3.7153306915550894 7.67225311527422 -0.291342240728266 0.7651826693961854 -0.027679982413771682
P 2.0380391371436493 7.1970022082542755 9.421803055347064 -1.227858339696537 0.634344885945301 -0.4266946242200523
P 4.469002728774982 6.56710598019902 11.325383252480945 -0.3828544871066503 -1.1829334541593886 -1.7557374432774149
P 3.5216460225006663 1.38929087260008 7.257558559815135 -0.05610918428874208 -0.3332882461427486 0.07941674866643096
P 7.657444124123603 2.611602576995422 7.862059438421275 -0.36905743332255797 -0.051612839080285314 -0.7668996520872922
P 2.914556478272093 2.1083574193461128 1.8958439764347774 0.03849764185456595 0.29332199016245614 -0.38463446182520855
P 4.930607776214417 7.029567092474055 1.8908462327043365 -0.6421803228293198 1.9433582971556145 0.7115129477868714
P 0.26041585349467294 7.8402604917869345 2.2037397911265244 0.8619191402879866 -1.8037905900308997 -0.14482587019986026
Ni 4.224828844525301 7.486528918685617 9.033324554972962 0.04939474838304396 -0.4597338140632082 0.5924726711915473
Ni 3.444172154878897 0.9325337575448568 9.316324701538113 0.40817599659057446 -0.9576806488610281 -0.12069503858992764
Ni 2.7257941820223683 4.071732814741375 0.4273494269418629 0.7719600973293351 2.6600808141678836 0.8589798551540045
Ni 4.720276368128604 8.776990828036741 6.794611723796423 0.5739676704088245 0.33828724201923677 0.417570550431597
Ni 2.222483889005133 4.262197935609738 5.84730898682696 0.022884617907657362 0.9028071367516001 0.1109749830886863
Ni 5.568301638315677 1.9282488219779927 8.172434119115236 0.07771904924903389 0.1454601613497495 -0.6102317949471814
Ni 8.946584716011083 3.3012186323863144 9.519546118962168 0.7697132102766873 -0.6611992871339838 -2.039180226652946
Ni 6.465606466865096 3.3407464956648725 12.879434038249999 0.25751809308996937 0.29919207578998797 0.3458393433348818
Ni 6.2199902994684795 3.747395902679833 3.7484752887768935 -0.43281616373675785 1.1291722012775327 0.27710090031790346
Ni 4.396795520902663 4.266431734524932 11.883035982958894 0.7997771195416032 2.458794032766817 1.0600987435186389
Ni 2.965659826936369 3.288024067855006 3.7177918779574384 -0.8152950126715441 -0.6453924020087143 -0.47476139782029203
Ni 8.643435408630634 5.690067556127168 2.821356141317205 0.5040130955965577 -0.991783246971692 0.32492599022098234
Ni 6.087216504477484 4.4464565864200045 6.706933005031152 -0.7990381844930496 0.02932805954015594 -0.20827786800691875
Ni 7.4870220864713435 2.847922996883733 5.437339537058283 1.4923672622820428 -0.5053426130412587 1.2893123332369603
Ni 9.587833108190592 8.883859356698286 13.50477265156094 -0.347811122349272 -0.05316475694843747 -0.26682728630603725
Ni 8.236357969197872 0.42837577423932643 4.269697807973796 -0.7412611255835815 2.5947267142421055 0.559230621308966
Ni 8.60762956637642 8.994356855858568 11.078813317196841 -0.6669246196535352 -2.0347885253431537 -0.6842656820351442
Ni 5.051443188769821 2.552236341657098 2.14434750164103 -0.43528056611685034 -0.7509143324026293 -0.21817250141281136
Ni 2.3607848852172824 3.2064280619487735 11.707637603197083 -0.4280855910303079 0.30351872818979986 -1.1355883892165217
Ni 5.477084208061509 0.12634865619771735 9.98960201513738 1.526254916168423 2.3549903706155892 -3.022311968597227
Ni 0.12604624198948922 6.7754461070368075 5.10025842500938 0.07898557466628332 -1.1487611791530539 -0.3278354505582935
Ni 0.40494658239632225 1.3048754357679049 7.490836227516043 -0.1638944567955371 1.5461686243732147 0.18952038489375747
Ni 4.235427299392127 2.76965819979429 5.680151161613053 1.0180576072871885 1.2973082069582431 1.1822256294590865
Ni 6.336759404054786 5.5121735612685345 1.6356551662225896 1.104013699734034 0.4251483627788549 0.9512613755982455
P 8.781540998739004 2.558805708765069 0.7868110514101606 -0.7447413708226981 -0.5075452771195323 -0.0033761155610845077
P 0.26739371241006626 1.612212016800744 10.903252099015218 2.325901423669433 1.055938184383046 -1.0291920266374532
P 6.29640339109831 8.431475616346669 5.312700219015996 0.15955854842434455 -0.8724241535843684 -0.7209126438342165
P 1.5638722687470459 4.940601402664786 12.42611607062127 0.5033950023965846 1.437864503248472 0.03805541211082478
P 7.947454697288109 5.006583530373887 4.92612739340636 -0.20730959055637846 -0.0597938322291809 -0.49342297878553726
P 6.991546647710357 8.479982855346464 8.637246618172401 0.10626086544246861 -0.21513011504206175 -0.16920764147833442
P 0.7692738188486966 1.474925271317729 4.86348112704033 0.29246144193437373 -0.07256655851381696 0.4484939794833308
P 5.290741225477609 1.6424813527812407 11.457268414952377 -0.4698071391388102 2.213377350926072 -0.6439494989146006
