# total energy = -340890.50347115984 ev
CRYSTAL
PRIMVEC
9.10966925886333 0.00000000000000 0.00000000000000
0.00000000000000 9.10966925886333 0.00000000000000
0.00000000000000 0.00000000000000 13.33292177982576
PRIMCOORD
 96 1
Ni 6.1927986860194055 1.7723772439919323 11.49608554271036 0.30791788569876005 0.8037330188655578 -0.14418900794680975
Ni 4.98665115191032 0.3884936865771646 5.987148814281158 -0.6564090648341921 -0.29634766436265736 -0.19755302539024686
Ni 2.800130125710527 1.4656091329134562 4.9422870627951845 0.6427868460650672 0.026788323837437733 0.7125485881402374
Ni 3.4881105647563677 4.475380076448748 5.044298049719249 0.32267936027865074 0.2842123145517041 -0.3993159750967833
Ni 4.953929220061949 4.564545518801714 2.6770903783525037 1.2049608662730733 0.462274578207191 -0.6502199053043447
Ni 7.4408780275611335 6.1307891676196675 2.661544727823761 -0.3480808310708909 0.9504082835693309 -0.6690763758892155
Ni 5.188093267434546 4.369461952395016 11.74090425920597 0.4030571873067704 0.25850179715947735 -0.33625761318371766
Ni 5.508680746724041 7.791226796201583 12.452721969707165 -0.45569126856271847 -0.008284865716611538 0.6663566629652072
Ni 1.8314443392326996 6.378626828495719 0.36309137394932994 -0.8741503922468559 1.3546736322515895 0.7027886805399961
Ni 2.5092219487489813 1.5539729243748137 0.28855788230205826 0.9521607474840633 -0.31891217992673465 0.2757076195148026
Ni 0.624817636522493 0.18875416823068275 4.988192507942821 -0.30167524722315786 -0.18309931185876208 -0.6482396416495223
Ni 8.44744181866745 2.255107725778407 1.2462774489694544 1.1585601675213466 0.6818971818029675 -1.7081437526588519
Ni 7.127897122072694 0.827609805025542 4.752212903494115 -0.0393029113646807 -0.8453146989620861 0.2904755218525965
Ni 1.1660012218441167 7.6996290721661245 3.206220960325414 -0.40748462695050464 0.07555649438007633 -1.746340575443547
Ni 7.679013890714882 4.192625053441627 3.843774825388332 1.5284169568167483 -1.55790468186322 -0.8342167892767117
Ni 7.598830582215616 3.9807523666572706 12.55357238477224 0.5650228025107108 -1.4619673098339465 0.9149406867903404
Ni 8.072606259156059 8.81652917689924 6.758578378242644 -0.9960211963124395 1.3531186290596438 1.0560171172500974
Ni 6.589971154465151 0.5526890975500459 0.33965583890670226 0.8202922087758195 0.1805066114309214 0.41087411224802783
Ni 2.0476532285671185 6.7706341144921245 9.17446356710153 -0.851552966562314 -0.5821481493370877 -0.19058225049936856
Ni 9.153304538397686 4.9702537473092425 1.2716724738619107 -0.4748986947291047 -1.0957733141021129 0.47715432353250087
Ni 6.622164725498598 2.070199659893599 6.9727576332742185 -0.33641882135193024 0.28627871016242956 0.09857532387275281
Ni 3.2171343440543527 4.3473801141988995 0.06502937374710326 0.1620376060924564 -2.1551999712543912 1.7631519905739312
Ni 5.98790400585973 5.499343335770651 4.787572084582492 -0.7964912497014799 2.090432854180335 0.25915794268623754
Ni 5.48561506425186 2.964404790805647 9.311979489821537 -1.0480675233857177 0.4830100109823295 -0.20584920396076806
P 0.058803825800227805 5.598110369484468 12.51325389975896 0.43078704912187105 0.4809310169661137 0.2676991473880293
P 4.041604957065711 6.041104474121001 12.63607683698948 0.3760870864758297 1.2750324262791783 -0.8289910221013981
P 2.031501785035058 8.563262153166388 1.293882758394069 0.8120428242828336 -0.8295119276018746 1.1747313779645705
P 6.418417863660998 7.740176209876898 5.777688367907004 -0.1369356688185061 0.07519345461370276 -0.8358029028169089
P 4.582555334855231 1.0193355473567087 12.799578091167584 -0.4533942449984256 0.07930207746543762 -0.3706587163714068
P 4.235522485811888 6.3995608483697595 8.258011712980434 -1.2986948028931247 -0.5056917688505613 0.8664172852686562
P 4.75393554194415 1.2141002753406085 3.7205383091750956 -0.15593303585661533 -0.5473750075219606 -0.06833066605559845
P 0.3021240017086823 5.725773273973074 3.7996958689198714 0.7458096641862123 -2.0341987142779545 -1.8964567475080696
Ni 1.8285019160737288 1.0365983705339534 2.791180786666028 -0.7668083779250665 0.47537383459331034 -0.7904265315646388
Ni 1.8901197186968857 6.508421395582463 5.076642841261795 1.0320269249830871 -0.39332530473098715 0.2727516222102722
Ni 6.046652262677698 5.772041283955778 9.534012190690104 -0.40194492807919807 -0.21328303453099395 -1.240193464223122
Ni 8.387964788311654 2.3356645307158077 10.091861915854878 0.3679624004861663 -0.018527369380226155 0.36335498362114194
Ni 2.735906957689643 5.044142274375539 7.362573132855615 -1.505114277535066 -0.0326236995722922 -0.33139360022319697
Ni 0.4206162021906738 -0.09481252630419218 9.059413910618842 1.0032490815194464 0.6178147495007618 0.054577835245880196
Ni 1.2759002713482217 1.383767864615638 11.286824598092187 0.05623362568174832 -0.9418670788675392 -0.11446859806424159
Ni 3.9342201762671043 6.576616379384496 1.4354625045543767 0.6144291208579805 1.1116722447205565 0.6765801404654284
Ni 5.843488419670359 7.771996284472209 7.870543775157758 -0.23158517527429145 1.0290876398491051 0.8817032648934492
Ni 5.635368916605804 2.9076697708859216 4.788238912369603 -1.6827654217950634 -0.22977383309716556 -0.5865704467744995
Ni 0.6282200979772166 7.3815285325744595 7.007063736600438 1.763245578729002 -0.7958721280602422 0.7233760177730445
Ni 5.326460033259965 4.813904494437977 7.263962785452429 0.7618888291362621 -0.22874873426676087 -0.3199182525937458
Ni 8.209315065182924 7.11896964623433 9.155317775295929 -0.35010171815566155 0.11125214800947292 0.5073452452935844
Ni 4.581352858517818 0.05128561579063415 10.615472038278758 -0.7698281385879968 1.6578848565032995 -0.040395115987594946
Ni 8.386652995943567 7.104448833493155 4.91642197897083 -0.759135434760841 1.4334483764586474 0.05412506397917776
Ni 7.452902790935258 6.282164541095273 7.104500758607725 0.10802541354205913 -1.3823878103374063 -1.252761787806436
Ni 2.1957764501301775 5.032600323470225 2.5731736486270247 -0.23990680776610943 0.7216119838940863 0.2974948905932231
Ni 2.0899767517763417 5.447782607969487 11.547976951504312 0.27534946484443545 -0.9845473913448851 -1.0277151849816109
Ni 0.9284483775206298 3.206931514524794 4.036314972148019 0.8869526862178466 0.20602429608605163 -1.5529365392246675
Ni 3.380160984465946 3.0206843272642314 3.1183973722489693 -0.3436366792566082 -1.7190182334795103 -0.605378323509622
Ni 0.8617537562395952 3.301562758411452 8.349276023122336 1.1257822017593773 -0.13090951722908423 -0.29660503178910214
Ni 3.9874479735360437 2.9213980424047117 7.036182794271183 -0.16890450841561877 -0.6292196489035937 -0.18167594914867422
Ni 4.114664504232731 6.783997999242002 6.044107021096843 0.42294184204583934 1.2804667099208722 -0.005837689727699623
Ni 0.7290969310830402 7.351257101747027 11.21094743023455 -1.177033800845502 0.2247126165241743 0.34986723354735233
P 0.26571174285814697 5.415935204366507 8.074804422339525 1.4098615902776428 1.9822799139214764 -0.4941727124673683
P 8.469760508263358 1.6076926437817856 7.974993420532772 0.7528737701218453 -0.39601365019642765 0.11528389487668533
P 1.8431320448455781 3.335423398912675 10.439851280166616 -0.5324117013439089 0.7052865072611854 -0.6706144098002966
P 4.14011692004129 6.309885264540315 3.742777744648767 -0.9426990878505314 -0.979796506923461 0.17934961500834273
P 6.980120067940103 3.9391485073166503 10.484822984218914 -0.2295074668096563 0.8345865139113047 -0.3356598316987187
P 6.380257459286603 7.948805854417929 10.380959090574928 -0.3302054934523668 -1.536562211631702 -0.48197925572496997
P 2.4792238079982334 8.529055345234696 5.948709654028545 -0.3113155985263993 0.2103586617953474 1.2252448133330898
P 7.001218061860154 4.019167841769904 1.6711214486464392 0.05533631067845954 0.27055512877958565 0.05840157986734458
Ni 5.502331307275735 2.889441322771058 0.6316471555388415 -0.9342617557164556 -0.056288647289399835 -0.6586546663352592
Ni 1.5321188279092677 1.1771696763112947 7.21848367282442 0.5084708742575953 -0.3498044986302169 -0.3904024746572373
Ni 6.672677841339137 0.6895536789206216 9.177903378200067 -0.1598321138007054 0.027613905062526638 -0.5982802790122599
Ni 3.037309473595878 1.6507085018519434 9.332752268550335 -0.7497817614600829 0.2587175127147093 -0.14377120368310078
Ni 6.672413660931676 1.7749188417050994 2.607359504319503 -2.8775745443461154 0.6356360939528989 -0.3328025647555816
Ni 4.131271431225932 6.893751294038542 10.541767526530764 -0.4850856625644356 0.03283015915614346 0.5002106911313321
Ni 7.866099167543943 7.500063548501799 0.03246503917628726 0.48131488266809375 -0.7475562145636738 0.303780980712251
Ni 7.6419284273087795 4.147340887734987 8.259972113797184 -0.9965320745105869 -0.93775408514043 -0.2857459775874111
Ni 2.5904073208627563 8.478624216417163 12.475521649838036 2.0344224002529865 -0.5638426661596806 0.23132549385500162
Ni 0.027663332528938635 4.963904307860936 10.141366591312453 0.40321145349644755 -0.8811018838640245 0.9788212874943851
Ni 8.877800812091929 2.3651160913131855 5.831540177517707 -0.7687158793604245 -0.08416197666090022 0.8358358129373734
Ni 3.5989570198596454 2.676338830641621 11.457299304060358 0.44601132227079315 -0.5171213508437417 0.9660387910177362
Ni 1.022469273569359 3.2722205138447475 12.748032849804098 -1.005957481589545 0.8882696052570573 -0.4964951899529578
Ni 3.424689047627092 8.546773651873082 8.251278756457845 -0.06082690147938557 0.2018102580047041 -0.8470090559453736
Ni 5.789194791102348 7.886714348995185 3.5895959237662756 -0.07617741579352687 0.5860225446908295 0.7931441876061179
Ni 3.391903348094161 8.381387607132778 3.9676645048848447 0.35300886450012753 -0.008397994255708117 -0.708766752500302
Ni 3.555194168913217 4.763865081397024 9.713660333565656 0.2323405653830773 -1.5287558282134057 -0.32528774443577524
Ni 7.35097470200112 6.0829998428767516 11.41259451331629 -0.08451113247020284 0.9238652429734799 0.3556596718594133
Ni 0.4538792483908801 -0.003202959698743644 -0.006508858659705158 -1.0551095178341634 0.48695305479047757 -0.2606787502061382
Ni 4.490611443389304 0.32842817158957616 1.665015237366383 -0.5255748809277335 -0.43119328342135416 0.09503825725377181
Ni 6.159466406333106 5.664310335726704 0.3964063452641064 -0.6565491899564821 0.15306291339767186 0.38318795918666904
Ni 8.079985091226543 9.02160605044337 11.010113840614405 0.4776150652190032 -0.21385767608754136 0.9800993828758604
Ni 0.3030249479948192 4.762261779613808 5.93841663877368 -0.44968671423985135 0.1430096429267279 0.14819710066493832
Ni 8.066202161692416 8.683099851792589 2.456124419749928 0.03609031796465397 -0.09501383177373958 -0.2508622783363486
P 8.59192117254138 1.5424400831387233 3.2731123504616613 2.2617811961507566 -0.3747614256858707 2.508652608160157
P 1.5595116032622887 3.069794554044456 1.5211526080988365 0.9707842761225216 0.8491595266294731 1.2645551808969382
P 4.776281560547728 1.2553215285738706 8.078763484583762 0.5653249071321619 -1.3212264083367375 0.28413106769180746
P 8.235277622467962 1.570652728721798 12.337152151111853 0.6286889732111043 0.9386665696523704 0.8424762010720265
P 6.160668882670518 7.689890835766929 1.4883277369882477 0.6893839770983159 0.03954382373089319 -1.0459533052561922
P 2.0589674377418614 3.1316400983981834 6.10303838226619 -1.4462393575757286 0.5356641468429355 0.34618335693786184
P 7.0523961835539595 4.025772351956449 5.837393139993369 1.3262799116002448 -0.38417911945534483 3.1427067023379163
P 2.3075520914941836 8.644975886095086 10.407732408420797 0.22301594554804172 0.7541305253470819 -2.2524601758601466
