# total energy = -340865.79383022484 ev
CRYSTAL
PRIMVEC
9.25867843554877 0.00000000000000 0.00000000000000

0.00000000000000 9.25867843554877 0.00000000000000

0.00000000000000 0.00000000000000 13.55101177198453

PRIMCOORD
 96 1
Ni 2.331279730837084 4.572491035811823 11.054319744025873 0.7426605770342695 1.1584794348820824 0.042367666332933485
Ni 9.138093614711476 1.2271267503025702 12.456794757457738 0.5162885705298011 1.5153228426369514 1.4447031234368601
Ni 0.4023562496283999 8.70251907783915 5.739354898547286 -0.24684081588178128 -0.7652883417361143 0.2220355839126434
Ni 4.220133502604253 3.3235323212634253 11.209315579756874 2.4349671055505486 -1.8721446531252661 1.5438813710009345
Ni 0.9068922026551776 3.696777433494993 13.407236080989367 0.16217670277348198 -0.2264046595146165 2.3965046878092924
Ni 7.864988266255905 4.750229889767356 8.876386878253047 -0.801500272880297 1.507419528629475 0.6020382033927953
Ni 3.7197482152142034 6.860680876233267 0.1842486309111061 -0.2910007982284472 0.9858560828539796 -1.2314689398659306
Ni 4.293499272190316 5.810691165774279 1.9454650364765358 0.8585376254102632 -0.5409549629282296 2.248963732671114
Ni 6.504786527783158 4.407964316283261 10.805454794848599 0.2998155683065998 -0.06597836377333799 0.613542347377653
Ni 7.485900927799097 2.929871822618775 7.659153951950939 0.30497474391003604 -3.0074661618336465 0.5259196658616621
Ni 0.3288414153161465 8.249834502830145 12.03870523520723 0.6144599740959159 -1.4559182754263893 -1.0057206829883905
Ni 8.730461769990935 7.654232964250915 3.9007942691818696 1.6393975963323895 -2.4392505634172506 2.1705340305083007
Ni 8.249640070578591 5.216034012416878 4.419987636372163 0.7416935851353098 -0.539890011998825 1.8362718504880566
Ni 7.433876412490656 9.116900499292182 11.517587914594424 -1.382093419025439 0.0014436744250620299 -0.6506474797600666
Ni 0.7103702673317437 8.490754579861813 0.635061101098014 1.5650415500183175 1.45086888592794 0.38732075040812003
Ni 1.2935022175113644 1.5154790380345662 6.047884624651178 -0.23410562770330007 -0.03932399441060325 0.6159141900439393
Ni 4.557334578869321 5.597797109002204 11.606374013464384 -0.6767164089329765 -0.2154823561751579 -0.9113282868487338
Ni 5.47931379837716 0.2797880099850109 1.804032239093167 1.862633114090405 -1.0863183393368 -0.310019248312479
Ni 2.5989759065112166 5.601482063103069 7.174651001909189 -1.233602698379482 1.4904355924769688 0.9016015464792732
Ni 3.6806210392587895 8.022126560225447 2.4428273652888666 -0.880557067104148 0.07892901039673503 -0.5966491711667402
Ni 0.5326434496584497 1.9525719982047365 8.51050982248748 0.211439553564352 1.3679778055596634 -0.1752394494947111
Ni 5.440658815032662 3.934049591140378 1.5274699527482094 0.050410848352384144 -1.4236717566878576 0.8988149848730714
Ni 6.128541603670484 5.920712044117437 13.307513630903477 1.3139949235853048 -1.9377175539300693 -0.12225852642230557
Ni 1.7711389314696933 5.771999147715198 3.8637864047683848 -0.18807491069648255 0.6995516616599372 0.9050848770421832
P 2.7277548677899324 6.744410389804472 11.571724334501878 0.6648032024351583 1.5116333096005063 -0.397719834254257
P 3.5503143960035843 0.15875393339316288 4.170174598501599 -0.8107210201476168 1.5081101269385964 -3.272776240164209
P 6.0352048642463165 7.399406351893872 1.1416228530124028 -1.2726819237691307 1.3175361039693438 1.765672957223572
P 5.931452111346088 6.262061008415639 9.441925487270698 0.19905840629117977 -0.8859512415365257 -0.02073568988545461
P 5.310259584991003 3.877719790261831 12.939346903908906 1.6035350781078255 0.11440997691216426 0.08134533314771152
P 8.571462481613668 1.100884666972691 6.8826406102444 -0.1723942667364321 -0.4702683950459449 -0.48641749400198164
P 7.302236519510515 0.9454221938379639 0.263951040162073 0.21849517485955272 0.0677313419087027 1.011378138384484
P 6.987672912533423 8.953966272490625 3.920944857385694 0.42960588432957625 -0.46209897186127513 -0.9508589979535044
Ni 7.489252569468728 7.146311112443518 6.33297045055708 0.8447416000674354 -1.8640117396054865 -3.122749542489699
Ni 2.9677490769570616 7.61153193833838 5.093703720814675 -1.9366212355420969 -1.2816535311401218 1.1625736595561138
Ni 5.217746867966276 5.205525412154361 7.394015023318662 1.5699762683157736 1.0958617600508611 -1.4068629126606351
Ni 4.038293054008813 0.6538784395769026 6.058752461645135 -0.35529226121766555 -0.5797310552551629 2.1835908636922587
Ni 7.306791789404046 0.9850215624042928 9.484745950137759 0.5755486417426992 -0.7419483814585932 -1.1227087050403761
Ni 8.65284626690664 6.284652184310389 1.21536082148001 0.22597579950731406 -1.1034413721703318 0.8717710933814018
Ni 1.9647101259088415 5.405836924647353 1.5444633315339567 -0.3605781922069532 2.4358510508173983 0.748274323676621
Ni 4.261084638252809 4.612368164737514 9.170498064102475 -1.5326253384711412 -0.025055657417047173 1.6233418284211074
Ni 7.74957883694113 7.897375124157476 13.453309117664553 -1.4080918999717298 0.7017332426922882 -0.037213375825503645
Ni 1.0060757976439074 4.702510660029021 9.093067734591086 1.0641675142713736 -1.5656912677871744 -0.4373397626387242
Ni 0.14041434273237632 1.9412208581854895 1.3738962500571417 0.32530934170233006 -1.788379397682152 -0.16875384177036742
Ni 7.673241031509898 3.654641186979828 0.5211719468168127 0.29018627274695186 0.9461423092041253 -1.217497308177187
Ni 3.174078730569556 4.294064051587684 -0.006961600473468007 1.6523574989271672 -0.6708604643728318 -0.8041346251793506
Ni 2.6299647039373335 9.029693005131262 11.320949319920057 2.8489342549016032 -0.9865903899168428 0.8025132875258437
Ni 8.253500939573719 8.683529527937457 2.156440695033287 -1.667904702633147 2.2920284250710723 -2.2073000343837403
Ni 5.088699405006843 7.967639236397333 4.42539470470107 2.223068610071907 0.11630282305950293 0.2989367652460722
Ni 1.0147604382132824 3.7521443317944194 4.853186396304082 0.11385847528406842 0.5906001367591828 -0.6574357063264936
Ni 3.5202236904060697 0.8695056582850966 8.887905600355774 -1.055244500750131 -2.008790301507179 1.1859547574842157
Ni 5.694281799165803 2.631279436304979 9.334181318006442 -0.2852950060929216 -0.021854633981246232 0.25909315088657314
Ni 0.1848004481583713 3.979352305752266 11.385099926650366 -1.8612285204333947 -1.2637650808954752 -2.899820500228509
Ni 5.613731294950918 2.8302762164303252 5.945858615318313 0.7645717752850638 0.15800071701892143 -1.4755825866245362
Ni 6.622242125078563 6.474343992397119 3.305539005183977 -0.727437846547244 0.3914705109104355 -1.3015620971385906
Ni 2.924492530325804 2.246775770840618 4.594579465456128 0.8119512930102919 0.020045348686649346 -1.6118371702156176
Ni 0.004142332825947049 6.672979684055295 8.13306034428304 -0.02038961939994553 -0.8165980477536839 -0.10551833084948924
P 9.027054281717326 5.496062748046669 12.650032639465653 -3.454636794519863 0.9849124879937877 1.3394066787901902
P 1.2856878927346558 7.370334100947351 2.365370185609406 -0.26537229902706555 -1.5376927256917194 0.1755245848352977
P 4.502134336785512 3.5842844879535165 3.6290289042430883 0.20688227321097274 -1.2604241894477002 0.11246416603970309
P 4.540696733343557 5.879779425826172 4.16722108001372 -0.5896280026539007 0.668641602344642 0.2143510707841921
P 8.903950890448234 7.962167357317908 9.920614912991008 -0.8422260327344335 1.2969587940386245 -1.1086938788185228
P 5.0295179311055165 0.6488630133546953 11.355409195970333 -0.04849717626943906 0.5611926301313432 0.684823354310827
P 6.939444455469592 4.404899693651636 6.408070370653425 1.2720543174874608 2.3639686628548 -1.971359924574863
P 2.0095036131952337 3.3912873315903824 6.77411037916315 0.8485216359351581 -0.009286567508248524 0.7130262991076042
Ni 4.178487966057293 2.509111171579071 7.519958051328295 -2.0636185622009684 2.6626071801341626 0.5565433042847899
Ni 0.8708333528028455 0.5052877577327832 10.36347510408939 -1.3828421242660054 1.0329800329249759 -1.4713104416117433
Ni 2.687062975143448 3.545509141786627 2.3797748378459023 0.30656240011213015 -1.0726909783613525 0.9309218927099451
Ni 7.543869514797877 6.676257256295762 11.196035856975792 -0.6965820375086519 -0.2514891132870701 0.10195735297110828
Ni 0.6136874414451334 6.22948897694116 10.729298459518816 0.2937403086467973 0.39074905936337867 0.018618129321819547
Ni 0.9049784337791758 8.798309367104345 8.077026821121146 0.745001052241988 0.892757980045714 0.35110779082267274
Ni 5.163194733387644 7.679666554489798 12.116569796747086 0.7590320764137573 2.1453621592283634 1.627825061003442
Ni 0.25764773174029215 4.103964861640557 2.205210784797873 -0.8898567472385192 -0.1443576723141901 1.4796079057338454
Ni 1.631453246746709 0.1410189344479202 2.7609370461871423 -0.4068979012090992 1.3376004788193867 1.2341531715663134
Ni 2.1438007469466016 2.3068553365705475 11.918481292996853 0.17664969957867643 -0.3023177659031632 -2.0627024781446024
Ni 3.478967018362216 1.3973382985194023 1.8749583468561695 -0.41788011125221575 -0.14732601091389466 0.3042072696163922
Ni 5.09659705789136 7.767901761980355 6.910067593995636 -2.4163788010253997 -0.4431617686371401 -0.6578918200273056
Ni 3.681658011267073 4.362689377707308 5.729693467380823 0.9804259129773438 -0.4508133716451268 -2.1924138613005275
Ni 6.675016593357281 2.1282091321077665 12.064316592076105 0.2109610712660367 0.43225540613728136 -1.2669465639472501
Ni 5.14444590913073 8.265852016886669 10.027667458960455 0.028414803697267194 0.40345493696582135 -2.664015373335599
Ni 8.056300343105578 2.4729467727901815 4.864190335874127 0.18371354840399326 -0.034622475169875856 0.49953243411738485
Ni 1.500387391842582 6.384192238426966 13.237916143526087 -0.3130109839509512 0.9352927680841312 -0.8222742722028548
Ni 5.690726466565973 1.4075135863506847 4.130958539231189 -1.7845206860576945 1.0201800529468301 -2.2807921900356205
Ni 0.10716920532037795 4.376799603962881 6.96909537383145 -1.0351644421708042 1.0044150768030897 -0.5121421524615954
Ni 6.490907768493719 0.3394750077403758 5.891411103808375 1.9829774542091334 -0.059520009742503946 2.5542678348961108
Ni 2.5831157899916657 6.775834345126922 9.367732917681602 0.38249016178869616 0.5898478319741906 -0.4059244815522363
Ni 6.840284007177475 7.9953041681897545 8.128466187939198 1.0843817844357198 1.2808868281774264 4.198689109695337
Ni 4.802152559610699 1.782101206985834 13.452875811503949 -0.8048707320144267 -0.293699685216849 -0.14994827902809013
Ni 7.140237419252143 2.179335555587605 2.284863197184155 -0.1593178931684482 -0.681630301294826 0.523810075717827
P 2.867209085546782 8.08322458060637 7.213380054682852 -0.5158080313489569 -0.21401554182164434 1.2683287890067576
P 0.3837879696050722 6.497083307150195 5.883714364250462 0.3045821364573077 -0.615225648617347 -0.6015941738768413
P 5.5218111333594955 0.7750717654414513 7.887109101275468 0.623311768059591 -0.5595430103430621 0.9157968641430485
P 7.357112707841735 4.4091586858285154 2.684848299211471 -0.0995726547890156 -0.43503348310305073 -0.9482362156186765
P 0.752549103768678 2.1719749060645204 3.496581654485069 -0.06408191808157351 -0.4197156217990578 -0.1129894424155538
P 2.9359825505247317 2.812166240999944 9.748083139905642 -1.7579221096335595 -0.7184932357594465 -2.2831979712636357
P 8.622292627376854 2.2677651953297153 10.576456192440734 -0.5085449220286403 -0.9006109004312296 -0.8520134511385005
P 2.0283450242386003 1.5340426887185712 0.2059796755596987 -0.2161115051187246 -0.8236356713267557 1.9176950880615553
