# total energy = -340886.1103790885 ev
CRYSTAL
PRIMVEC
9.15212381273315 0.00000000000000 0.00000000000000

0.00000000000000 9.15212381273315 0.00000000000000

0.00000000000000 0.00000000000000 13.39505831079030

PRIMCOORD
 96 1
Ni 6.606249866030768 2.1032586588786466 11.730440542074815 0.44872409321626594 0.28125168926148336 -0.2901693034660874
Ni 4.921618489204627 0.6254314108088288 6.179166937055627 -0.6665065582795102 -0.21734049242981923 -0.4015754605549213
Ni 2.9783297973795144 1.9860748692938044 5.078736654568483 0.37795756402566516 -0.45525855190067394 -0.6763873077283319
Ni 3.315210312127129 4.484833394083055 5.083719070614249 0.1441185597201905 1.2197418812369898 0.5923855107943797
Ni 4.087439038603248 3.1181010278184176 2.638076725113779 -1.9675302664161276 -0.6439785523803232 -0.11710629279740477
Ni 5.224132780124446 5.084599504897134 2.794825144687318 0.17665381334373448 0.6237491127073258 -0.8291740846464817
Ni 5.312139599918874 3.8136715676682766 0.3206858321741707 -0.6046740983537457 -0.5480254966217658 0.1205680260937601
Ni 5.902268524663533 8.055296431258705 12.743830469011531 -0.6352630268841962 1.2603691678400486 -0.1457183001071426
Ni 2.2555499942966235 5.669676457457255 11.57288765084363 -0.09311738608197512 -0.8325633128336887 -0.712831666598295
Ni 0.7126694522273477 0.6763977562821237 0.38500512586710683 -0.48461540779623635 -0.4587727357015195 0.7237724818805148
Ni 8.15776360621902 0.219324233735398 7.076876768302283 -0.11827948716989951 -0.145971039547897 -0.6235418817925261
Ni 8.954309524894994 2.9303726701204877 1.5149006700356316 -0.8973538269465126 -2.1110695565940807 0.0250811113383439
Ni 0.8627734301233957 0.21648799065570862 4.825636508972505 0.11567315989530401 0.6948452573232032 -0.9854642467321996
Ni 1.96704760449008 6.9969082585978555 0.20846340875099215 -1.2118334250231904 0.35446230911720245 -0.06121719493926876
Ni 8.1674648571531 4.110255282545378 3.613745259739273 -1.1091908730595994 0.0852076443165952 -0.3280462810175189
Ni 7.791257667628378 4.012666189422668 12.642134818064179 0.6539863143253124 0.5352026338254846 0.9799587435329381
Ni 8.618087963041015 7.481421677890386 9.191568259885504 -1.849992285397943 -0.11014580231917159 0.005601919567809707
Ni 7.342089749380573 0.9264053993397758 0.5317090898744662 -0.6846384919935306 -0.5438273993800182 0.3484559550221225
Ni 1.7793650074097644 6.958277145208476 9.138175686466338 1.1293691477796872 -0.0941360571544766 0.48402328273819223
Ni 0.2548994530805433 5.132712218256047 1.439219014989245 0.26481848340612457 1.5619402853851745 -0.4306227556298648
Ni 6.52235234969804 2.3541732773773996 6.7067584865572245 0.86622908051725 0.44723053938987495 1.864280676996157
Ni 3.11875082858853 4.9715799315151274 0.44651654806327407 1.2593792931229537 -0.940243170110871 -0.6106254308411743
Ni 6.354053950238835 5.921936438113848 4.697164490234747 -0.24882545041197796 0.9166160176102343 0.5954677492641294
Ni 5.309101094909332 3.331711590838584 9.714685336196846 0.8603638799857247 -0.6291615419721487 -0.5731387467496258
P 0.2656449613085629 5.774111338974956 12.659106515924702 0.24156491219482268 0.780525727511159 -0.21793750258386985
P 4.075449756788492 6.63157379181812 12.6618256118233 -0.3570637512957915 0.5593779455201077 1.2415864879159069
P 2.333800650415836 8.8450423221573 1.2461439867293456 1.5017332768779752 0.37319433830906695 1.8324283083722508
P 6.767556043118619 8.206590185212706 5.8272787701554645 -0.5263390127872677 0.5298791647300423 -0.6516833772237486
P 4.9088055162728255 1.868250431062372 13.036244476411682 0.7148777504940462 -2.1682231229869364 -0.2177387563095024
P 4.1934023247492425 6.205240421759489 8.381528450287641 -0.7148888062376397 0.7722470324421346 -1.4400396565229199
P 4.7438476418994115 1.2800068437633911 3.9148528692736515 1.9102329753565555 1.7270958682813224 -0.43520986077991497
P 0.6218730651831971 5.689417587895752 3.6252787658025984 0.19139060533327684 0.7415004952878972 -0.3457735230939529
Ni 0.9588313729807549 7.653856837181857 2.5397435643486728 0.2657196550641553 0.4549824154211519 -0.35451398829074426
Ni 2.1868175466410342 7.1656459599861515 4.697820697491325 -0.17976407683794202 -0.3223394604407287 0.7409160835393369
Ni 6.141761293005938 6.0589254230018454 9.170069006518295 0.7128581489608562 0.5609267780644661 1.3486762770175742
Ni 8.684898464756834 2.3909465096916684 10.312064573196201 0.41222137030454165 1.8112215923876485 -0.03208453923937055
Ni 2.343986963896618 6.238151457947172 6.952718145380779 0.9525266154639143 -2.11530802015546 0.3586159262742598
Ni 0.7049212644530172 0.2933932846170824 9.097682115940085 0.6980902466230623 0.5014659036946719 -0.3773029611608018
Ni 1.3598774257461244 1.0639526637626588 11.473831472320228 1.130430499164666 1.4409379999674732 -0.18112521885152677
Ni 4.146744799030442 7.147076301358562 1.4743540171929475 0.8486028827950546 0.7958621007579132 0.049101128402025115
Ni 5.70818859324084 8.298019899204627 7.9250516461945955 1.2924902167443095 0.7749842288676395 2.1913314268696262
Ni 6.89872427744617 1.175114356069555 4.749472537016471 0.0431816775937966 -0.7947621828255151 -0.3062631237041564
Ni 0.7021033256203733 7.748984009076957 6.688152219435544 0.18059171494555992 1.021413154022983 1.4254645869222224
Ni 5.4270902713641735 4.452087096118781 7.267434962593435 -0.5549443352287862 1.258930378510993 -0.5944840451946213
Ni 1.0271062144602086 7.880014961551668 11.248928104085383 -0.12281645580830462 -1.123209813046511 0.6671449631944575
Ni 4.842306186756778 0.8002259875444572 10.850278077258261 -0.506630735725063 -0.8294029128278361 -0.6182132704907611
Ni 8.811508941570073 7.304126741008352 4.723472269300791 -1.623258781788998 0.26146936442823354 0.022307919468580937
Ni 7.4321191884735205 6.562100022157191 6.997711815043151 -0.38552509196027795 -0.8952789466953549 -0.0323529624094088
Ni 2.6053258510877435 5.6970779152842645 2.608071488144558 -0.21272613358625944 -0.6847577911802143 1.090981034919792
Ni 3.3106250982422494 4.605064840800961 9.370901374676048 -0.6295438650122319 -0.17519162697591117 0.5587279706409345
Ni 1.4362518965431805 3.626144556687847 3.9317577566324586 -0.22899401750834755 -0.09047172092901193 -0.3943362624940048
Ni 1.8003508266473498 1.5138161433981898 2.610643234854441 0.17992348523394175 -0.05706383489252753 -0.0877149841194812
Ni 1.0248547920736206 3.864118072525481 8.51866753000141 -0.23113857465517615 -0.334348826196779 -0.9076379824813401
Ni 5.364114509404372 3.3904590717308913 4.719306222673251 0.5509539831224705 -0.16567366018314694 0.48156247990252554
Ni 4.529669647220835 7.18047240009295 6.418871119451406 -0.5761399954697948 -0.789901255188788 -2.0975429828625556
Ni 8.375456016330318 7.608672803350214 0.2112685346107043 0.8556363926030685 0.7060850919030807 1.114634412672674
P 0.13365212065161558 5.83699557969953 7.874807403267242 0.9000627412372435 0.6367856341763097 1.5424163564196338
P 8.529147626647271 1.9780301527173378 8.218498013128109 0.9932904276448378 1.160434501725924 -1.939149144170273
P 1.5909136319535409 3.4499753309991066 10.632862976489703 0.78561419777766 0.8886853526382372 0.826289564009835
P 4.131488209118076 6.571151472321156 4.10861247637305 0.9890473360977676 -0.3496659161698236 -0.5299418996471776
P 7.097874485300448 4.327572455592244 10.625080925858336 -0.6790481423899466 0.2634213459482818 -0.8654598064513934
P 6.26666032272043 8.159648943664699 10.510834052711933 1.1800080529824775 -0.2644986381728606 -0.6180985992897677
P 2.8130973593004187 8.983294300091433 5.9698157723229315 -1.149037315632576 -0.24670223342138803 -0.5650513417558011
P 6.968326176836417 4.309176687311587 1.5383017346708614 1.581091661502645 -0.21505066795437805 1.3139622705751564
Ni 2.9876283548785927 2.181042556698201 0.4323444847883499 -0.4533027137258838 -0.604714721783694 -0.018824331795354678
Ni 1.3448587910453491 1.469730364389272 6.773532379778952 -0.4925233497894034 -0.9918148715405757 2.1604859022436793
Ni 7.010517466276133 0.9708389590425571 9.225310308889052 -2.3126671843673465 -0.4954960592644821 0.4001703526772786
Ni 2.709440408282149 2.0782733616616347 9.499533555575454 0.21800949347238585 -1.6185449212530965 -0.1650493963355867
Ni 6.368056699228589 2.362675600130002 2.662348156696019 1.0190351407091096 0.056874601699856885 -0.8715132117343248
Ni 4.146085846136806 7.084832709280579 10.522983496688337 -0.07570124748805672 1.3341544292523153 -0.855907643986584
Ni 7.522432343395671 6.523560430003038 11.788200508839022 -0.1397191451009142 -0.8036581997635642 -2.434336671055401
Ni 7.5378353672844005 4.2429244651306535 8.326421684132669 1.3256870152112523 -0.7469466060041329 0.30009324744801863
Ni 3.415664019912448 8.900348604605066 12.786720980688383 0.4459509013465029 0.24662021523054298 -0.8721924971895365
Ni 9.211429283142149 5.222265746925812 10.295441571241893 -0.3175998888732143 -0.14732652513452693 0.5048276210780532
Ni 8.757593781897759 2.573586286710968 5.47022056867732 0.3482626080643938 0.14824877983848014 0.12041478834534745
Ni 3.7425595678967816 2.96931495570964 11.503970330292882 -0.552844515276964 0.7992143050595977 0.5543524672810582
Ni 1.2267506369847125 3.618447620805244 12.891644585602196 -0.5268303506013894 0.22353427994535693 -0.7728237308812109
Ni 3.2199000977615757 9.042160758589535 8.119481188735858 0.046970712322583624 -0.15801485808630852 0.5016376533858458
Ni 5.866236614354605 8.211761135003039 3.776642991107724 -1.293888896864049 -0.16125213407668357 0.16732045175795054
Ni 3.3682102594471712 8.95082256583284 3.513376666702715 -1.600045062676696 -1.8765368686556907 1.0063017523028412
Ni 3.6039781135158315 2.89191544707804 7.507072334487499 0.9347808614447191 0.05352496850133363 -0.6513416776136137
Ni 5.226045573940693 5.187844610356882 11.664817985992245 0.47535326576802 -1.2572375641896023 -0.8877286451519227
Ni 8.12334246965009 8.903414565985177 3.1406994512207045 -0.6350563101900288 -0.6548239797352594 -1.0261614673412456
Ni 4.490773122249297 0.5877695073005044 1.7236358968552483 1.2347326982188669 0.4924981529784228 -1.7220673047184794
Ni 6.3265701233001215 6.021099696482465 0.41305546925187586 -0.019198684415637903 0.3570676079505334 1.1368829396582292
Ni 8.22008956740871 0.09043030210324193 11.03425955558599 -0.613366226811105 -0.8999187594602115 1.320695732644248
Ni 0.18316419369715123 5.2623520479553045 5.759178734235294 0.5813462222610827 -1.7243103351163853 0.45376396963301846
Ni 7.788832354894859 6.542798193647785 2.654338218188939 -0.5441032787492242 -1.259094157782367 -0.412583895850283
P 8.89202932432292 1.591801387935244 3.319764408792032 -0.15870982727080407 2.4332874038552803 1.06590378023619
P 1.9577765033615697 3.60316357452231 1.6758425926072786 0.43168642100768884 -0.00796193515955403 1.0684172906866631
P 4.972211428038195 1.3873063399437011 8.390958798365446 0.42793980948106297 0.17355769091691398 -0.10042189016318835
P 8.814355251985637 1.9426205868079538 12.450076590727653 -2.1098801642716696 0.14990611293624506 1.3816157080580722
P 6.619163512321319 8.060220273713925 1.7006631516008817 -0.5415805123273706 0.7397518880279066 -1.9874645434462093
P 1.8433749593276327 3.4805434235649746 6.49663030653745 -0.2985546993163052 1.3808993987173381 -2.0194470098900767
P 7.266685403676924 4.355623714189365 5.738188338935948 -0.7532987734744059 -1.3343331209220246 1.1057761909510957
P 2.750094140970049 8.998514281509708 10.36480093935879 -0.21061988587653405 -0.4968533446233249 -0.4012638428517734
