# total energy = -340884.8318569795 ev
CRYSTAL
PRIMVEC
9.10231690182093 0.00000000000000 0.00000000000000

0.00000000000000 9.10231690182093 0.00000000000000

0.00000000000000 0.00000000000000 13.32216086210992

PRIMCOORD
 96 1
Ni 6.802461747017523 1.7947311172458407 11.146625287455333 -0.29351096624481066 0.09357375689310336 1.0084355108163923
Ni 4.4905824988089105 0.446030819301674 6.0691763721200465 -0.3090558559579452 0.6350133727672355 -0.877663547606437
Ni 2.9322567543935736 2.1636207116052217 4.604431547082132 0.1556296456835836 -0.8012871284282264 0.09943304388735778
Ni 3.805223552741114 4.343570979611873 5.1281260643124105 -0.16160463232009586 0.5226499939714547 -0.23165048129458815
Ni 3.9830555167404045 2.621731215578209 2.2930902457984494 0.5634803977242553 1.1585362562619466 1.391190496230701
Ni 5.356640638678924 4.62006295578234 2.493122760557543 0.06433697151517308 0.4336605140149241 -0.08198862315866526
Ni 5.176706039490821 4.732440159423393 11.498796656484444 0.4695613416765913 -1.7776185596212224 -0.744055657609583
Ni 5.825901480774403 8.175163944223076 12.206096737282254 0.03505262072875899 -0.40766974637811726 -0.43319694411494425
Ni 1.8166403938669338 6.737034293609789 0.6835211882988728 -0.07450825562122007 0.2231463004783189 -1.1821510674674092
Ni 3.2551978533714525 1.5108844690729455 0.30308348457132395 -0.49025537969083305 1.0093215129657713 -0.6250480340244075
Ni 7.8524777101165695 8.744959875757681 7.061664782592184 1.2331044185868247 1.3097757432976347 -0.6944714189235522
Ni 8.780932231888364 2.5162626704146853 1.2411482324571828 0.2914998493520528 -1.3153722635488057 -0.4837301769778056
Ni 6.788544304577285 0.7021035681168873 4.9643298728722085 0.34552798274205004 1.0553154631973825 -1.4557002458783121
Ni 0.7898326080012891 8.068821576643423 2.4945745800926753 0.25658709663526774 -0.6425227937704031 0.7214181227157253
Ni 7.720302967360072 4.48887126324399 3.5394987071543986 -1.3700112910499245 -0.37680082471340265 -0.19310578825217065
Ni 7.947842683593591 3.9688103908941184 12.158310484131828 1.3488601108936058 -1.4428087346276248 0.8489283844552735
Ni 8.56580807581736 7.288789433178041 9.084421679790516 -0.42258728691989805 -0.1674477213644342 0.05206149658192969
Ni 6.883590696965092 1.0419149011161755 0.2652442432578445 0.23941495573135543 -1.3935440840645419 -1.165389274628038
Ni 2.0651700527212413 6.39545164975447 9.071845008620029 0.13636616946828128 0.5890775294670694 0.709562766039036
Ni 0.2521951618436365 4.768467129455085 1.5061103038931518 0.05636680882550293 1.0343368040631864 -0.9593706349689414
Ni 6.369892344082668 2.1857939554145203 6.807757474951943 -0.05184089593069136 0.19751060218808564 0.2962211660871221
Ni 4.0163790986721954 4.245265957797248 0.44300156825909 -1.4349203330184837 0.45611807168749186 0.0829306753569604
Ni 5.890154735310463 5.728106188702521 4.727728800229759 0.678784861426231 0.011266059832122532 0.5266457453944091
Ni 5.180765672799091 2.615004603437375 9.582496816057883 0.03758952821799978 1.2773075954666002 0.27849803777574617
P 0.35471091542598804 5.5956583764409835 12.59251921432861 0.4000101729503304 0.09852441603015935 -0.4410285243442211
P 4.118579912092066 6.244808306140392 12.58902938605419 -1.2911501577766473 1.1034084620498672 1.7115599774292523
P 2.6450968628928524 8.892699580301494 1.3845051714450938 2.5409770313244757 -3.0448741701684594 -0.0016691601723068028
P 6.199478768303648 7.910122682630646 5.4923006585514225 0.07822401390991045 -1.3450700477235544 1.6577424173881643
P 4.8966368528043205 1.1944242196813648 12.208415097380048 0.694274729531714 -0.3660559274920728 0.3178757682424203
P 4.246631305322451 6.227331857817791 7.917359934745906 -0.8460531197900075 -0.5225183534895969 1.2720550888184092
P 4.968281188610146 1.241228332845328 3.836529151030655 -0.9303680770890042 -0.7737845521325835 -0.13237221781753977
P 0.18046799495461543 6.132813399806397 3.2553362085873396 0.14208198890613594 -0.17908633404462707 0.49512530618862477
Ni 0.972427814400171 0.4117733396626441 4.53905961780709 -0.7736619105117902 -0.2531711289751833 0.7445014868977501
Ni 2.031045466907998 6.824498456074301 4.515146921250682 -1.3289528304467175 -0.14056298115844826 0.44219811917229
Ni 6.145347290087762 5.924006251618665 8.967599814839087 -0.19736044976346653 0.11465346038153804 0.9787361839797466
Ni 8.740645377578039 2.5093176026698187 10.04414994174293 0.9432459614929367 0.5160599994587628 -0.8819390350533391
Ni 2.295358543153654 5.363376353136592 6.826794970611693 1.6972304481804577 0.7005003987264516 -0.22665637051410642
Ni 0.7388842099824926 0.09039055732686434 8.421151325985456 -0.6417836016115334 -0.1432346144533404 0.9526191751777207
Ni 1.7579486549168686 1.0268778737052717 11.416358793376046 -0.49811549916520026 -0.22419968144349775 0.45819423749023025
Ni 4.107775462009292 6.678196917590369 1.596127666229794 0.5435324938474188 0.9549172271832779 -0.19994440844055886
Ni 5.793178651753702 8.06186740658172 7.88846462995419 -2.0088090705602566 0.3581556988083896 0.026005165814510053
Ni 5.669569189138645 3.1214302051688843 4.412645731375266 0.8981629531113693 0.366454191371756 0.9325769118148649
Ni 0.9106776969936509 7.220585773135728 6.595015395196577 -2.35227271457411 0.9345360924237647 0.910958819324457
Ni 5.486002765533502 4.530204883990305 7.051406471519492 0.20756310132808126 0.8888216211057854 -0.17841733300206045
Ni 0.8034469432909311 7.524766997117315 11.495000080132696 0.275916393091499 -1.1843285347347023 0.30709616112841304
Ni 4.800079475821955 0.3431327684122656 10.169911192057707 -0.30807472299159844 -1.214773995708753 -0.12909843216227443
Ni 8.264330239935676 7.727466490708972 4.960027207704452 0.9532159282214552 -0.6405790397804709 -2.0395466088534295
Ni 7.268372936517837 6.49972779141265 6.821065972395941 0.7420196010161607 -2.2137002814831295 -0.005859029883938297
Ni 2.3792910066863078 5.311474942545204 2.648138857179005 -0.340185230372898 -1.3846557804359765 -0.31118884314054795
Ni 2.5161079310284955 5.19814199563651 11.465517675905144 -2.034182516328039 -0.42261736882688505 0.823618444935575
Ni 0.584711898131606 3.321262468957614 3.533396513948424 1.8781240106371526 -0.47066923002878935 -0.08373671619802353
Ni 1.7473990697054658 1.2884602549005215 2.601085340533771 -0.284677941334213 1.9735934418910719 -0.7482678959187178
Ni 1.375596733958985 3.7657012930449016 8.355073056924043 -0.5908058250120858 -1.5812135317924898 -0.3879902656713189
Ni 3.7193249887721684 3.167205756530528 7.2668255426559405 -1.2734745948737554 -0.6760733760323389 -0.19490144670001272
Ni 4.1612151641457436 7.183657673737401 6.00194028835726 -0.5117724278270025 -0.7588826953200866 -1.0632118352263236
Ni 0.9515653042150671 0.38936798677406076 0.5074095621813388 -2.3349668763058107 -0.22873485030968996 -1.6310453677129524
P 0.39336936525458943 5.617249071972862 7.856530971803057 -1.6130661575267125 -0.011657638843586376 0.8532735487978466
P 8.335783427087973 1.9140989002159328 7.716648387150945 1.3949805594007525 -0.6721840682802617 0.9091541620155503
P 1.8174869093325594 3.142474761690682 10.438819117841513 -0.6981185287578364 0.9831381697021843 -0.17969311439069052
P 3.9140144435492994 6.1129612467899435 3.9260941282206137 1.4156357737572587 0.5892184259203078 -1.6600983192148506
P 6.700606821637369 4.09211947705363 10.121205604906978 1.1761313436358904 -0.5684020033955889 1.5168896729034391
P 6.618440207570645 7.732518276552224 10.141601166238463 -0.03636028379658899 0.8104428267855656 -0.22037670815298177
P 2.263991959341321 8.565626029480667 5.860911722015661 2.232290128670175 1.0832255593440894 0.018693462644445224
P 7.211392433132694 4.172574855555433 1.200987900350858 -0.1712221008052019 0.0466827487685196 0.8489931762549379
Ni 6.016604120777941 3.1128285157601048 13.077912092550205 -1.7085427878694832 -0.1693436528355664 0.2826280007837197
Ni 1.840543077874823 1.3503378047427272 6.8964832185297436 0.1787847436438082 1.6894114663566713 -1.2704347796061668
Ni 7.066829437164186 0.6357658830256847 8.993537776891213 -0.5327140630756761 0.5008113008298085 0.2641427974953386
Ni 2.6185180977355644 1.5381277033591652 9.246299102841967 1.0578690828571717 -0.15520489944133917 -0.808932046567994
Ni 6.577743749002757 2.2499288798317285 2.2343657385077798 0.11078626411664791 0.7407793008511565 1.3173242450688538
Ni 4.152094642677386 6.455854624269457 10.48956271373153 0.25537687837725054 3.1512723325197407 -1.935877158287221
Ni 8.261818000489303 7.3982265884814895 0.11343580308892619 1.3482276195159295 -0.11728241336395286 -0.45821840585994633
Ni 7.687898719428586 4.1988805512076794 8.2928450678837 0.7807327013156425 -0.9527834686697269 -2.3927549909588723
Ni 3.315619032520108 8.497522494923535 12.312207906014306 0.041325855331980445 -1.0669072818000398 -0.005768784162977161
Ni -0.032262251788866415 4.977510937880519 9.996709576632224 1.6235323471653587 0.03757153049587078 0.8838125979269682
Ni 8.562513037123203 2.3060173561670734 5.509299235240202 0.7277476644781788 0.7185675406408076 0.56789652451408
Ni 3.576464126051748 2.8441190204832947 11.608637954655352 1.082533418373071 0.12095343445763686 -0.5721301029794533
Ni 1.442271204773071 3.085985783414611 12.683029922237692 -1.2971089464632435 0.6463773916298029 0.8699070435894696
Ni 3.096398833873494 8.449480466670055 7.914709340083645 0.552714674567319 -0.07478413499042605 0.7900467796277169
Ni 5.580867111584615 7.759397418165055 3.4392885704262732 -0.4488169100403884 0.7103608364602992 -0.4151097475959302
Ni 3.2164492906061874 8.66720788535578 3.427778690788811 0.7576310823011726 -0.08457618138018337 1.2437593271975096
Ni 3.5064946165435047 4.414924041278988 9.324140295948848 0.6946375121877714 0.059525923279774906 0.11550629530013656
Ni 7.443537921684564 5.952378173192386 11.299484134986974 -0.9441494471438128 2.655951879601174 -0.18800420535954718
Ni 7.805409629764401 9.00508588625938 2.1313056663787138 0.7049134401924828 0.39740333145510265 1.1262064337809896
Ni 4.8893276923860665 0.5997789631880641 1.7658658500996798 0.6260548780223669 -2.536052854549981 -0.42696561849325176
Ni 6.025915790899827 5.766117463804176 0.1446667623804225 0.7981028171629739 0.6269406230614301 0.2593227503988759
Ni 8.678695009201155 0.20745727460114738 10.680988987923426 -0.5889672291414502 -0.8447197456905646 -0.0872123334514498
Ni 0.1561347713604453 5.026463197817469 5.240991152135801 0.8671284524030679 0.48931435593380246 1.388865961862582
Ni 7.1609473932348555 6.404153464648432 2.2066164154055516 1.1222909007766673 -0.36034550737085685 0.5796801474125693
P 8.50366655878695 1.473665095535908 3.447268571595244 -0.3732719856245378 0.4925691154256742 -0.42735771172534787
P 2.120821617848521 3.254069166083951 1.5562686208106973 -1.2778048468179928 0.8484221342428162 -0.3466217300268611
P 4.662343217479464 1.4279259534416033 7.975058610929306 -0.23103110254303436 -2.3902116557117288 0.6343711111975462
P 8.770719432399847 1.4072363872763587 12.437156319435747 -0.6912680814949063 1.3041175165705927 -0.5892780755136495
P 6.432907683529209 7.982440589882238 0.9605474704675369 -2.5044735370818025 -0.06866773768004303 0.21617064049143417
P 1.8891221428215503 3.519201450844729 5.95747000922971 -0.8627979433485139 -1.58302127442519 -0.9508582266225559
P 7.327419665824455 4.198425435365945 5.957044020801847 -0.9568396410169716 0.346077684597933 -1.3130323025617194
P 2.25164011539665 8.352204006657749 10.150833646203886 0.6353473590678864 0.6846325784562597 -0.6997138982694143
