# total energy = -381173.71268878586 ev
CRYSTAL
PRIMVEC
9.18293940025913 0.00000000000000 0.00000000000000
0.00000000000000 9.18293940025913 0.00000000000000
0.00000000000000 0.00000000000000 13.44016003801487
PRIMCOORD
 96 1
Ni 1.2104215685291202 6.196729950517153 10.432386322201435 0.027814193998790808 -0.04350100860642831 -0.38930229961452306
Ni 1.4051274262471045 7.018336694651746 7.154116550464786 -0.7795445945448123 0.2516824602447988 0.20221340698039367
Ni 8.996249947204527 0.15843416657049253 4.3859948591450175 -2.023540720343476 0.7970972587165949 -1.1857279861853902
Ni 8.07087599125023 8.988426083092103 0.719036069279498 0.029603938909361922 0.4593535479056541 -0.7156423965742127
Ni 3.914255339803986 2.717534716410707 4.810528561753271 1.042639667501927 1.1310467925924261 -1.0245115904426485
Ni 4.772520376822142 3.3052152699351063 2.206900858515484 0.8765314908845226 -0.5318188049549164 1.062146884296919
Ni 0.9766331220054132 3.2059936129694497 0.9361685008652774 1.026630436557864 0.30019377758162497 -0.5621557653755608
Ni 5.663540957606749 2.1823254768985025 10.593789332982663 2.6247304596930476 2.2568572764865777 -0.8607827126906982
Ni 1.995112897485375 9.282757647096103 13.230385624174 -0.4312351924028831 -0.5158255148504536 0.4218226408397316
Ni 4.732675604071194 8.966221736350507 13.14137172231089 -1.310376610106427 1.3242022031356098 1.9228025844914498
Ni 6.473356807938111 7.590167495291118 13.056859297194155 0.8732332797492252 1.6954409603802025 -1.605037630795281
Ni 3.1369011791879036 8.652055023892473 6.324804402132148 -0.41497476467996275 0.23755527681479732 -0.24282372430258825
Ni 5.664955130228008 9.143828961465987 10.948353631125407 -0.5760335517989177 -1.4186259667338341 -0.437517168756853
Ni 7.600874802280655 5.479404662791815 10.544235438722248 1.2808449191958973 0.2170270749544585 0.0944376475552954
Ni 5.655239580661172 4.607833547019079 11.654110252173712 -0.70762723957922 0.02741798700163665 0.6309762265833843
Ni 4.336615440727486 2.785809868612434 7.868917448231784 0.10423200793789791 0.28705646886871855 0.3269715598961014
Ni 2.4459401096160507 6.551200582681088 3.1902641565866197 -0.7477477617491897 1.4588336493009713 -1.2415330089701522
Ni 6.137803030318299 8.966754346818254 4.937243020087691 2.2941912370503457 -0.48886209888773224 -1.342756054878397
Ni 3.5868192803477696 4.536326000254474 13.02948220085804 0.46489941742454777 -0.47419318402164784 0.80876826729662
Ni 6.6966858868279555 5.982280773736128 7.810708633870479 2.57233009171446 1.6471900957936148 0.5295161249636687
Ni 3.161520638912561 1.7710583664067023 1.14611069113647 0.38745136244871337 -0.5762556951120527 -0.12900587244846815
Ni 1.3006163963603725 4.776009893679796 12.43695948354669 -0.12249661057504065 0.7222519314709303 0.9443206826143543
Ni 1.4624656979818162 4.621451845703029 4.575783252975439 0.3552405820441237 1.576209650819995 -0.41778240933208693
Ni 5.413480342999455 7.768279782057048 6.695094483482083 -0.13826492915289093 0.5385198711241758 -0.3652020641322098
P 2.712704490444586 6.513844386425994 5.396950134327186 0.7973204304709945 0.10611097012816564 0.7593809751127438
Ni 3.159022879477609 6.710432746659292 0.780525029486998 -0.6497622489416358 2.2280691486102917 -1.0255616289737175
P 2.959349051707018 8.700403198249177 2.019692870571906 -0.400621067061452 0.4627682300141578 0.12228629433644746
Ni 1.8337962063316784 2.3229162745055554 12.054788515590353 -0.30366296707714796 -0.9432577885674788 0.9421691834889903
P -0.13753930694442543 1.3262000646904342 12.69583020992565 0.36185911580190583 -0.3693700794669703 -0.34027933274860106
P 3.4997374688711083 5.349759928590877 9.219466075943453 -0.18458540948598534 -0.7204575585746689 -0.23528602116464642
P 0.3272937239001808 4.0722937216993085 6.348607498570897 0.6636536622117474 -1.541820374706848 1.375212889855522
Ni 1.0901250663310542 5.67320140953899 1.2283025875428661 -1.1522787053880088 -0.8229270752955052 -0.07418326818163354
Ni 8.140427571986729 8.08940716235219 6.719555996654236 -1.0649463014189273 -0.28036491578115585 0.050318031528261725
Ni 8.196985293898019 2.019383405524267 1.2588643271585442 -0.8097149474806055 0.6434195945530596 0.04280963896635853
Ni 6.421317092063574 6.191229369996799 5.298715643314681 1.1330090585251198 0.038270613445424415 0.1965778059611711
Ni 4.839721125149276 5.276167854650778 6.871308656736232 -1.2016803957495883 -1.27586314971059 -0.437785077706259
Ni 3.2458475686594954 8.90449401972643 11.173906817865053 -0.68202188030629 -0.7658760959187842 0.6529532450751077
Ni 5.300612838532552 5.972758065890372 0.7059200773642692 0.5740923689121468 -1.7065818074883707 0.6764523566383124
Ni 9.160817398799301 4.972855376207868 8.37539694447858 -0.40809834927510363 1.068345042687831 -0.027067545640753383
Ni 0.9545022387766086 7.5197894500357 4.7240418047302315 -0.20893812729873695 -0.4955647077188885 0.1911167828465999
Ni 4.587695361574777 -0.020526623768193655 8.804286115101531 0.7855334651383955 -0.31175371450508244 -1.2321785643384457
Ni 7.930487218303356 3.71715273498114 4.890457781965652 -0.2290341267176636 0.4035590666438534 -0.2111842430204363
Ni 2.0405684460258655 8.33093682653643 9.151686802453076 -0.4016649349449341 -0.6349709495650742 0.47017454978055795
Ni 0.5799283163369482 8.707767915406645 11.087432916956752 0.24460524168304323 0.20947445941818119 0.8942597614022212
Ni 5.742394855650626 4.448794224761957 9.268226564265705 -1.5470088608863226 -1.2356878630432846 1.0932546614453171
Ni 5.962904772237049 3.231182414918251 0.1574093505670342 -0.38673171067386947 1.0838397958893204 0.3493553269079403
Ni 9.074635515354352 0.1553358429184599 8.570050459443697 -1.17461850653579 -0.7943965719559802 -1.0621623109158869
Ni 6.674711113563835 3.620823703831696 7.542025937064143 1.3956793852399898 -1.3668822585026392 -2.594142559603861
Ni 1.9174160497679826 3.4954857680682303 8.463564179356752 0.6365994863074326 -1.9952413591781508 3.470416683061939
Ni 3.1220340007864786 4.778608665444838 1.9754485516985856 0.10474391457730993 -0.37952516562310123 -0.7091416193412174
Ni 5.314267868972898 6.532237813441469 10.00090297128299 0.5187213483410099 1.1953426264570188 -1.5306196208950222
Ni 4.575509601390286 0.8622293118272325 3.4238267028084897 -0.7513305940044415 -1.173892684113359 -1.5032222027186757
Ni 4.039473897359164 5.235836386127579 4.200668455422843 -0.09074271520221146 -3.3125560911653076 0.7372103525529755
Ni 0.6719744246905768 7.903268986813656 1.5534677061598783 0.8890113685190884 -1.4281192509362501 0.7555716286689825
Ni 8.613128545051435 5.499671409383505 3.1236006101967835 0.8410574663476289 -0.15818172268147596 1.111827025130866
Ni 6.137628554475416 5.564475410605776 3.1344603539753657 0.15816552473155984 -0.9339527091164689 -1.2069503858992763
P 2.634374019929357 0.931847928019156 8.267082341217003 -0.06435265524445692 1.6419794981269529 -2.2962584039920193
Ni 2.2901607307391045 2.9385956093430767 2.983930861381369 0.1601355039737371 -0.4881812707706238 0.2940825224775645
P -0.09892045656320658 7.23068297837908 8.915301420752147 0.983423562153087 -1.3220062239255554 -0.12273572316904023
Ni 7.654769471853209 6.73766934402719 1.364901561523545 0.08626873859125787 -0.6852681551577294 0.8811373650876503
P 8.024933746937487 7.63378645601179 3.3107544187996765 -0.05625676561019989 0.24569358965121557 0.3515541343314719
P -0.01799121428293518 3.158462720192565 2.948125663540111 -0.1769913991888113 0.5938785504001385 -0.3248995078584211
P 6.465670687912174 8.065549886572757 8.47385917238074 -0.018943630982038343 1.044427355529969 0.5201215711226461
Ni 4.364549941466915 2.0913041845483322 12.396894320257367 -1.7368627178600993 -0.18646205768340793 0.25222470590151397
Ni 8.00492412264057 3.3685683667797215 12.368065401249687 0.4095348246113141 0.019127207747754154 -0.705481911101443
Ni 6.677915959309417 1.1924413737731039 12.6034020913055 0.8454229424051763 -0.32765213090289375 1.0111313124810006
Ni 9.084865309510736 2.522865590449119 8.070412252825726 -1.7303457426771878 0.37355377853101474 -1.0600038698119874
Ni 6.750002031237266 1.3201209590068375 8.333732113198192 -0.4848954009305004 -0.7187264348161752 -0.23561949324466516
Ni 2.3555340741855195 0.7006206032101849 4.380994748805564 0.7570266159479543 -1.0460124406289018 -0.408755009022496
Ni 3.731505668793016 7.160764080078616 8.067616966163962 -0.5458295174117116 -2.0855181904875373 0.7297585242606206
Ni 2.408400254578974 2.258323480882563 6.3500455468338135 0.7580002927151333 -1.0243120728373325 3.176926542752735
Ni 7.816802432256634 1.0466071179404715 10.425208937001587 1.1471375275067017 1.8734574583994186 1.0220019366469173
Ni 1.0156789790547396 0.7002936905782574 2.4119439507773133 0.2054044031138656 2.0164725006427853 -0.40393830436014305
Ni 3.691073187939727 1.6063439877863426 10.008685512169468 -2.3092131643804747 1.953576375339197 0.750403711314798
Ni 7.725909701053851 4.36349390347052 1.1872052618988034 0.4954595495995918 0.5103698910525211 0.1964003998430424
Ni 8.932529532795948 7.059705835293142 12.892271643133363 0.666148403609143 -0.2766352735353946 -1.1839744938293932
Ni 8.712350202017092 5.923041633607905 5.857221999321275 -0.3143299598726909 0.20460813246481535 0.017739583371608157
Ni 7.189800533509936 0.5751669624140706 2.85771411834612 0.21390344172381226 -0.7823838637658204 -1.0377337455598774
Ni 7.681914239830116 1.4820988217756685 6.046419011873715 -0.14028350224481645 0.006014838735512222 0.262367964983103
Ni 5.001414316806034 1.139832315674423 6.184610307494176 -0.3236034147548169 0.5164330665274655 1.055258641817518
Ni 2.5121307346422843 4.761179447034767 6.98472989243081 0.7130031591791528 2.5292620568803925 -2.6329387065354526
Ni 0.5219004058758949 3.715077390744746 10.583091208932224 -0.6780297284277613 -0.01668363130326804 -1.3437937521142922
Ni 0.6885982993416576 0.4617429718377628 6.308716811124453 1.7133456085747654 0.21079086423675955 2.021006898178029
Ni 0.9533635543283215 2.393303502700072 4.816912541014958 -3.3509274918546543 -0.14376451881488142 -0.6964115733690586
Ni 5.830367412219898 7.880697322508095 2.457748451003569 0.1827866657143497 0.3567832439408953 -1.2882057304363428
Ni 7.5879819557855335 7.950359098513784 10.31338736929807 -0.29312915742535967 -1.2051238742134989 0.3785059803299675
Ni 6.3549152594380605 2.155988807562315 4.0700833882581575 -0.7428184427683723 1.5994958750414452 1.2567552252365453
Ni 4.519190635895574 6.9812284377523275 11.94676960296777 -1.6467563506903058 -0.6270563227036879 1.1828889740746984
P 7.645154934616462 3.334765967955975 9.940180786490263 -0.37555743922460477 -0.48651750991495574 -0.9901369696175205
Ni 1.1423484409875733 1.5323294986476852 9.754141786694 1.5094604703189036 0.1403313247636164 1.7535098394984767
P 7.260334688730039 5.663853177536118 12.778607977846567 -0.10512469495549637 -1.8648195802187626 0.01485531984527764
Ni 2.9629487638338605 3.976249361661936 10.907066218641994 0.9644879015908486 0.4082281899847486 -1.745648434472529
P 5.729639753241991 1.4107290190975488 1.304359362337161 -0.34663715664582884 -0.5465681953499489 0.2306996873455446
P 1.867910825084794 7.139569856637919 12.307167822320169 0.8274079938849944 0.23551742044916213 0.0016480771263842583
P 5.704836634735352 4.046149894084202 5.233530550119798 0.24446974454644346 -0.2469174347559877 -0.1967806660005966
Ni 4.655245061587676 7.306524872398456 4.21491486714117 -1.607080886477555 1.9297980419726766 1.1865597380580664
