# total energy = -381166.0885214842 ev
CRYSTAL
PRIMVEC
9.26556279268372 0.00000000000000 0.00000000000000

0.00000000000000 9.26556279268372 0.00000000000000

0.00000000000000 0.00000000000000 13.56108772454135

PRIMCOORD
 96 1
Ni 3.3959955139641105 0.16376696781662253 7.226676563540833 0.4300887375032657 -0.23913804792088494 -2.2358526492104525
Ni 7.8959087005246875 5.7634487079913725 4.2997872241070025 0.8362381905821147 -0.1474180564070687 0.5069279552505076
Ni 4.4331177449719865 1.014254822235419 13.177539808501608 -1.3394308471599061 0.04361002338046683 2.1069560486463392
Ni 3.433159686000709 3.1664226666565054 3.319726961059085 -0.8128756045967742 -0.4895886926411116 0.392557316216711
Ni 1.4294817495972065 8.838809424317363 3.486569169139718 0.29756688148173915 -0.817049790579122 0.5174527660412315
Ni 7.898039779948378 4.682277991852109 6.61558675912912 0.519465425595886 0.14559565848634926 0.5592722731801787
Ni 6.853153007388102 7.020915285846008 5.908741996873422 2.823330181180254 -1.429374977720222 0.8006057860904857
Ni 6.783475975796176 9.027799106947755 2.453811018169049 -0.8331055584904039 1.623326916022772 -1.0395463732885841
Ni 1.786530208692277 7.4867692478644825 11.367405578801295 -2.190966330220723 0.34836776618369036 1.2213812166126254
Ni 4.062328456375476 5.854056645749013 8.98023341421101 0.7681427804657738 -0.063275105909562 1.0220461596212915
Ni 10.020798728322552 4.423222123995899 11.71176207009389 -0.7493395317163418 0.7369445004860986 -0.10517945945283178
Ni 3.533468667917492 7.763698386191548 13.128638021621837 -0.45982405978416935 1.0827833296003482 1.5888059994277668
Ni 5.017422660696739 1.547830782113655 6.196264453048765 1.208477878287396 1.7628046345368413 0.3443599305758779
Ni 4.636163286236015 3.6919931803518384 9.610091542451528 0.1149949028813568 -1.2485678043297463 -0.5764279590238588
Ni 3.8241756979968438 6.857294713920229 11.100956718457427 2.1527167998212215 -1.0150059649450585 -1.0368104624146597
Ni 3.3138470349622446 0.5773798341540332 4.682236296819907 -0.45970553192843405 -0.5716899301182412 0.010853397774736146
Ni 7.244808343211345 3.861821679294451 13.010317712349798 0.8420424559687175 -0.7303869018732388 -0.25100266056895487
Ni 3.190874486652662 0.6690783286428404 2.1861150130841853 0.3247138742101762 -0.23322913863561767 -0.3736319400671178
Ni 7.2572149316823005 3.860200205819904 3.458850311731419 0.4047664566883932 -1.2980823661201064 -1.6738920305648333
Ni 1.264406484325693 2.133460673306179 11.617837987441733 -2.189351934545752 0.24414218600369567 1.7923869761796487
Ni 5.961963389089383 4.898675208983687 11.364435965952199 -1.5687493378872082 2.165807314456593 0.22061736340887814
Ni 1.1186777139961934 4.397667702037051 5.49438325273772 -0.6481038874026065 -0.4277096957481279 2.487392156119484
Ni 8.639090220066832 2.374041009115275 9.071987502076087 1.1877241906798126 0.48253975621413026 -0.11014785920170062
Ni 7.770842135042263 7.257844989946696 7.9800353771655 -1.2819785185797083 0.3488123099202767 -1.607411016123464
P 3.1548036510160427 4.432024408572007 10.972859387412006 -0.10934336102253428 2.016026414244302 1.4153976896045237
Ni 5.919341800615598 7.827176756329353 9.273017783450323 -1.270594702222799 -0.6008310704585716 0.299925868632219
P 4.984835676639716 8.095257282266752 1.1766440008768129 0.5596664232948039 0.3753502083098052 0.6615798104018542
Ni 3.3622688656935495 4.719646006268365 5.306494318957477 0.9219420578088381 -1.1473447584215015 -0.198521045730471
P 3.9301922665440294 4.863391946177563 0.8411972746877824 0.5407734430450429 -0.03378686664245794 0.504861302529466
P 1.158742007161552 1.6332407391900363 4.3506273667060595 1.4222303962556408 0.2767651142450395 1.0349793227431916
P 3.974861544377099 2.1911480667491765 8.094707834397948 0.33874309860973273 -0.048537542589071246 -0.30648629545855605
Ni 8.408238725105011 8.210724724779864 3.8894284233939382 0.5096993473480577 -0.554226226115839 -0.1160426274195808
Ni 6.199504620329044 9.038528628567894 12.179199516779795 -1.2190335423160554 -2.2585367210715295 0.14744890964500412
Ni 5.798972875428 6.571303855261129 13.124990169582246 0.0760228924935336 0.3118262196142307 0.38697133748850127
Ni 0.2904244304166454 6.344343896638221 2.5372928116451274 -0.2570861477588734 2.4993488142607276 -0.26765903817871317
Ni 9.335425054538659 9.645450782871889 1.7592255219371904 -0.8051319560956134 -2.5358289114646326 -0.9679604335204814
Ni 5.428878504034867 8.575231961857845 5.7767790730646835 -1.8703425669195206 1.3897190538914967 -0.018085910967433366
Ni 6.575102735972923 6.854524310669434 2.928706316281594 -0.768179033020348 -0.5136909850059541 -0.4122743350296642
Ni 7.814306889722812 7.8376283110681415 0.540830895481491 0.08756637435675887 -0.011124649158251808 0.6138295396007686
Ni 7.4954140178744915 0.0015501286416661547 10.504323971544768 2.2436654603866524 0.5809086205030318 -0.7952326947040305
Ni 9.040557786801756 2.192815868037281 0.4004224112610453 -1.463790993306247 0.7868915218281868 -1.3164876081001715
Ni 4.338886972194074 5.435021572112719 2.9873851249347423 0.1344211299267685 -0.4161099067256705 -0.7087204726433988
Ni 1.2024661975980289 9.41158798002877 6.028825542729499 0.9915112242572278 -2.064769130865644 -0.09651072803424025
Ni 6.6420371610021895 5.117110849911838 1.3757998589144738 -0.41700825017022375 -0.15994035724379552 0.02376753473324294
Ni 5.500908988555565 3.5602461441542834 4.661691764619271 -1.9251201768810327 0.7499126306109923 -0.04201773919268247
Ni 3.20997081140146 8.693377151994637 9.16189774296154 0.4710752072179564 -1.7436553153019 3.1182069174243394
Ni 8.175274681844929 9.00307858563296 6.178838709256885 0.1869917049346328 0.0668427686561623 1.404151170156427
Ni 0.2599138589633132 6.82160376635479 5.516229596499349 0.1352665086461993 0.6754406275443464 0.005592149375796821
Ni 1.6594252194132793 1.3810599188659016 8.48374842842395 1.5159910723485697 0.7477757867736478 -1.652051280540658
Ni 5.389397941320346 0.7547569870378609 9.906239310955185 -1.458564711910301 1.0157153323072572 -0.4327179475959967
Ni 3.3192395924604496 1.8668348407145157 10.864722858116385 1.3873083875674752 0.036353341818053525 -0.39646667857344625
Ni 5.085024206241247 1.4601044343593503 3.6130941341929637 1.6376857558476055 -0.5759199090391888 -0.024272756504435618
Ni 5.092010440525863 6.213727259091493 4.986181036345454 -0.6464671231301318 -0.20922660507343321 0.3940413569614053
Ni 1.0924561715221037 2.3257396306992217 2.285503924623697 1.9209956131896984 1.1050475403151871 0.37124364234059937
Ni 5.2765341219292194 4.294449333428797 6.821186816032764 -0.9050563377970929 1.1594016895860355 0.16428912113079447
Ni 0.3789615149082231 4.316436513743643 3.4648849727255437 -0.7013084964500438 -1.3620498701110026 -0.5062764377094378
P 2.799126495202303 7.782007138109852 5.252344517357804 0.07920463265562488 1.2012751898913698 0.12410637826432173
Ni 2.733202016508611 6.805666998490679 7.256429211964349 0.1688127200327609 1.5537508075958466 -1.1471565536700952
P 1.0836168246951492 7.573504180408636 0.4959577752687642 -1.0187006401878262 0.416834700706837 -0.3645778002846495
Ni 8.432014159023216 1.6562563969658803 3.6548215958650707 -0.1536079872678645 0.2844948787891294 -1.1818633610236613
P 4.837263059330589 6.842210377825594 7.3611347033878305 2.6792255054171346 0.37921791879532757 -1.3369227360260716
P 6.845054905578083 2.859704744211349 1.4548332557326684 1.6616615499369125 0.912642634784783 0.3051014992958874
P -0.07688193315653966 9.612187412736912 8.707845328168945 -1.3225834365852642 -2.0297674179794787 -0.2416579861292612
Ni 8.741465422468321 5.539351808246377 9.762355314161585 -0.16860471778701286 -4.922744927144225 -0.2313229227518403
Ni 6.71101927539074 1.0361122846723017 0.33276434578399544 0.9111105144109727 0.6819177506282579 1.0708883779349752
Ni 9.027048596368108 7.552313838486995 9.689003560398199 2.3164680461706753 4.665106249315992 2.0412679624199104
Ni 2.033550110585999 6.1866440192852155 4.185616033817256 0.3013217205384811 -0.24124763806472005 -1.4174728269659975
Ni 2.0983534561915764 5.680920340918326 13.229600225709795 0.6152637009441339 0.7398999835699966 -0.15635495388538231
Ni 4.794854578799173 2.463444423720396 1.4571116576034737 -0.7187485463033622 0.8658979224300763 -0.31579240335083036
Ni 1.4296670608514404 0.2725632051773158 10.478557368199821 -0.7658760959187842 -1.094965730599153 0.03486287331545609
Ni 0.5810425110939652 6.5131161214316995 7.718157218907307 -0.6601849869368566 -1.7593786395744277 -0.13432599910980092
Ni 0.23323552424753705 2.1113901029269275 6.459810412595061 -0.6624141333776914 1.7377731454895105 0.40726891139527277
Ni 1.908835636486618 6.049661940155553 9.51561152603667 -0.555871732139062 -0.6331848041989289 0.9807820107651819
Ni 8.776461452830384 6.784495187694461 12.206090959437939 0.3484279299976644 -0.3900252938234767 -0.39346234452948364
Ni 1.9536809600112097 0.8920179596051446 13.663337894257003 -0.43055282162387787 -0.6724334652869064 -0.030600498494676328
Ni 2.7496947181354234 4.442346245432832 7.575209970503858 -0.9759146553705513 -1.4641805154351817 0.10314854506573204
Ni 7.037167082842315 0.46461793595273554 8.238238813252234 0.42572917498298934 0.2755039881444287 -1.28619692753643
Ni 5.76294836760494 2.2022760075659193 11.767714950197258 1.9313790133065514 -0.3114958328580054 -0.7009323440575477
Ni 2.682463795099383 2.2188891615079838 6.1480279335716945 -0.44878991345719477 1.916092776571442 0.230960397206099
Ni 1.8891926435378297 3.37261849924251 9.752821976687523 -1.353385252457469 0.7493690994026966 -1.932674077968891
Ni 2.6963065457906517 7.0353973603643825 1.927275032839157 0.3610451045410427 1.238703252830841 -0.36570111525581533
Ni 9.072273807963878 0.03899968000978489 12.43174725338731 0.001558859846687638 0.14486932184328596 0.5659010913506061
Ni 6.476322571903569 2.846593972974304 8.032421942181138 -0.21785419884144416 -0.9890763895634901 -0.35045164529591255
Ni 6.373484091366494 5.465310696617243 8.813201262094788 0.5811256216098444 -0.4508133716451268 -0.20933561984747176
Ni 2.1450333611330827 4.753103953220287 1.9947950414318025 -0.824631716691438 -0.5097829082007994 0.24871335031414585
Ni 1.7579181510385706 3.340819088015982 0.06979841046345074 1.1153342669531758 -0.0650054583371074 0.2413098587612231
Ni 4.439233016361704 3.7550638657303295 12.637157366255364 -1.7651263406914826 0.07752724495320197 1.0497616232586888
Ni 4.57071135124062 8.141455377947251 3.4680037611342995 -0.5214053229310762 -0.35233394992028993 -0.7278805905116175
P 0.4746247436813635 4.057491832639973 7.930360842355575 0.019732445431920858 0.6083602889560813 -0.5036464562857583
Ni 7.3399193444468676 2.4741739453405356 5.571518135756289 -0.6740645731324262 -0.4409585903382341 0.7688871148309662
P 6.98332489792467 0.41791672021699183 4.612627830392046 -1.9301608246287338 0.6704056362236003 -0.1743984416506545
Ni -0.2317363562007852 5.165968162090592 0.6744996093854516 0.1718831314279685 -0.6357985876726922 -0.8213129367308499
P 8.405885272176242 2.6087933059787156 11.397754929463444 0.16828307278153598 -0.09696195663904592 0.93824156629981
P 3.9533283766351257 9.21860483986964 11.488533353574981 -0.21854839669499135 -1.9952765832914603 -1.7414009720500845
P 7.1140434566612285 6.581801737813476 10.752247265802879 -0.30525653681651305 0.9109619046482506 0.1245342098303597
Ni 6.940434608132246 3.4765873784304118 10.129278083438503 1.193349764396706 -0.8071387021129971 -0.32051037765178997
