# total energy = -381165.7632028594 ev
CRYSTAL
PRIMVEC
9.27973294874285 0.00000000000000 0.00000000000000

0.00000000000000 9.27973294874285 0.00000000000000

0.00000000000000 0.00000000000000 13.58182718027438

PRIMCOORD
 96 1
Ni 6.633106763300226 0.8793085259996554 11.618818714700101 -0.3849615061473241 0.25602993858021716 -0.3430615234794285
Ni 4.758313021743126 6.180070197313731 7.1596063357314605 -0.6476164062432266 0.7272373005006636 -1.223453782870938
Ni 1.6115833942068152 8.911624569580976 8.9227853044829 0.034294402406495776 -1.6473849854132405 1.0413898542552258
Ni 4.804526092177635 5.565389961869663 4.422691061699152 0.7036829102194914 0.22235491492527512 -0.35160529928438156
Ni 6.331134971129671 2.7615743085836377 13.353571077294507 -0.22704049332640253 -0.6831824762732943 -0.35449650478924755
Ni 8.662640052948783 1.664719145473482 13.055938488283624 -0.05242685034114842 1.275793472814919 0.6208831040134405
Ni 7.882103149256523 5.841341382655004 2.5150693366141152 2.0500925026900756 0.8923556024009728 1.2793539364726678
Ni 7.975921250078389 8.608205139059459 6.194834252546925 -1.6471852106976084 0.806560975232656 0.05063376299646763
Ni 2.156480037348172 9.15860466388107 4.888452925574572 -1.7016128935188697 -1.2649930397653053 1.8113776583495382
Ni 3.4596700641352984 7.958391834405539 11.491910013905864 1.3197783630363014 1.7727581462051274 -0.8547362493863022
Ni 8.470800132247454 8.906678471881861 8.508254062685351 -0.31902993645152156 0.34486695211928353 0.16090863469433578
Ni 8.838658028852754 1.406260021428913 4.436354540596295 0.18703541368837465 -1.0147257147004782 -0.4939634246700396
Ni 6.787103932750163 7.036339002173869 7.855525065916869 1.0040666923247352 -0.4120025694255162 -0.0735695458570346
Ni 8.598136628733869 6.003755269953153 6.411084510954674 -0.3696778405153763 -0.7094264975714879 -0.8042256422312601
Ni 1.6310151551485548 8.882031500983455 2.7437460855075773 0.25931092332433403 -1.628445725306576 -0.2307732208959574
Ni 8.423659088511048 4.25380177670036 12.491559973642227 -0.6461588478610936 -0.6238097907419322 0.37242969222890054
Ni 9.322512588195274 3.834561998368982 10.013419334577133 -0.4347025821261933 0.22455860744481326 0.8410273844406418
Ni 4.291867241544208 4.006830962133286 5.947291806425881 1.2296725100871404 -0.7479750472686473 -1.2590602192206382
Ni 3.9672529008073454 2.6083751961733337 0.2610546653699774 -2.3598011617406716 -0.2528055181056485 -1.1046755016877492
Ni 0.9435818128356993 7.833458788771042 6.706312721140339 -1.0777953894674535 0.29947464002741325 -0.05776008962860375
Ni 2.471712568002847 3.912799427451984 4.328175124954259 -0.2822194524913914 0.568090385692441 -0.7429770798334236
Ni 0.9774899572870441 1.7676221049209269 8.438267244229522 -0.837080741088068 1.2732768770406522 0.024300524418577503
Ni 7.213229272981623 9.398235209630133 0.16575273523837744 -0.19170556547053436 -2.81887548784301 -0.17509855304147262
Ni 7.374353277390134 3.9367504183739657 1.4210797550602203 0.1766990647593731 -0.50854029404295 0.5071603829762878
P 5.0688128885581225 2.2280546181235477 7.5071787359572735 0.905112387846009 -1.1654990607330251 -1.8461729116518528
Ni 0.8358979349368773 4.209361135272476 7.918653233698372 0.30284304227901393 -0.13442087281645237 -0.9333107046570959
P 2.5968404880307436 3.535968029017334 1.793629484679914 -0.3018503393484414 0.609711403667337 0.07447663105233625
Ni 1.5190366168085498 1.8689567894881642 5.902322220215915 0.639387333465215 0.34186621761974667 0.8681394101660854
P 2.5111978319985977 1.3354649382271313 10.575788787019924 -0.9755369603161586 -0.9289549987915614 0.22832990156178742
P 8.864956792228536 1.263714042524395 6.7908455211034155 -0.2187923943849974 -0.8289084896899208 -0.10536226488759919
P 5.333851343313147 7.5680677041612965 5.5470355779314255 -2.22828177884173 0.4598258595563822 2.052516795860852
Ni 6.046163649849882 5.352902635201108 12.74086742498348 0.1448307552958667 -0.6179317346946004 0.14716737384884332
Ni 1.445058585181259 2.8772832995972712 12.658385446017597 0.3588177578724207 0.04251267655123001 -0.21497970550712653
Ni 5.975841833032068 7.858950215374174 12.26478371407105 1.17381092303283 -0.1885503076710043 -2.195511783499561
Ni 1.099509166753583 6.156174884789864 3.4046106242137975 1.1922231069914306 -0.044913829793554905 0.6605328571945785
Ni 9.420135379554921 3.2633944310508993 2.851980251574425 0.24652097064851736 -0.6439096468156007 0.631143605399184
Ni 4.603972502171487 0.39941641265623806 9.9779030123936 -0.2216694588224763 -0.20320251036654038 3.046733077754069
Ni 4.489859625237117 6.02594311160153 10.900584082550655 0.6766161359096863 0.9373877029399468 0.43600613142896527
Ni 3.800774490446884 1.3362444358007255 5.869834802889776 0.7411397695143688 0.0778882278370465 0.7677524870058906
Ni 6.47865488693236 4.940566978235849 10.187986888210236 0.7247970664902873 0.28774526740562706 -0.8853717148839718
Ni 2.7196206356048394 3.410496758867735 9.95792374720374 -1.7240349699678117 -0.011738114372534624 0.8563120785138543
Ni 6.07505145873796 7.825821568496423 9.947845957145132 0.8731060101427416 0.022259582729148762 -0.16843168254425833
Ni 5.298523399709898 1.7832213361258284 1.9535963063809587 2.7516192857985127 -1.665517690458209 0.12496744071303639
Ni -0.04461138851543381 7.815094197126485 4.555901629186579 0.5631932055011397 0.013231668198925598 -1.260212073436894
Ni 6.590355033281797 1.838110956933082 5.764507977177773 0.13047242969166561 0.3493090470510371 0.6161095938841971
Ni 6.1153069405742855 4.148272652808545 7.448586501675448 -0.3651421574285518 1.6863001744211992 0.4148356679989371
Ni 3.1116429569915556 7.047780912986268 4.633806843827501 -0.606056323413253 0.13198732367429528 0.6756843681240364
Ni 3.3979041611609824 0.6551584308728506 1.7218498218048188 -1.144391075109816 0.006198929721860292 -1.9567452599854815
Ni 1.9268623235265856 6.622045321541606 10.162669920587863 0.26477066088732465 -0.45677678831741336 -0.6572850396812422
Ni 1.9720639030620264 6.578226422225992 12.418774387707876 -1.952654891966192 1.2889809180394702 2.119766570147446
Ni 4.5822857661061365 2.4144194963436787 3.9965750012007115 0.7685767826793989 0.8722696302843752 0.28281157754943553
Ni 3.0186414726753603 4.7037017929264415 11.994614494929834 1.6060046226942406 -2.3425346613507396 0.1058111794995597
Ni 0.6953146195658734 0.5563608253130018 11.633595761559523 0.2733522319087486 -0.12210091779851874 -2.823218081082422
Ni 5.025652850286857 0.40810966654841646 13.537686548230838 -1.4335977575523182 0.1531477598019943 -0.7431853391894878
Ni 3.2915677004965156 1.2934834260492758 8.508824766266018 -0.484040766239689 -0.7347451788419346 -1.6594694273816002
Ni 7.928056387166501 6.446574849885755 11.414479921595511 0.44225005545614804 1.0390653198871072 -0.3840850170796417
P 6.378758560983066 8.340911709180823 2.013709488904595 0.6621274553752081 0.23834049172025404 0.48118555617908104
Ni 7.916122650504096 1.2830066074708497 1.843148923989085 0.5287741045913216 2.2901959998480232 1.6317681048115897
P 0.9607400391877892 4.962485707626675 11.612883397461164 -0.9197635621002803 -1.0947227613504116 -0.4018839929342756
Ni 6.476901017391774 0.9803109961248133 9.160833655752228 2.3296261808191883 0.17782186550990667 -0.02478054937878958
P 9.050106025423181 4.93256784837349 4.361165503810028 -1.4707098319132672 -0.07990500115675916 0.5378148746373512
P 0.8440353328212189 1.198523918066076 1.5159353300336074 -0.4066608454976286 -0.15000407196669005 -0.4124010904155156
P 3.177464103295165 7.798873223809311 0.06064583919892553 0.31020591040198836 0.10898777745532842 1.9406252144951674
Ni 0.5573611805324477 4.822500935035395 1.1914156425735392 -0.37112254338170275 -2.368346994428153 -1.2647955790425185
Ni 4.2137133300583764 4.953076058345432 9.007780235150321 0.18149391504485518 1.6178489236273363 0.3949219597941457
Ni 6.847245882446159 4.247389481184247 5.156231685490101 0.03875449506037842 0.5063859667041085 -1.4767336695098439
Ni 8.839845834679183 8.36889938396606 2.081550833086436 -1.9111560013914572 -0.9421789536810032 0.07565676740336648
Ni 5.199564326795519 7.230090547877106 0.5376269002942894 0.2790207430484356 0.36247386656776925 0.6855080390826775
Ni 8.948780620588963 3.2439533903761406 5.835880259773336 -0.4280015159569338 1.9727732599826218 0.14943662949899425
Ni 4.167760092148399 2.2046047327845906 11.559004339579676 0.6641396007092304 0.1592209625792677 1.3586868671760406
Ni 4.854432496353698 3.930653633780497 1.738622939236621 0.579897148519382 1.8217626011282884 1.4183053501696217
Ni 8.208146568878307 6.648167769990028 0.21607208753378448 -0.7591259216791443 -0.8034712805637388 0.32106059372830514
Ni 5.694656642824023 9.260505412162464 7.322003519510175 -1.1117799739430143 -1.2255340624387345 -1.115454337470808
Ni 3.893200631315903 7.864044788801592 9.034387085662335 -0.6427307960161511 -1.878353095928823 -0.9547580758975945
Ni 3.6135837159880637 7.175052451341549 2.2848976227312963 -1.107048629905616 0.6021695867643372 0.566063070849767
Ni 2.415412427776709 6.221606282306676 7.729254810754337 0.29683643107361785 0.5404862508219272 0.4525257263505432
Ni 5.143848809749577 2.873859078113269 9.516514686690025 0.03665596066013687 0.6518088470580193 0.19914376691613445
Ni 3.1651313381129436 3.4509749542965165 7.739129374659831 -1.1455038485580207 -1.3718604284435212 0.48097832526428136
Ni 6.737364563768442 7.422431574161458 4.169933405621443 1.9075281748308823 -2.6354031089155447 -1.2617531926717689
Ni 4.102597806889136 9.088459161990617 3.6513791406010587 1.6782433655549935 -0.06040935432599274 1.2860215783008302
Ni 2.440226433869456 0.3517761192834099 12.919862339239938 1.3341595714586376 1.7125393106233862 1.1450413070993055
Ni 5.672060492922811 6.017377918025013 2.3519242063540706 0.21530906382208725 -0.29538941421444614 0.2723114493490601
Ni 6.7558961906073405 0.28184776314560095 3.9022622906089346 -0.6303005406725983 1.7335377672519243 -1.1179045987835137
Ni 9.453356823762862 6.523466717681005 8.58337535742058 -0.645727673860946 1.0887290056608216 0.8662362796061017
Ni 7.680797900875838 2.6958552393432367 8.02418421353679 1.6869930867231657 -0.9445307417426314 0.5471706048206383
Ni 1.3654848745435244 6.738812202119403 1.3332387302758784 1.0065753176792018 3.029184270237028 -1.7683340489955028
Ni 3.620766229344753 5.510648816790711 0.6275837042069582 -1.1255490027026485 -0.6858330265222641 -0.49942059112986886
Ni 0.3033424087374592 8.44125346231503 13.346820999496503 0.10948065793134693 0.08320784027774701 0.43139948589488925
P 6.984270420204385 2.674094265413734 3.454809339979958 -0.1665079831589842 -0.508732355449098 0.02102185366730573
Ni 2.325315499895454 1.6368706666835298 3.625723462723491 -0.5150852942503195 2.1267252608534664 -1.2474046372595808
P 6.450110428165985 3.1079496232500023 11.24795325662335 0.6756031212641397 -0.4887232593170229 0.6512257208610398
Ni 8.508930555222435 1.6572860793252808 10.269830421544414 -0.8081290910507244 0.04459064212618127 0.06707905303668447
P 2.25145810479741 4.693317771678205 6.324921261900164 -0.43993477705941003 0.23817979777267367 -1.3771962388341379
P 8.097959019010966 4.892664996391886 8.424753169033986 -1.3564474363225607 0.12799465757513442 -0.4412789497921304
P 9.038172288760776 8.21684167871709 10.481014873697102 0.26289761223432784 -0.6444223247859611 -0.19470681419070338
Ni 3.0322641207472194 8.440678118867853 6.859081253938562 2.2679500439656297 0.3616809383528287 0.6618544042194795
