# total energy = -381164.20933433546 ev
CRYSTAL
PRIMVEC
9.30008279606547 0.00000000000000 0.00000000000000

0.00000000000000 9.30008279606547 0.00000000000000

0.00000000000000 0.00000000000000 13.61161123882631

PRIMCOORD
 96 1
Ni 8.593294856522178 4.652877789433711 9.791702561139658 1.2214714623335865 0.08186700997913643 -0.5255743667071012
Ni 4.134054085414887 0.23772312954463953 0.7726424863955832 -0.011785679781018412 -0.3386790781410167 -0.35957263376057425
Ni 3.451511728563906 9.208318614216067 3.507806988125574 0.47957038917316114 1.8994417982783225 1.1610096575031037
Ni 6.492582914896417 7.153065475989736 6.985124585689631 -0.0971506756110843 -0.33755036385321224 -0.16461693678385841
Ni 1.9339614618893068 0.8235762483795562 2.029218487195977 0.2305546771272481 0.0795977543289855 -0.7499491402758827
Ni 6.750743905805743 2.7705689859078326 3.3302851528045827 0.2635241900747332 0.15404713168781214 -0.15446570728246944
Ni 4.265566552450758 3.399700968797493 8.880991049525594 0.5286000409073026 1.9338727262626823 -0.3478409471459429
Ni 8.099060570708772 5.753031052145579 5.674503945299472 1.358699465581531 1.0375080027023165 -0.1722194317214647
Ni 0.6086690113021471 1.1165586082921857 6.020932949495283 0.48556080242864114 0.6318156917655442 0.7732880721121392
Ni 1.5543506932399727 4.30975124454378 8.56932575382141 0.9042024744372299 0.18635587112284677 0.9748345349324955
Ni 7.012531928901193 5.3634505950256655 3.643514722390064 0.6261559223766056 0.4864817715810138 -0.10322362127804158
Ni 5.625387419441574 0.7545482458280849 2.4604484339116373 0.04115153453764525 -0.14117438949020203 0.8012516472046007
Ni 0.17207198695927567 9.255916436597058 10.496975249698608 1.0586478700047253 0.5955698220596324 -0.5592894995713593
Ni 1.3901949365289774 4.640304077855145 10.974197824550835 0.1569023417484201 -0.8423201351101364 -0.2074438021413976
Ni 0.2332693200217289 3.751141787467925 -0.043022181776956755 2.4843939927231085 -2.621777033491678 -0.8107958392496101
Ni 4.953251854940013 4.870806623324639 3.00205455010059 -0.9903321163474623 -1.2758844898668285 0.47193164168098073
Ni 0.34978912401336604 2.4001466987966804 9.76439751883591 -1.016852531235494 0.5452276221616545 -0.24170555153774503
Ni 7.759068153630954 8.201863682979088 4.471019325629669 0.9666751390501545 -0.8642799272106793 -0.401746953135779
Ni 5.270161467182032 7.681579866003284 12.655612755353287 -0.6241844004725314 0.49997492097144214 -0.21872426015122332
Ni 3.5224155577613807 2.2402596799662784 5.457970123787825 -1.1862401499351183 -1.247579215164232 -0.38122697880555634
Ni 8.380843771240553 4.196485539428874 1.8417464935777172 0.26927111986083946 1.3393873955164806 2.2006352207690547
Ni 2.662613627916714 2.23627924464407 10.247120162495508 0.7386254877329472 0.7078694374970131 0.2447584794314559
Ni 5.303725465027478 5.046615383443875 12.466465816871638 -2.2216663304077415 -1.0828650906808772 0.3621182830005634
Ni 2.3849038635324282 2.376803491650083 7.777429306567022 -0.2987038232996598 -1.5883771394204644 -0.9406157229589414
P 8.79523684854657 7.199454287642019 10.812423818975395 -0.565738854741129 -0.3303232499771537 -0.32007200456279067
Ni 0.6811064241085757 0.5026378403861805 8.291730380452226 1.4593517265879703 0.788187614931791 1.462753810290984
P 1.1976367277758668 2.5302176530406313 11.817042913921242 0.11499156044724712 0.9916400365256082 -0.22299820493622885
Ni 3.3788315836034832 7.082477849598231 4.203415030920878 -2.5132291717872457 -2.031008489475431 1.1040484096267114
P 2.648728604701626 6.786632924283322 13.431352169230868 1.2291804009420702 0.1440843640481454 -0.7689233673855402
P 1.0110863723361834 6.375764578255614 4.744871415781122 -0.2599958652065006 0.34146923929164413 1.4512393818934812
P 1.5166016582566895 3.0205831045221707 2.169159619027452 0.06374844600155473 0.9348088864691771 -0.4613975749188764
Ni 7.966097290798451 6.540775942559234 1.691896123812099 1.387637745882436 -0.18590412829740888 2.4491217997843755
Ni 4.360855198038026 6.2167052667702505 6.181086880694253 1.467766175903911 0.6319437327029762 -0.18725909966340654
Ni 7.033392014012676 2.757009465581243 9.216285994918254 -0.13948260361007592 -0.2802623287650206 -1.218948695911733
Ni 4.857656306629304 1.3533015091383187 9.813971608754212 1.0643369499697026 0.11320901462552761 0.5097893359587026
Ni 3.606274401921091 5.220266524416495 10.472528122755874 0.5435402071569025 -1.4370111541092412 -0.5651842677892395
Ni 5.1011138670610325 0.8993077504175884 12.0919561434892 0.26568983026748433 -0.4644523025848 1.3135532080621957
Ni 7.969845224057446 6.685308525135041 8.738449614619144 0.8833513420198336 1.3296925368262198 0.2844198025768198
Ni 8.379188356550475 4.085470454285871 7.316649277625227 -1.6025652579953886 0.511385476801229 2.9495299516384943
Ni 2.6884678573460135 4.439152592845678 12.973988990610053 0.560040518804771 0.40851075422217387 -2.566013148357497
Ni 8.89806786106447 1.6826546318035038 1.919441243037521 -0.23747351573426842 -0.17985149434542572 -0.12688342678882664
Ni 6.972932177494735 6.174538692585919 13.41160158396504 0.21082326013659178 -0.42183781034838314 -0.9259277819294635
Ni 0.7545054654484538 7.94983144645606 1.9180118203528866 -2.3103863587529694 -0.8137014429321793 0.20688818674824372
Ni 4.464141914599825 6.180174542598205 1.214469877152497 2.4990762773256314 0.5645497195290341 -2.7935516643662406
Ni 6.763782621510735 0.8223728177003651 0.4299158450543791 1.0419608962673474 0.6846374635522661 -1.146927725488741
Ni 7.820830001702889 2.239245970970669 11.77765055435517 0.2600220904587458 -0.11933826745171705 -1.075201146377716
Ni 6.0914517552760765 0.07688378226331637 7.560515111679957 3.205479414689763 -1.3673874802738322 0.5549129677702185
Ni 7.918211165859075 2.5445118798869744 5.810197729440169 -1.3913532470608103 -0.7466121054828496 -0.44557500606432293
Ni 3.0959695734983943 6.417056944682265e-05 9.022809868019577 -0.3915101058991193 -0.33716161305522574 -0.3988688602570356
Ni 8.545511032490616 0.970779814657556 4.26419107024479 -0.9639952782251461 0.6320221513493954 -1.7015578719112179
Ni 0.5517804064751596 5.937191286375432 7.478586964653169 -0.004267774137418457 -0.06296734486115607 -2.3148425947521103
Ni 3.0227314235862597 7.650573390853182 1.8881622754693326 -0.6779657079590453 0.6351766378179772 -0.09817808843433415
Ni 1.45783443675894 7.706020482888248 11.646338969101913 -1.4221836021781054 -3.701203273694335 1.035711830033842
Ni 2.7736938136374167 4.349629998426096 3.954159799040868 -0.4092545743667339 -0.26585540931107116 0.8443312520028943
Ni 6.099914830377034 0.6072851590219026 4.780043397895751 -0.24358014285263857 1.0476972845304924 0.40212310552827524
Ni 8.891064898920492 3.9860060716432963 4.1724215758863155 0.7281086473620235 -0.12093055163950141 -0.4534757489686384
P 2.60153998595189 0.4472958392836866 6.5251480838783005 0.6948372869034033 0.3628268790318138 0.8224797033454416
Ni 1.750926537645406 8.865870975350719 0.19745377219612617 1.224539045515317 -0.8575606062089748 -1.2370950278034565
P 6.113213948392825 7.002404139027631 4.864463037031932 -1.0422992534433726 -1.1651105670453548 1.0500045925074304
Ni 6.065495224938963 4.478538442353981 6.18386388533727 0.31116518899146406 0.37464135516823865 0.9068337414124898
P 6.521152768424046 5.109642042739689 8.798423056820843 -0.5003515875845705 -0.578399738038249 -0.5314966457288073
P 8.276617746343373 1.6205858810081277 7.827084307203323 -0.8464351857197745 0.2963672047466831 -0.40247971753674555
P 6.088550129527176 4.589600027909627 1.1050683563281931 0.49447918796419366 -0.34520685195720546 0.12546546339537745
Ni 4.988052763761753 2.5331843793672313 0.7284931346161692 0.7080545569246258 0.9301078814490821 -0.3277493186023904
Ni 7.251571950131873 0.44811238652969115 9.652878369219861 0.1546675388806304 0.08695162359089541 -0.4271070291671225
Ni 6.670930597545942 4.242902251328743 10.844016199324793 -1.4171354982312367 -0.02082927804052542 1.372492148490249
Ni 1.2549624364816951 5.663889761109666 2.80480816974485 -1.5165546581615237 0.4263729792145754 0.05331156693894689
Ni 4.918943850492283 6.990648834711575 9.122092899052847 0.12977823183811843 -0.7468435047673654 -2.3830459912012247
Ni 7.495568915350256 3.005349569340447 0.2989223226235984 -2.5803203090087883 -0.5355525609657358 -0.9172004293587945
Ni 4.727724853623282 1.5695656282566395 7.548345953691381 -2.4194710667974784 1.6620438729769957 -1.5365311012834504
Ni 0.14307153961057612 8.22410948038732 6.9916988140290455 -1.3100385100407181 -1.9475607652727365 -1.9731327002045695
Ni 1.4483204523322588 1.8606303111518872 3.972657663190104 0.3488483053645347 0.7484417024924207 0.8958960114540634
Ni 2.850233492847178 4.777796497956859 1.4611517761968646 -0.4537521425584766 -2.2854029493347543 2.1648200108426585
Ni 2.3013519220961594 0.2997156196632816 11.675522628076424 1.9035460502546833 2.801838072744749 -0.4336036926350597
Ni 5.166930551115404 7.540581314788316 3.056051759269459 1.5444585836606433 0.4820201362652344 -0.2382813563475445
Ni 2.779683066785787 2.1217022278926416 13.532881170194775 -0.8147321981895388 -0.5796696058896081 -0.24753655639722533
Ni 6.484789445737513 6.668084772292213 10.789624666656715 1.4685156524754257 0.06532324668784234 1.0146028159693687
Ni 7.738942775039227 9.128068202077424 11.874306312074129 -2.1704597256269396 -0.5644386478724666 0.5057866425572127
Ni 3.2417855674631384 4.368146462740389 6.319217286457424 -0.6443091962468646 -1.152524759960544 1.3462710100101913
Ni 2.600489076626167 7.631257119441435 6.7552246855679865 -1.7129028646103919 -0.8280960210909546 0.6321869590620338
Ni 0.8618153977120925 3.738726177292344 6.163895678140275 1.821585452120476 -0.3907539444593851 -1.1829018295905047
Ni 8.575661900048095 7.994220740364709 -0.010478402984889144 0.95730861023359 0.2388760525087499 0.10606623293315927
Ni 0.33124847948449854 1.1299600272157901 13.039473661718157 -1.5943521260569766 -0.11229910121674853 0.7048283366778443
Ni 8.897100652481505 5.354150512497141 12.163934132218719 -1.7511721925042358 1.5482095660626434 -1.1527458748324149
Ni 0.8875738362913483 5.804339607455452 0.46549703080026295 -0.7792977686413289 1.7040942651798265 0.29027806112980975
Ni 3.687901226273955 2.409149178684293 2.8971226489394954 0.7162399209488955 -0.19494104168869653 -0.29517858375522066
Ni 0.9722771279446485 8.546803743962082 4.012294614926678 0.6517707947312323 0.03767823127706414 1.8080460228731443
Ni 4.549126068745486 8.545576133068316 6.015188288517412 0.25999020877954576 1.1688214402380386 -0.9920979499986333
P 7.939154951713314 8.839951645343719 2.2386340255402923 0.7132551272889587 0.6096967483793178 0.3515034835991947
Ni 3.5890320489132055 7.397983149378443 10.952650463340495 0.05174216556929798 1.2959627486739422 0.6900740611868051
P 5.373903887787727 2.964745409020906 4.940592582602184 0.7220781248972274 -0.45955255129033756 -0.8798415290943622
Ni 1.339183983860018 7.454890354370487 8.927311040567165 0.43747783087848535 0.30231390924842133 1.727493103719741
P 4.541676702640138 2.93918878223252 11.64250082504239 -0.26846045103408606 1.0652046972866365 -0.3173468923221438
P 5.515227941891194 8.63093229051512 10.379316185597228 -0.5556932975796687 0.7260011141007174 1.1266165247352147
P 3.313786806398979 5.783395821601213 8.106203964098933 -1.156991537482646 -0.1596163982454735 0.5858942466430813
Ni 6.296992879239007 8.07807958452442 1.1122917304280984 -0.998823441647925 -0.7411716511935688 -0.23303142080251482
