# total energy = -340851.8985035876 ev
CRYSTAL
PRIMVEC
9.47302065380332 0.00000000000000 0.00000000000000

0.00000000000000 9.47302065380332 0.00000000000000

0.00000000000000 0.00000000000000 13.86472327443840

PRIMCOORD
 96 1
Ni 1.784110848266237 6.884489458440993 3.9218590365876245 1.5136485402583222 -0.47224377360476083 1.0147761083224394
Ni 5.0215346579291955 9.614263555634007 0.7072784693186278 -0.3838736723997841 -0.6434201087736918 -1.5290067678819472
Ni 1.3707271659291262 2.8575935670535633 11.833708022768436 0.16333344208574452 0.5185686248132295 -1.626464176100173
Ni 4.335725842986314 6.539690446806497 2.48028788449144 -0.3533263957405463 -1.94480505690447 -1.5710394194729653
Ni 6.738604937885708 6.52124647527915 2.401120902236079 0.8864024701413313 2.050041594847482 1.4376919822263496
Ni 1.3715513187400554 2.721409419813124 7.333426335199924 -2.268318225938326 2.5423487148610215 1.798615987808496
Ni 8.866245412997195 5.477291162373046 2.0116461771346485 2.104614544997356 -3.1077057607826997 2.48324959470602
Ni 6.078505901435492 6.36221340183226 11.762761727976573 1.2028024251691738 0.7433329205109457 -1.7910291766001734
Ni 3.236220736019418 6.897713795499121 6.116658492769025 0.7040395222279616 1.207220094620895 0.14686269812423094
Ni 8.256078669264308 6.041437970985308 4.886968502644005 -1.473167035204508 2.299280478647795 -0.3344652971699853
Ni 9.29288185145488 7.320513660526618 2.9776432652414213 -1.1264558307876342 2.977320748598517 -0.09735944918778071
Ni 3.7122116129247025 4.428940367808652 1.0912560004409517 -0.11264902835699954 -0.6034122009221866 -0.10207690926810807
Ni 8.101147413830434 0.518579683886612 4.682838166303902 -0.9156621383373972 0.8043570256028019 -0.0970455174917877
Ni 1.0411607717655975 9.187323980510234 7.6420554587575245 -0.0806670761337643 -0.9928176017734772 0.1566971677161495
Ni 1.0327108371983693 2.6185324137592025 2.0322907313973846 -0.44437352955705406 -0.19652586967731314 -0.06584106686452532
Ni 0.3663302406455421 1.6704156524412677 9.8633642163884 1.781211419178803 0.7713139791049038 -3.376256457537747
Ni 6.626226491954063 1.136108859397131 12.59995604666217 -1.4647734118241742 0.6588606116984782 0.9150923818768563
Ni 0.6943714784578112 9.541794946397129 11.409419946170859 0.5968713144798753 -2.9830314258300494 -0.04520616422299312
Ni 1.0107239558861085 6.231997257705445 6.2968997652171605 -0.46997323240302935 0.06550605212260976 -1.0368942803777175
Ni 7.079785255568768 4.027189555032703 4.569022663114579 -0.8221781129446227 0.47563994377050345 -0.9334636852951923
Ni 6.2741522003334325 1.166820392880263 10.049193623815468 -0.6373384213559863 -0.45821326365362375 -0.33898966740290004
Ni 0.6238884143838153 7.324264976769469 0.5780314152212165 0.6240568737557316 -1.8618342723381935 2.6985938826414166
Ni 2.38059854994186 7.978822296042747 1.9987107672113864 0.40088794756959345 1.6176977427614525 1.0039278527540256
Ni 3.2505344704713037 1.6006279080951133 3.6719190661889978 -2.5288277975564513 1.212518366905357 0.22445807731120698
P 0.4340197108811126 1.1592798683113015 6.168554542701364 0.8915675592820387 -1.4700752836530617 -2.735976179944617
P 4.535852880729882 5.188269297298907 4.207652496167916 0.9367575255551157 0.2183967016084755 0.012004737770359972
P 4.887804023079912 2.0865559838356242 -0.39089757282788457 -0.6235413675718938 0.41853522833771145 -0.8483360022869132
P 4.45169456380695 7.231770401529092 9.453189993503505 0.1978985816551237 -0.32264439327565725 -0.44243568910439285
P 4.326546485816309 9.694973692980179 2.706727184851524 -1.8446153373567455 -1.8687736797705041 -3.354012815648198
P 6.9980709780161785 9.136870671648062 7.781728519564232 1.479827220833503 -0.09482948367707539 0.5234632339013695
P 6.913798984843464 5.461869084485772 7.078176736634334 1.2088591728862148 -0.4536467273288639 -0.3197441889097268
P 7.137826454103978 7.997010496008081 4.41219869812181 0.6929267001442517 -0.4504410759073726 -0.2923028048693224
Ni 7.998999830379289 5.86665126392261 14.06035482762872 -1.4152645064607692 3.0354891294091337 -1.9211516791515881
Ni 8.634326917397553 3.959457456203464 10.184346159089126 2.987483805174448 2.8361862112073153 0.5592015678432435
Ni 4.270447256548232 1.905848638763377 9.070107662848226 -1.1363383800086688 0.28484994813570297 -0.8018854241338578
Ni 9.128032343227408 6.685177100487539 9.033615692063611 -0.8300343757642478 -2.342390679573708 0.6373589901812765
Ni 2.69623960350693 1.1016081175878878 6.935689241343408 2.9361740991568785 -1.1762892093699935 -1.266771986042599
Ni 6.457076232276456 9.131347900512756 2.6113101826896346 1.9541903547741117 -1.1648372587793099 -0.711984230996335
Ni 5.815127503708313 6.7747729313584415 5.776612095677554 0.42609427163189195 0.3010206443582945 -1.4773368503114814
Ni 6.507112728222755 7.44758476174276 9.598783692319762 1.2180889190145991 -0.061943531582332026 -1.125167965214146
Ni 1.996931733902277 4.0558170239364735 9.529570960337095 -0.6132554122648535 -1.3857574981405876 0.34223054293770094
Ni 5.105797178081095 8.386711626306996 7.606520263075254 -1.1392668665093733 -1.8508448632062253 -0.4120545057093743
Ni 8.85345683489657 4.2808581064242235 6.171756423736928 -0.554392062269742 -1.3753291037184119 1.9640801030839978
Ni 3.4974961231256065 6.780778826555327 11.224505632554546 1.4849689129354424 -0.214896658875017 -0.014497679395542773
Ni 4.92958004487529 5.920240142674639 7.760889768374782 -0.8014005140776391 -0.44172323641840056 -0.20110860395198912
Ni 5.3254670577665815 0.7466085571394998 6.365433281607372 -0.20881779967078876 0.584387837300884 0.7522003982039045
Ni 1.282182840368721 2.8300460225227346 5.000825687124916 0.21236052271672456 -1.1589401765685847 -1.296741792931812
Ni 4.19204853628099 2.8855579245002647 5.265891229859297 1.2420001784145578 -0.4274857526627799 0.4329514037630415
Ni 8.712128837353433 8.91970166945781 9.194751776131493 -0.4323083708624038 1.0362970131133509 0.02852356136098959
Ni 4.492750636020366 4.683669897531483 9.67316774636549 0.08292244782684428 -0.38716134201212027 0.7639320848185359
Ni 2.9977374369947896 4.700475036457787 5.664100080152414 -1.898882840451059 0.283804280480008 0.14877122800085346
Ni 3.4469575570760975 4.5741901959693125 12.139272624092294 3.290687573226991 -1.8933022610394876 0.13099230675087764
Ni 8.175652722542598 1.5684859484688742 7.172110263736551 -2.262666426969187 0.6067775178499937 1.129494617613958
Ni 5.050891549435742 5.399546080542057 13.42988455838245 1.3684064084566496 0.5858957893049781 1.5833727442273378
Ni 8.568262070231803 7.3803357869751 6.900542439514563 -2.3740054782655116 0.5419227261581376 1.3970850073382648
Ni 7.806356479079791 2.0778881697896447 2.313148747132916 -0.041911809742437495 -3.610727696110582 3.2307183917622098
P 8.770605794846146 0.07713691389464741 1.8044522658628837 -0.40538403566773407 -0.2092623434073751 1.2100825037703546
P 6.267776857324751 4.851721286794518 1.3826527518334801 -2.1785982955736736 -0.8361700563483406 -0.6957515711875566
P 3.6205506635160702 8.934858502762253 5.679074084155124 -0.18433189871428257 1.2889570067800704 1.9201885439073703
P 9.111805058570836 7.9867512144651345 12.903107869584378 -2.331574048574178 1.6935334589448447 -3.157975455571529
P 1.673835412955583 4.890579618178789 11.491789756763866 -3.8747745914580047 2.7987643189154316 -3.4123799427331813
P 3.194880473181544 3.894226234869458 7.657376175322074 2.1738546102411016 -0.03391079381483192 0.6808070340625824
P 9.831101002095727 4.822790681224658 8.054378162763324 -0.8447878799243387 -1.0396078226541385 0.4615819230155405
P 1.8743224254901314 5.631530887287406 1.5053065834434578 0.27875694786408767 1.203056964382141 6.258745922686976
Ni 3.1159038986445697 6.866216001288321 0.18074618445758975 2.4548502176277207 0.525403902567508 -1.2603689107297327
Ni 5.5156663696957375 3.292263127162604 7.424018727860593 -0.3977020936424441 1.0436341702047125 1.154502195401889
Ni 1.0515053104958814 0.5305270577388408 3.7440712765306463 -0.5313164113972011 0.02162374891736276 -0.6109272783523092
Ni 3.524077419533277 1.9313310647564754 1.2271445894319544 -0.892591886781495 0.40826958474564523 0.45711823081723213
Ni 7.303935874099881 8.98478132245877 11.167840863943796 1.1658533587486501 -1.611911732207295 1.2481227463725277
Ni 1.6951023446858826 5.078268579591897 13.557606456128601 -2.269654428251246 -2.629229633114982 -1.8294833668113137
Ni 4.466690355757535 8.00937278817202 4.034676083383017 0.48326609285719346 0.40210587913709456 0.47793953843795756
Ni 7.769241183525532 4.394269111624734 12.529634023942034 -0.04767776569193724 -2.2913694513308345 -0.2391354768177236
Ni 0.13369179546393983 8.26358130175001 5.161143302194358 0.8801541752387745 0.3324017297727372 -0.20175832172084607
Ni 4.5363644238539065 -0.3624074627259354 11.609875697736717 -0.24814796472897913 0.645011878740844 -0.644721858304251
Ni 7.120377149762235 8.742698275524335 0.2561826911158947 1.5513337135139218 -1.0205772883852489 -0.5996262515171931
Ni 2.885074800438686 4.088015821687605 3.25872294966403 -0.6269025707346428 -0.03344156748789725 0.15407644226385075
Ni 2.060666217947469 6.034598449956677 8.27072395944473 2.4396652823571663 0.8135955134819343 0.6095843911711696
Ni 5.465137276667043 3.1877283424660092 2.7594682282405856 -0.5364863856339147 0.7562133760180395 -0.4247012479391073
Ni 2.2456458954074066 1.1261148224370123 12.782082450252547 2.7489710495423885 -0.9630303432087155 0.9650967388194411
Ni 1.0271975390838775 0.10408386890578779 0.579191860271088 0.1455936016038202 0.8128025852669937 0.34693951837759607
Ni 9.074576086766793 6.0904987457876345 11.579400989773967 -0.4416990680486845 0.30801635894983725 -0.3342966328026049
Ni 4.806080272506508 2.7742309838791153 11.185462577264378 0.5752362527086029 -0.35885940974363356 1.5353460798364138
Ni 8.66910237681044 1.6310741969954174 11.63649583352973 -2.175045288115093 1.6380904474851918 2.071295362019936
Ni 7.767952852694654 3.509043735499431 0.8956930641261852 1.224389150201014 1.1736054918902432 -2.3574218628752175
Ni 1.6009215717403869 7.113622885920942 12.231680994843252 -1.2632614017861792 0.9261697227369404 -0.22774497559259488
Ni 0.6457796181858417 4.92548769988309 4.40661151044496 1.8556980775334686 0.6302660878902371 -1.8886732469079086
Ni 5.51811040906608 1.078228702215781 4.041982624337841 2.232114522324259 1.956975630828733 2.5703868519451607
Ni 3.419874190565217 9.11358598648411 8.982719045827285 -1.889756195559442 0.1480963134210159 1.1569622269066073
P 5.2067416878887 7.772225185082345 13.147944723669813 -0.367889895377018 -0.01738734223851199 1.163343447842603
P 8.906553116566203 3.530954832645169 3.470423176937623 0.3354222617666159 -0.40843362112733533 -0.7026668102501511
P 1.3520937339854742 7.794420472852542 9.367256432479792 0.49500060768530235 1.7384976823603608 1.1765216370957738
P 7.761937484476952 2.411347975508253 9.431408676742937 -0.2930954759739468 -2.778812301273537 -2.1286019090508894
P 2.743718383833104 1.0901647084430317 10.592773556935681 0.0002175153274447867 0.20545788205962034 0.08836315922644136
P 6.367338306093324 2.451343069390357 5.7085086544323556 1.2264439758475136 -0.8047609459094398 -0.4852075328542805
P -0.03136611922146768 2.9705877593382017 13.340387246928026 -1.0675762828426065 -0.08244010887378705 1.1794105286077947
P 6.6953132327598865 4.496842981012566 10.791316705598934 -2.729365102386003 0.3871338312082946 -1.0346741327979472
