# total energy = -381170.4960716441 ev
CRYSTAL
PRIMVEC
9.25881841466641 0.00000000000000 0.00000000000000

0.00000000000000 9.25881841466641 0.00000000000000

0.00000000000000 0.00000000000000 13.55121664556828

PRIMCOORD
 96 1
Ni 4.564995574837782 3.543081276113339 3.774189715020226 0.9535046631064676 0.9115517157134494 0.10095770806200034
Ni 1.2449036798218183 6.532142638727108 7.963670764702021 0.7058387802202295 0.9995466929671947 -0.7418028570196643
Ni 5.524153602798315 7.27832006822464 9.724786899180483 -0.154584749358837 0.1390833112891282 -1.4691291176897088
Ni 8.700631966415783 1.5057431103265209 2.8271227779405708 1.2053174782815437 -0.12929872109853863 -0.49170342499126934
Ni 5.960966134828375 5.763929221560927 3.6903353748863363 0.30843184922070105 -0.5751115542052805 -1.548034988157992
Ni 8.464633945539227 2.0374214951519516 5.0547389196006725 1.2531610801273838 2.735999576983385 0.679910490390242
Ni 6.2201760133038 6.632026771067188 11.805779467597096 -2.108240828896034 -0.0015681158180682671 2.7155227971862717
Ni 8.296938227617135 2.71397261067123 11.630182274096676 -0.1946476788179938 -0.7603693071679422 -0.1435845415935914
Ni 1.6996968370840284 2.8086810635546815 2.097186241707567 -0.31049258840447175 -0.6540271948655768 -0.3219347688031423
Ni 8.765860341678655 3.961829853546115 3.431331042178242 0.0530076625452829 -1.299871339699729 0.3573180333984427
Ni 8.994840178247298 7.4688387733749755 6.1341069638210275 -0.349650746661172 1.0070622846179496 0.9156130302670167
Ni 7.089986444204472 -0.10951608106768322 2.2747611188071586 -0.9692382717916405 0.2809572979495161 1.0546140662549837
Ni 0.8062634570498292 0.07812035393086668 4.736191126095483 -0.002083622001906089 1.1113549705904537 0.021727878595394837
Ni 0.9395015566073641 7.045905210048825 4.211162424607709 2.6901892035174897 0.16974834447315282 3.4701369470379912
Ni 5.740319234773088 2.308538214023125 13.697840292328253 -0.6639935620496693 0.2806942740961166 -2.137301750817732
Ni 2.290964976798294 5.314793202309449 9.74407024015422 -0.29270929627912173 -0.3146883716533742 1.6542094645342413
Ni 3.7868937396757527 6.749039717351386 11.405110584752796 -0.5246215158755287 -0.22174556347605037 -0.33988646818555657
Ni 2.381266232148016 7.210675141372895 2.352951839757471 1.6730967883570476 -1.178823288645757 -0.43163474183414696
Ni 1.5811654445907304 5.3705035123104 1.0094084127815672 -1.424794043217759 0.368317726943056 -0.7386941361873536
Ni 4.930681864317184 4.477768247179653 12.311754446806168 -1.0957072367508678 0.8106392590670878 0.6299788956671215
Ni 6.405333862630544 6.283330413256681 6.047487940528373 1.1207423253426245 0.8924792724630307 -1.1436891639467852
Ni 4.1527003937936815 6.038277268035611 5.0087596276836495 -1.8210200665353091 0.7969453065197629 -1.071748411942425
Ni 9.270391871107245 4.083712938281452 10.021490362556829 -2.158761977574037 2.0323799159016613 -1.7418365169256065
Ni 8.712473995083094 8.342306437523177 8.72283646457837 0.2630796463381469 0.259260786812689 -0.39177595796599624
P 2.29159457644597 4.472999955730344 12.186053025384044 0.7315539255981466 0.5322268390266124 1.0030716754013176
Ni 7.915521205764187 1.8380791361158078 0.4356014785901191 0.5771329555106834 2.039772094600674 0.4549597897133326
P 3.2737422503650144 0.690026399743208 8.731360132749696 2.2003914801893654 -0.07457510430341349 2.040208153696828
Ni 1.2802631070934876 7.753260414212472 11.269380937177768 -0.6318717418144602 -0.5119801729624344 -0.9099956840802392
P 7.09972672110675 4.221521190575644 4.794799446239411 -0.42735256951902534 -0.6627404063688587 1.031299045678127
P 0.8465189474640117 0.7569972846192059 1.20133538420266 -1.1725878492590063 0.9952177265745377 -0.0712447543785999
P 7.020600859503271 3.4688811058710884 9.02301013307161 -0.007348469945271215 -0.19119982947870942 -0.27667384008281387
Ni 6.435545386900629 0.26501700934339767 9.686477612383086 0.9340835782673784 0.1900387192910727 -0.12782445054585728
Ni 5.909403775447405 2.076456673307845 5.420324287960079 1.1034028056229126 1.266450083926806 -0.7525729510519749
Ni 2.9483688559735532 1.89773370273308 4.061001056873386 -0.7082394192419221 -0.19849790580201945 0.7104654803589635
Ni 7.338854222584988 4.656768982304864 12.61871668091229 -0.3025980161477434 -0.7025079160747837 0.5097294292550447
Ni 6.691625784774371 2.674067103590608 2.3418940330042495 -0.36114949132939095 0.1958578970760111 0.7817781118610213
Ni 2.5835436366005307 1.8879471317390624 -0.1388739422860671 1.3893066489444266 1.2897177962054949 1.0854091972589694
Ni 8.022293898955308 3.5360816094421206 6.90059083371977 -0.7541143273971658 -0.5544555685178257 0.44761954729817743
Ni 7.8609775068751055 7.767426406285175 10.826351108626913 0.8141321027116946 0.5490829913520027 0.6786514211721602
Ni 2.6946957508703355 0.34878061305747515 11.653233028256285 -0.036112943672473294 -1.546625252294659 -0.3159181302954172
Ni 8.768323187359268 2.012311579791709 8.876331006918035 -0.2669134182619403 0.12730868725170333 0.6773293599266271
Ni 4.786392439179272 4.149422772098428 6.2410805733703025 1.3249596501269245 -0.28316356157221556 -0.13093291426785192
Ni 5.09339633796796 8.99274768530061 11.344373662270621 -1.8651196279576847 -0.6264765389408178 0.452547323617098
Ni 5.994825633527641 5.374410733653328 8.06436967305674 0.3172003394419505 -1.3454423434613088 0.9800662156450798
Ni 1.9696469448433322 8.989025640324645 7.410740614122031 0.43267578150415154 -1.809419763292219 -1.0076909193408838
Ni 3.0077549168587283 1.873336716385647 7.027349612197254 1.0164478395979073 0.8506430531535351 -2.3201496087873203
Ni 1.3479913633103657 7.917687769257659 0.12749763218166812 0.11327046399108233 0.08086916484224137 0.11750275690487506
Ni 7.177361912956172 5.386067585953677 10.259314222411646 0.12378061949378681 -1.4190144604215045 -0.8124297753086073
Ni 7.0827367894378535 0.5029056809266512 12.03491670407766 0.6918476081474602 1.8030555116370883 -0.2531212495738544
Ni 0.3255789401587909 8.320900049502203 2.4962968654238704 -0.8215132256671142 1.2003614198278487 -1.3355759921901902
Ni 4.440862597243839 0.4444806853860161 5.685169083282201 0.1860979894757698 0.33522531526446137 -0.16215999060293362
Ni 3.123304969843915 8.667726126006379 4.261897971510188 -0.4672216377998211 -1.3602758089297153 -0.21909989832308718
Ni 5.899330181084594 4.847833957737741 1.1939986965435685 -1.6324602457826078 -0.7967226489859957 -0.27702633832622614
Ni 0.5651712343181081 3.3116941467741716 13.45551757263806 0.29570026058664556 0.9853446904351998 -0.16892224902743166
Ni 0.3357516038779275 5.55081899964105 11.88480996337159 0.6494997393088685 -0.06255931078946 0.06154063971695853
Ni 1.1886193230832807 4.177375144691561 8.041454097645014 -0.5814153849361212 -0.7958793271490938 -2.1375866290480023
P 4.026743428985149 5.722292315449196 2.3472335935456403 1.1270088750776268 -0.07073181929792334 -0.4008578656626064
Ni 3.9072028252919 2.145666340460431 10.950670188469651 0.15055994447016008 0.17352143836233988 0.3902253256494247
P 1.3209741313703998 2.269049353768171 5.874587840812774 -1.2816069941729025 -0.16946192358098558 -1.1423627318258778
Ni 3.010273315449431 7.5234287663557975 9.336354470665126 0.35604739421613524 1.638433175536591 -0.23997725599272868
P 5.22245500692313 1.044135462760056 3.4344605227799234 0.46116309031056707 0.10591788028075305 0.6542727352174796
P 9.041439810993646 6.332272527045118 9.69864647733809 1.7612576017646957 0.08308494154663755 0.9907864302760614
P 8.809913799379258 0.6483681983492775 10.736574828277531 -0.4405456711705316 -0.3366394220031686 -0.556205718439713
Ni 4.261500768203051 2.105918233291728 1.8161338848669701 -0.8344649007317758 -0.30021537484817973 0.480837685921359
Ni 6.728642540530363 1.1769902472379767 7.672902203886852 0.6633063061746577 0.22822988564881339 -1.7649137104600445
Ni 8.267235938356198 8.98362774922766 0.31990606215686584 1.090065465084058 -1.968580304947197 0.1508011139466887
Ni 4.759773336428277 8.822450239422682 7.6989342975545725 1.0919518834734936 0.015228901134612482 1.35556220550413
Ni 5.690441980331484 8.183101056026358 4.221311941280975 -0.04401651479026612 -0.5759757019777887 0.502471976361683
Ni 5.990409177175562 2.989607632896311 10.989792399518016 1.3530718349821085 -0.34226422438911375 -0.9929420431664835
Ni 8.22361764511796 6.829378484158475 13.267399679085404 0.8233065701221111 -0.43445421356081304 -1.0726845506034495
Ni -0.07033739122739327 5.167318743659765 5.588860706588186 0.0470766417728286 -0.45437460663382395 -0.38199239621667114
Ni 1.3849062720645275 0.43776526443808694 9.562442778263636 -0.8102677346602819 0.4045926501146903 0.9991227180558987
Ni 8.301160248783901 5.720468328234606 7.78883279430615 -0.3776886266349947 0.2995337754001228 -0.016228546043720437
Ni 3.9778846445618457 6.604018845563967 0.09857030601647425 0.14826472067808014 0.12660806164025293 1.7690678418377341
Ni 4.878767669838983 2.79450581266363 8.429087490136924 3.2493007827500873 -0.9337411073262951 0.03660762392070469
Ni 2.6198659809804097 0.2557859674502701 2.1120244239923474 -0.13508807408680606 1.0749386367449487 -0.3314437367348421
Ni 6.9910467113359065 6.817740149494822 1.4924094860233184 -0.7282845108182554 0.6663222101828461 1.3918857225255126
Ni 2.4924646405095623 4.222419295955417 5.835140645240387 -0.8902043603859249 -0.3064364160572271 -0.11074435513511895
Ni 1.4272005542789776 2.935295404465934 11.029199782171508 1.9765772071097445 -2.452706946032473 1.3797814830628108
Ni 0.6846136945368666 1.0210347109813669 12.644463602974886 -1.6301639935492636 -0.6027992499285361 -1.476007847087413
Ni 3.444011919787898 4.1350438272037175 0.676406677953047 0.7782528723165822 -0.36291121121550407 -0.0756426263359794
Ni 7.541400132769599 0.1253653263160841 5.0694826619383 -0.8264484581852025 -2.254462551002156 0.41914792222104585
Ni 2.78913569802169 2.8071626173455813 9.060384279215842 -2.9711845537937926 -0.24983460840278265 2.492528191794469
Ni 9.298723855252652 0.6736234771575863 7.001520286651358 -1.4208936797220884 1.2128438685655758 -0.9713157231459594
Ni 4.697933688680836 8.532362201756104 2.1551445928034543 0.0009531079418886811 -0.4934697728630727 -1.0876326872728495
Ni 8.182776997384172 4.64898231607405 1.3037073610328938 1.0525466422029937 0.378305177173071 -0.1625096606328685
Ni 4.666981458942897 5.041269190667752 9.901087762875367 -0.3207713446226605 -0.4894686221234796 0.5463897607905558
Ni 5.969141671429811 8.415978855119581 -0.03963329782118519 -0.906144171544633 -0.5369062467801529 1.0690762644269007
P 3.5447571222343583 4.424974464958376 7.9800542437691115 -0.42739602116245096 1.8174585744362959 -0.576302232079272
Ni 2.46274383361193 4.674851454538843 3.3957040350563106 -0.7757380763145285 0.31582068548560444 0.028210143885628834
P 0.43843004759548565 5.748883641745147 2.820292547645124 -0.7781816527590146 -1.046626420063817 -2.179588427401085
Ni 7.940186697843718 7.16035346365058 3.693993534015699 -0.7343034633188257 -0.09402704238043808 0.5857942307301072
P 4.12206296387958 0.3958172620298587 13.274879878428893 1.238571869459299 -0.03406788821798649 0.9240087105298797
P 2.476020979123209 7.455265345676556 6.035156120370443 0.05086567650161563 -1.002142992939461 -1.1833168056407362
P 7.122346014331334 8.135492212080058 7.275187809977453 -0.824483878259664 0.4997810597930812 -0.9292853855477866
Ni 4.245779294647854 6.642544788710711 7.211984338287327 -1.2835615467961121 -0.6884756063514337 0.844890466940474
