# total energy = -340889.4094577439 ev
CRYSTAL
PRIMVEC
9.10420571981352 0.00000000000000 0.00000000000000

0.00000000000000 9.10420571981352 0.00000000000000

0.00000000000000 0.00000000000000 13.32492533816285

PRIMCOORD
 96 1
Ni 6.555310167433282 2.0458697401849433 11.360178420440711 -1.5298464901744233 -0.706681330726183 -0.593689574317784
Ni 5.022790156775113 0.9174125766139472 5.702681296089555 -0.6255442569345355 -2.0014557155189787 -0.3244984157652605
Ni 2.7961655212256367 1.5908233424761637 4.575579748712766 0.6702274587745232 0.7913027635220049 -0.3153509449380375
Ni 3.8007235525806595 4.3899022094516065 4.92010837540265 -0.5330187388002885 0.9840434551252731 -0.8681615216532726
Ni 3.8129505005243773 3.1516119111129197 2.6839998890170076 -0.6491791227446562 -0.5351113596632591 -0.22421305117993645
Ni 5.599004425059423 4.542206462728189 2.537878301673841 0.053027202929308674 1.4239869739354314 0.28931338322369526
Ni 5.111537951678582 4.508539110906993 11.51655953692593 0.49859500990478 0.4085693753742512 -0.32491519158770493
Ni 5.6804051261501005 8.29965772671876 12.604926331717952 -0.40362257289193715 -0.3956467537753121 -0.36928908971738983
Ni 1.575428131029532 6.761702505396109 0.3750522963629313 1.1594376850302937 -0.26031622466039683 -2.2636439603911076
Ni 2.4965825360908864 1.6743908444682585 13.433256989087749 0.6891932012437485 0.02262107983362556 0.30370487605867696
Ni 8.216536330794606 9.005461255636634 6.700864562775783 0.07802295364269789 0.16704045862368652 0.8038433191911769
Ni 8.901655104888853 2.448139058794891 1.1837779576776273 0.3970477478878968 0.576622334422852 -0.27394667095963793
Ni 7.298213333633843 0.8570635298272602 4.7229531643078015 -1.3369949840249038 -0.6939039764558566 0.2753309529016742
Ni 0.8924342784915469 7.628322719703281 2.447109373156444 -0.6767503474947054 -0.5703899803598951 1.5120439147753635
Ni 7.828533302153238 3.8997955164850038 3.5608596032142 0.58304057924437 1.3106159798107428 0.46610037971118434
Ni 8.002123187814341 3.6162541413851232 12.4188035968094 -1.1169473770765668 1.160736092126743 0.5903972767197573
Ni 8.143101809488554 7.4003625189864195 9.515182048863807 0.5041056553103641 -0.5781665389815205 -0.6570976062607845
Ni 6.902672022864853 1.3180613466505655 0.2574696619007563 0.9857622375885926 -2.7597596555174597 -0.27573358765673156
Ni 1.9378119254835406 6.69802769235191 8.96822050316919 1.0513472225782539 -0.5032921582701333 0.027663270243223324
Ni 0.45536322405907104 4.94220883417657 1.270764999243557 -1.168925827026387 -0.03877737787851386 0.9561223032349727
Ni 6.608096350737581 2.245324673581045 6.8373120213885 0.34288026070655786 -0.4772013747203523 0.3883815875724666
Ni 3.5743747962316603 4.1154923524362745 0.008082713614618355 -0.4774996226870615 0.7855946573936341 0.5903389126779962
Ni 6.457521896499946 5.973414874936851 4.73549147607853 -0.798726823900218 -0.698015684631385 0.7478806877826282
Ni 5.35383727600777 3.05914049617298 9.22673805911933 0.5108262618636493 0.4389569865271731 0.8078586109981571
P 0.11177597221459268 5.816285392762151 12.28248905959652 0.37421403782283297 -0.7861600429788009 -0.023751593893642967
P 3.908845096720339 6.3532969523006315 12.684275855316656 0.25447956337396177 -0.7204534448096108 0.14565119431463303
P 2.4106934617044145 8.482160629533178 1.2910910483717355 1.2206767343464333 2.0473877021644027 -0.31493134090211566
P 6.308722762328598 8.050539352493933 6.094994255599541 1.2405516188934893 0.664108747471295 -1.3685961558699526
P 4.540139808086921 1.4218948100147495 12.443521514655412 0.7606022491143546 -0.0969655561834717 0.4791602982189361
P 4.103183466643344 6.15011839886806 8.108616900016317 -0.1256079025105127 0.689540043060206 0.33631957676990465
P 4.76496816212274 1.3078100112934354 3.346261644862935 0.24470037250001078 -0.5830809455640021 0.8605217457198276
P 0.2992543233173506 5.658545928821085 3.439469590025247 0.6311238079048421 0.12683868959382028 1.018326030457227
Ni 0.6433741711817154 0.2590738229042433 4.510580273772951 -0.40508810169387005 0.10564482912502451 -0.6015805470300865
Ni 1.9048547016888588 6.684407800971566 4.592089314908698 0.2973020578561267 -0.5030090798120757 -0.011027204348439075
Ni 5.93873695630869 5.46592825373156 9.207843191090744 0.2934420606800882 1.1262938512884733 0.7499797364035019
Ni 8.538105972134924 2.2947514050675992 10.003940409000577 1.154637949648805 0.5128736313109813 0.455960463063705
Ni 2.532862794881441 5.585247970597058 6.702410456864274 0.3255939628222844 -0.9228092909051396 0.7283418464187521
Ni 0.8064933101339069 -0.16832856532106355 8.755009115310722 -0.3862732829802122 0.15588007113149283 0.19517706895890258
Ni 1.4467401867373146 1.1653838209497887 11.317232062406381 -0.17489286478856977 -0.1095269377882501 -0.5422837090419822
Ni 4.2621337899116725 7.079912694918684 1.6057870145836053 0.17311468984222445 0.39722592533697393 -0.686434921772321
Ni 5.485138127269345 8.033405237802885 8.148750968981537 0.21039799967371509 0.033182400289239626 0.7071485001705886
Ni 5.617786400940204 3.023879908394858 4.574540048448303 0.48235386545556924 -0.35814567150606064 -0.144763392393041
Ni 1.0465011059467626 7.412671404779351 6.764811591563482 -0.6820452773450576 0.29205880717931637 0.3924850682178789
Ni 5.398702800554784 4.538628509979209 7.154031852475938 0.3274762674466618 0.2579222705069235 -1.2314378295176793
Ni 1.0225297329491392 7.4389188291440105 11.107777069724069 -0.10787011891111743 0.4315511809814052 0.5045684538793955
Ni 4.676211263013803 0.5195169183108954 10.344219192577933 0.0021651259721188515 -0.3072090325571935 -0.5399812861610506
Ni 8.547046301904642 7.40993103893344 4.970876156354662 -0.877849695475314 -1.0452182268623806 -1.0976034253323164
Ni 7.303948983078774 6.471232829934971 7.222415360588262 0.5636799153295712 -0.7889275784216091 -0.3890433895261816
Ni 2.682016993066046 5.6226844634820665 2.363122167292268 -0.6594277970558579 -1.4525010222147243 0.9222410771064956
Ni 2.6682332259872754 5.434318452346164 11.128657564965259 -1.2876717123097436 -1.0872483073502373 0.7556011963553374
Ni 1.1576270378909297 3.3527784351370324 3.569014240052017 0.08014334241981036 0.68125414890233 0.324283471540977
Ni 1.5511563192514597 1.2088564020601769 2.360603944059779 0.18516622169011981 -0.4502590418035536 0.051412807254337264
Ni 1.2291405718432018 3.36627997184629 8.032864447998078 -0.6322406951181047 0.28111516368361905 -0.5261526078080744
Ni 3.929365975845536 2.802802487011914 6.654001575549058 -1.1933898736060222 -0.25890108948042506 0.5150253875466614
Ni 4.271993644433672 7.261823824377671 6.068130476524688 0.17742668695401703 -0.5156254830245055 -1.3550389860108083
Ni 0.46597963805547393 9.090530951530972 0.21569592553072378 0.3731015214849445 -0.06781541698207676 0.24646414926865293
P 0.03552916183943245 5.846110769875791 8.328598175060897 0.24571210159397683 -0.27572433168535093 -1.2201175194088536
P 8.893024318105054 1.5861437808655374 7.971796168979408 -0.8979007005889181 0.9974404452574692 -0.6569525960424879
P 1.7522044886044863 3.168718713187563 10.26708108048744 -1.8528868333369184 0.3136974684950146 -0.46241958842548747
P 4.289328051645018 6.273225465208304 3.989748708192455 -0.08727635392016582 0.2080742366365449 -1.4956616167625982
P 7.082789623846617 3.9897359623048 10.43966586186486 -0.7475857822500286 -0.08553905951408494 -0.9948883682595768
P 6.163374122029678 7.811444708489532 10.327016796345873 1.4472757692600429 0.874530915514726 0.061888767084996646
P 2.47154597105349 8.724132202465512 5.518810941613823 0.5591666008402498 -0.6988929450300158 0.4714115075114526
P 7.345546097862725 4.4085476222503654 1.2221767650806186 0.24254553094053716 -0.48028052786630837 0.2977301465324808
Ni 5.703857559436039 3.129643463318288 0.46447380247104286 -1.4000767429767371 1.2381733484692998 -0.8141238751815786
Ni 1.5068825680598747 1.1836286487079497 6.613919400555007 0.30199997755242824 0.701438851380321 1.2961465825499743
Ni 7.23577669253331 0.5416792856819987 9.095766780095703 -1.134407481534543 -0.12885237758973936 -0.08950807146416198
Ni 2.8644470622367177 1.7841875624140768 8.831266850732446 0.27822370106843697 -1.2572283082182218 0.28590307199056564
Ni 6.743284697734054 2.160746604781986 2.391330637514766 -2.694046886700683 -0.4802337337887729 0.3528769669079535
Ni 4.264000152032642 6.963260510255352 10.471245619372212 -0.6010118190108101 0.6475860672259234 -0.6381961413705912
Ni 8.004936387303998 7.186140564320989 0.1737401050513284 0.2577124684889626 -0.16878932299399316 1.3042391297501215
Ni 7.9921813954431284 3.8870041078022615 7.827794040669225 -0.5921952491604446 0.8668440883934296 1.2811277405436388
Ni 3.2378924663345217 8.5408281295699 12.414566499584527 -0.6468103654021634 -0.11072969984709963 0.011174014338948499
Ni 9.290568554077035 4.647323619063382 10.263723449510788 -0.11757474779339107 1.2705705338530828 0.18284194443231738
Ni 8.84383429596067 2.5663935836206155 5.732808932824738 0.048212555149484713 -0.2446849458810431 -0.4848036125476424
Ni 3.560718488029444 2.827356529159499 11.042352428388893 1.4932530073211057 -0.5845888975680964 1.1959617480982565
Ni 1.1658663438396004 3.736247569455263 12.622888018686055 1.4926971348176357 -0.028662400931699028 -0.8177159634082111
Ni 3.2038336336781947 8.628365065146104 7.669320777767427 -0.6193823510981977 0.6347439211559326 0.8851248889804886
Ni 5.90856561938726 8.044293867542786 3.801761432004028 -0.7257188069736081 0.8819215515518424 -0.4124201165789091
Ni 3.298763184094533 8.371089322821819 3.4722620277009555 0.35852928009772445 0.6604243566411724 -0.23623295845894798
Ni 3.1800716574063386 4.31492907742144 8.946941243728496 1.0689258548919656 0.45524029706822894 0.014515677117671775
Ni 7.117167103694329 6.033520839437538 11.36108428888479 0.5773872376133347 -0.18729432377671615 0.27103515373979775
Ni 8.033341508364607 -0.26643002092250373 2.3136735857125896 -0.5862667994911517 1.1525098475622086 0.12660343365456259
Ni 4.805500084866917 0.5536494950315146 1.211142468053228 -0.9763663981959894 -0.010119090711872896 0.7132651545912878
Ni 5.9690721689285455 5.849197095529492 0.2260000652795693 -0.717616489581448 -0.15082553942672092 0.36572065563984113
Ni 7.889886542803061 8.49023605978342 11.66170788470455 0.2497129952232538 1.6627853791287106 -0.8701944929229014
Ni 9.380153935883573 4.874865026328708 6.011139971135199 -0.2815918462097215 1.6177293673303366 -0.5535988769444853
Ni 7.529250755798936 6.362910993274992 2.538451866618334 0.08553340308713012 -0.5719868925333698 -0.2191477208418871
P 8.489271014003798 1.7679456598589076 3.322676290177161 3.507325897383463 -0.1261408921958473 0.36468270129362995
P 2.0415816594094474 3.436081915170551 1.5106070985168925 -0.29707091568192706 -0.5586150992121541 -0.951172158318549
P 4.930209491369556 1.430789618757126 8.03310388860189 -0.003863339610148185 -2.3424696124407594 -0.35489913954430496
P 8.593878334832773 1.4716675013090934 12.311444074667406 0.4339340793912849 0.23412876763175164 -0.7117237782460968
P 6.236535517171684 7.918856124602695 1.4695389380706412 0.9975723428496432 0.22097037587292268 -0.5057007677116259
P 2.007067616479713 3.5326229099547515 5.799246872228519 -0.5477447321565535 -1.0220590151370978 -0.027294316939578796
P 7.170208204751737 4.198340622196386 5.729131744236154 0.16069394758036842 -0.3673535632575738 0.9920331581989689
P 2.539190217681801 8.769289061587507 10.032296367351659 0.6745309712458836 -0.3581315304386736 0.21800769370017292
