# total energy = -381170.3686030457 ev
CRYSTAL
PRIMVEC
9.22968281556777 0.00000000000000 0.00000000000000

0.00000000000000 9.22968281556777 0.00000000000000

0.00000000000000 0.00000000000000 13.50857375121731

PRIMCOORD
 96 1
Ni 8.320356089831195 1.1578544913056488 5.638195468856874 2.007161250544188 -0.6835902532346743 1.7850426199994356
Ni 1.1731665352524006 5.838872772483545 11.692264759151922 0.019285844812805493 -0.3495021368984497 0.25156778904380545
Ni 5.589551348050991 0.8389274132115944 7.953294369427858 -0.4272098732935739 -0.5590177339672114 -1.40924812506336
Ni 2.1220794648542713 7.122703205820065 9.857476711251326 1.5229605616878674 -1.5466193387573879 0.9298582273321211
Ni 8.948288336891663 4.962080585135996 9.690024420162038 0.9190153710803463 0.7135459190565002 0.09069669245562444
Ni 3.465930526150844 8.581962222216207 13.201997219506596 0.062729260708421 -1.1438226042008557 -0.8380189366316212
Ni 4.572569506992041 3.446345139017024 10.981619785730265 0.5819494030627204 -1.406990696487751 0.5751442072154288
Ni 4.501602475101399 8.167890957850247 1.8942124383446974 -1.1826429195021633 0.0254480077594594 -1.3756782595277146
Ni 1.0280666902331808 8.617468812368802 8.693915507002774 -0.8068571663168362 1.5718400609973897 -0.5012329617482594
Ni 0.5530878253795716 4.547307864868919 2.0215174547145276 -1.252879801441539 -0.002981194115510995 -0.20942997933349092
Ni 5.79293664064329 8.060069802102232 12.119027760486645 -1.4117711485955298 -0.9815160607177289 0.5616250896830715
Ni 9.02553155316072 7.746168286352366 10.635584205962912 -0.6007912183595717 -0.5276482185169944 0.29137875039315625
Ni 3.406528286945724 8.779172856942093 8.398861003753971 0.28805354267466515 0.33738684169215444 -0.35418720107894486
Ni 2.5934855194536386 5.523365291907436 2.56352227685645 0.6178540873791295 -0.4132793792554108 5.399824174464417
Ni 3.4170501254624788 1.071852305955538 4.212959832569781 1.5011540073357375 0.12755911269961256 1.1423817579892712
Ni 2.2955052067225457 8.903542834146723 6.488748590661192 -2.131819387546922 -0.30455256877095294 -2.716028018957464
Ni 2.5974173643730576 5.319998458680956 0.5576297523393042 0.061218737601165536 -0.07256295896939118 -3.7619365870186505
Ni 7.4477818675732586 3.2327887358585286 6.110022396996911 -0.7397248914447131 1.160308260560705 -0.2352248289094078
Ni 0.14546626343072433 1.3768194886490728 10.207565044784214 -0.6670164080363932 -1.1071157356981256 -4.783217843449459
Ni 5.008293607463535 5.393512883054602 2.17752770790099 -0.03773890931167049 0.3831208533941595 -0.6449126341588183
Ni -0.04713968249164577 8.645702412388761 1.4673959048490994 -0.9065676322352967 1.021767452038608 0.4257872819144345
Ni 4.982764304536038 5.6229535705002345 10.30098974113009 0.454824549687049 1.7712666492612656 0.48450999256662364
Ni 8.409173328468684 2.0065792129256077 2.2119211982947067 -0.9507574393786336 -0.2711035450838879 1.2854813895266441
Ni 6.997687150811775 8.510007614254256 9.52278810365283 -1.1194166645526658 -0.656702684815211 1.378538354684329
P 7.813969537005071 1.0702832598609342 0.26365881386406975 -0.4218439809959703 -0.4949401867610121 0.3959051496430214
Ni 6.790665363153159 8.533663291551136 1.2786368907633814 -1.01827666527653 1.4629759536041191 0.17638847549748976
P 2.3784985154441807 3.0390761509553172 0.3872507287994343 -0.8665245002704819 1.2117917731519774 0.43439302130557444
Ni 4.371620850687833 8.138688241124797 10.23344692159885 0.7180592335458215 0.1349428067581934 0.6872221935603068
P 5.084373883686003 0.899190781832165 11.41459620959962 0.26042318255190633 -0.15565741359772547 0.37697128885299597
P 7.265772520599209 5.988827430713128 10.61139043815241 0.33822810664652714 1.9991005850232408 0.2587470804010641
P 3.6858000324193925 1.5392526781722107 6.457462734503082 -0.423840956821341 0.26663368223799244 0.7247153054097583
Ni 8.215414595150925 5.825997364824884 6.210242908869007 -1.4178890885678097 0.40045368824565225 1.5176000687069024
Ni 1.1169208476023067 5.9424944225077665 5.40534810544937 1.8053826171083682 -0.4290132450508999 0.10027970815836923
Ni 3.9998953715103585 2.6738575982289943 8.512400871032671 -0.17996025200914811 0.7751582925516585 -1.2046816444697575
Ni 1.0699140725445568 0.15401387277315165 4.077522542588448 0.13255553747293944 -0.6919203703669244 -0.7184330719454723
Ni 1.6404007731767034 2.178814325698565 5.112549336703633 -0.8009719111806528 -0.13055547632377518 1.9933845084750703
Ni 7.87470085054915 7.473818803060772 13.076826105825429 0.8039739312317703 -1.677968514627052 -0.21596315246631836
Ni 6.744369273679435 3.9967572793211503 10.198297520174851 -0.047445337966157 -0.7919478533051715 0.1867407652660913
Ni 6.565461100162957 1.6197078240937512 9.853653776590239 0.17070376640788665 0.046628498491816474 1.073971130625357
Ni 8.314227580379331 6.9745760248065505 8.287874989736313 0.8613699526527357 0.5294114810650044 -0.010117290939659997
Ni 4.942827466586915 1.042575751766812 0.26063609271122995 0.41216454892467724 0.26828613023975084 -0.2564022343179713
Ni 3.3239780030037416 1.285159507675479 10.165256178327365 -0.3884551211228794 -1.4177654185057518 -1.5856684822400497
Ni 0.32100006487551347 3.8953046047806463 6.785816087752542 1.063746367573555 -0.6858610515467221 -0.5979066977229252
Ni 3.0307325176051885 1.9619167773268542 12.169644264530273 -0.22234103096820415 0.7143830702458148 1.2635501366711916
Ni 0.27112747327438413 1.079476024038731 12.23584970300794 2.5474117312062257 -1.5263937557391325 3.6317842596705647
Ni 4.3769279183607575 3.9910902540147575 13.52937684120911 0.8697802882036183 0.23336746398569483 -1.8695002735238837
Ni 1.4906491679711287 1.497986765884129 7.518453549610797 -0.26941998673387796 1.5895022541638433 0.7221704275007175
Ni 0.11689208811140608 2.76369010198652 0.292592946816856 1.0927617809692984 0.97452805943567 -0.021818124316355974
Ni 7.908684543021689 9.107186557860487 3.5704243812100067 -0.5434363345891866 -0.4747076617642212 -0.1529857803028333
Ni 3.881801578684144 3.086756692865456 1.9772906601490992 -0.4586770906639197 -0.7321051701159262 0.15594049205578306
Ni 5.433163600833533 1.21544771266052 2.77851112680249 0.8422584286342655 -0.7858597381295627 -0.5620524070284771
Ni 5.783910010757863 6.1475133689750345 6.484210355574623 -1.5946740281727696 0.1864592294699305 -4.975634576054405
Ni 6.600127789170793 5.383692500438963 8.175010735246586 1.5015918662041041 -2.1770692605236572 2.9331638515756455
Ni 4.04361637945235 5.286928504816452 4.656513473053348 -0.8712141924366673 0.6244728782472277 -0.4015582341637407
Ni 0.8372826837171331 3.2891913281180827 11.1532457394312 0.8986049257447944 1.153556800769484 0.9472360564889364
Ni 0.5258104205090288 6.967866045331392 3.511702369635312 -0.342360640757662 0.6367745784327163 -0.7409415374606336
P 1.0461660984185819 3.0809050739008743 8.934665324917336 1.5729808594700523 1.1172952473342888 0.42101762843993296
Ni 7.66204895631578 6.645916246084497 2.3408192579347054 0.09134512467290075 -0.6451214077355147 0.3482212133034971
P 7.383450977694499 7.1238846052324725 4.621201629210142 1.6697546113576918 -1.8198507288175563 -2.2281586230003048
Ni 5.691603951980608 1.494036461598891 5.335724915390342 -0.27584568775456364 -1.1605188339096142 0.9035296167399213
P 0.6201460865580679 6.097894593653915 0.37624525489822463 -1.2371253668207598 0.35177190676923287 -0.1693302830991277
P 7.362324233514804 2.059391458533392 4.146254145278425 -0.9259586351673988 1.3930429760584073 -2.5235444376703247
P 1.6855246929209287 9.054328163838155 10.920546973918539 0.18123371940493302 -0.1845363014156048 0.16381732370069851
Ni 4.9002693986915125 3.1628185097221055 3.900763039253286 0.9831068022436166 1.2671159996455792 0.7671760456771304
Ni 6.157998288760152 5.403739371718256 12.469142860099968 -0.3242569891784158 -0.008741750748372041 0.16576956233106288
Ni 3.2445288925193294 6.674832842639756 6.715112101824819 0.4292186761934866 -0.31079032215054864 -0.2204445852764397
Ni 6.374545109181304 5.25399699619559 4.224644611133125 -0.75019570906905 -0.8398169090723084 -0.17857442740521504
Ni 8.257806528753958 0.2550678250119681 7.946715451450014 -0.19108875782214188 1.0564146097988323 -0.7249875852345385
Ni 1.5108529438598808 2.265711790290891 2.7280026100489008 0.6598384022307152 0.47891192965355595 -0.41239929064330266
Ni 2.841228668108679 4.142207852290929 6.44088806993432 -0.05043218850862283 -1.392736757671898 -0.3112443789688317
Ni 1.9825728076781686 7.559931744605796 1.6585823255399983 0.8139374702023853 0.30374781348147045 -0.20400315189096482
Ni 5.578558795705854 7.620404627028411 3.6639709093702892 0.2669594410085273 -0.0775958934076083 1.5912485474309885
Ni 8.21796198763393 2.999148542689104 8.48916606727646 -0.5172936147555478 -1.1309701737182198 -0.03468032499100479
Ni 4.187470217278795 5.150873749048479 8.302558492276933 -0.15457369361524348 -0.10914384341721849 -1.1347337545257103
Ni 5.491190617285147 7.6212537578560795 7.970990440470117 -0.7452445357113617 0.5319123931099872 2.2384980572530995
Ni 0.9124713725705502 8.063687837802732 12.914169557975882 1.7008888708686516 0.0494489986597471 -0.8916441781562451
Ni 5.120729604666265 3.8007741924222187 6.261804532442562 0.07161525034414118 0.02174716186910448 0.40224034783242985
Ni 8.440609628458217 4.71490044713843 12.762090226740549 0.029385652250968747 0.7188786441233233 0.06807355573946985
Ni 7.452848963490537 0.2303442734024659 11.75043298975205 -0.010081295495401993 0.39948566790542817 -0.41993493689871547
Ni 7.889357587009333 2.5722941674935766 11.75745770141442 -1.4267509098338136 1.205444490777711 0.08699867477874694
Ni 3.564558917721061 6.622020597031972 11.949549553998736 -0.10225354405528843 -1.2001099659386751 0.1444872559135189
Ni 4.478703631803092 8.62338503911375 6.088246806108683 0.8862415190834351 0.31291662446493207 -0.8558551934820938
Ni 8.929432094707687 8.163349953858805 5.826085969780814 3.2015525688315316 -0.28583442353615934 -0.12064670185049545
Ni 6.808100234169081 8.332068557443268 6.072130856780519 -2.4164603049956126 2.391108456494385 2.184185302743148
Ni 7.204690479104571 4.210849004088393 1.8123100781429575 0.6082263344813782 0.8424309496563878 1.281738120434128
Ni 1.777701536137451 5.271570312455154 8.087231835936409 -0.6935280811736766 0.2945430070537508 1.4633922152059313
Ni 2.7451292096556474 4.508266306162011 10.208320955814497 -0.9429703392340469 0.2511438141325094 -0.3535174287054299
Ni 3.143703836416667 7.500871003668325 4.320096145845915 -0.5779549371913466 0.49628795903815814 -0.8372128957905581
P 4.964286479351351 6.754448087416538 0.23749543172069576 -0.44063103179548635 -0.39938616621308637 0.3864370622515861
Ni 2.2031253104820157 0.9327056064129036 0.6182401570372696 -1.6139701573982204 -0.15992981572083426 0.6264559701155276
P 2.824873669993161 9.462178621923156 2.491399688665547 -0.7973813656159171 -1.0388300639478496 -0.2988588608202853
Ni 6.465623620131604 2.8778428202104056 0.24431616739076786 0.5053228155469168 -0.31883376128031543 -0.7562555421098848
P 1.8516589852907497 4.124126903471346 4.492289725045779 -0.059635195164129545 0.8692742951014772 -1.7474790599233647
P 1.1459482003524784 7.125850527692182 7.159003548702871 -0.7037955245379557 0.107945195123427 1.0623852255599704
P 6.141781735888276 3.04066365641574 8.055635862432542 -0.5720090040205568 0.3008427240195335 0.29340349413266886
Ni 8.570369740481958 4.7476473621011035 4.3521249914782345 1.6051307047297196 -1.8008623606405116 -2.214790686333831
