# total energy = -340873.54011514236 ev
CRYSTAL
PRIMVEC
9.16609461477016 0.00000000000000 0.00000000000000
0.00000000000000 9.16609461477016 0.00000000000000
0.00000000000000 0.00000000000000 13.41550599175595
PRIMCOORD
 96 1
Ni 2.9623533621976574 5.664866282323013 11.657806329521716 0.781467522599138 -0.1291567962040356 -1.5840129489144976
Ni 8.365417658261707 1.4263084404382953 8.82591398792569 -0.18814741580563082 -0.6368977342741418 0.12820368826214693
Ni 6.005148368237086 2.098082327803788 1.7676006299475562 -2.7350032745083865 0.11045844846358396 -0.23209656769307122
Ni 5.381184828897879 4.662590531693762 9.346166836356499 -0.48801723438893374 -1.5188658227932035 0.8734723923432248
Ni 6.7143657509414165 6.891583018721362 4.089515314856918 0.3612320237408682 0.06621541948480854 1.0508201464301903
Ni 3.4611080529864333 7.177959303879573 5.969792909186666 -0.507388439826694 -0.5865041123129383 -0.9663727773183873
Ni 8.761860404136872 3.7910691166847097 8.662633766574803 -0.4383545770564838 0.09779268007045738 0.009102219411584324
Ni 0.051371375673564985 8.006290082404757 3.65920018399396 0.45609184643524675 -0.5732246215952128 -0.4408012388247634
Ni 5.943368892451588 7.8908797886933 6.324082620456141 0.1902238387186853 -1.376237474465294 0.12737913547832258
Ni 6.507532832380618 0.8905593929328622 6.84314204340516 0.9713627743338109 1.2365507252642123 -1.078532267633478
Ni 3.314734692627586 3.360995970712068 4.133008432453683 0.8271925354400786 -0.4407279623846668 -0.8787457249270222
Ni 0.5652281234807658 2.4914819303613283 0.5878555439442795 0.7924253071622224 -0.4649343844275412 1.2274708744501313
Ni 5.153829025131778 7.241287849606874 2.3933396417585224 -0.23599178898241938 0.04793436178743358 -1.175492424500311
Ni 2.439088535169947 1.065118493357052 11.477595415333528 0.027790796960023102 -0.006160620284757131 2.020845175789184
Ni 9.110804449192976 4.454410197266426 6.253919834796249 0.8389555895132778 -0.6045429720925202 -0.0010132717558627709
Ni 6.062042315744593 1.978501461172094 4.209463741871253 0.8269691065753629 -3.065344522207669 -2.1344722517887367
Ni 9.018126069420399 6.148295263391705 8.107365521193223 1.6710039103837608 -0.22074334746378113 0.12876161764814598
Ni 4.193231505421914 8.035979061940251 11.155690431942059 1.5265215395662484 -0.08114401577018283 0.9433086964100722
Ni 2.98196880406427 2.1133255426748985 1.438034624914911 1.3215462535700016 -0.5445820181578558 -0.9138867916045293
Ni 0.4361191017928365 1.26623176905581 4.22415332464482 -1.1146452113059513 -1.2966253219586057 -1.6195594785605398
Ni 7.0387996597585865 6.373442038424229 13.287937543142775 -0.19029557249688517 -0.7087454123440632 -0.43041192517063936
Ni 4.411558706272775 6.61657269053259 -0.0203395633186976 -1.140757335011971 -0.4373569890299049 0.17055618508642886
Ni 4.318348693029045 5.713510744933345 4.1171520058718825 0.7279875484031268 -0.41366967271529403 0.48446936913667527
Ni 8.852769727703722 6.806851642733061 5.83075425751084 0.14690923509145024 0.5208875027543932 -0.3470151088105378
P 5.789277680666718 5.612491219320292 5.755614282629653 0.6999167583088398 0.721393440125377 -2.3807980757073124
P 7.245440090338451 3.387375990194363 0.3173146033509099 -0.03851975334175301 -0.9293211238817285 -1.1825855839016666
P 0.7727631648672568 6.201962745694984 2.3148723746354745 0.5220339576540106 -0.8886465289805018 -0.031542036472339226
P 2.8862289487854076 7.9055547057159385 3.808098803340775 -0.8946603392747496 -0.7592812163100859 0.256709481145745
P 1.763354895053811 5.791147563910077 6.646886797701404 -0.6777579628236133 0.6903648529543466 -0.04659687392293266
P 7.811730564152087 3.2886938186355086 4.783164086341416 1.2448386763046173 -0.7541996880221206 0.7122282286863412
P 4.93553848865824 2.114407141805861 10.756753591799649 0.02274346434410277 -1.8362340552715861 -0.6863210219022761
P 7.726586713918926 8.72998989415079 5.133563707177156 -0.09598236633459599 0.3510887646592792 0.4835836240976123
Ni 1.7602109246985551 3.832096554906652 1.961280203144528 0.1544266265144179 1.6120384875931464 1.7204757918616433
Ni 6.662797304239752 7.9011366482487855 10.989043504143691 -0.21778657882830235 -0.3421253848184043 0.6087510966365968
Ni 7.170149791510249 5.739441625793461 10.349150209468041 1.046898699888597 -1.1457984969803041 -0.1843835778878244
Ni 1.0265109040382805 3.4312357515643352 4.159558024681085 -0.7756668567569609 -0.0028377265591112417 0.48232429776921454
Ni 0.6150605119162914 0.08403383620977364 13.303459407281522 1.626965541216624 0.18420874287285693 -1.1595125041322867
Ni 3.5937047735670005 4.081817628838422 13.390015752650964 -1.0984320918811985 -1.3743199457276074 -0.5822329957414102
Ni 9.107807136347004 1.99019739753742 6.328067121661476 -2.0023072648859968 0.03599904380242832 1.0345329792343925
Ni 8.404575213240289 7.905866352923165 1.1999150765768658 -0.18172942809442896 -1.6858237490054127 1.934701135701249
Ni 3.240452664175704 3.540174782678675 10.770852878098351 0.16300896886679023 -0.8526397718685897 -0.8106420872805652
Ni 8.994532542614483 7.483877702149754 9.998710257817248 -0.7965269880354217 0.23275554143330882 0.5667901788237787
Ni 5.545047097238734 4.594669772707034 0.9000371344702816 1.1830648375309303 0.7630841349959439 0.6086649646806938
Ni 3.2541834734823327 4.212278649440055 6.198567624355081 -0.20265100873844452 1.1253510277592296 1.2487871194294042
Ni 7.344837217255061 3.0279367671301864 10.605627611530597 -0.0455846306083344 1.1092412666815605 -1.681994862177626
Ni 5.5859187118570635 3.3976328497498485 5.684364398182199 0.13573187831839206 2.564648406799486 2.7141477712156163
Ni 3.117627000151122 5.942122303622681 9.248059378912147 -0.31878491032025097 0.19999017407682976 -0.38961828819304517
Ni 8.623039905506102 4.499122405409105 1.52947466534348 0.6479244244019486 1.778957333037304 -0.3059738745985118
Ni 6.741919030497975 1.0132200672595009 11.535496716607923 -1.0113894512383939 -0.8742383239749717 0.10287677946158412
Ni 5.608192321079431 8.487555865211524 0.20276500589705873 1.515673541108151 1.5389289120916656 -0.27730633146049016
Ni 4.791584977202564 5.8165651434877015 7.447336150493007 -1.6173367598776083 0.6726833765141834 1.7111100343760273
Ni 3.3352759100215477 5.660209906403274 1.9607164883432213 -0.5001757241283386 -0.12631238477670506 0.4044275852917358
Ni 2.1772498845336625 1.9015154348928056 5.905438677503817 2.2178484993235483 -0.9586039320062459 -1.7482462771066922
Ni 7.978269332037358 2.521620048519002 2.5869523024668837 3.0560109035115692 -0.8821539792776227 1.2325025233367677
Ni 1.4178847997488482 8.754527528672718 5.7130597730923 0.0747108585503294 -0.026895795949579488 -0.9959682315873171
Ni 1.6708140066961856 5.324226718730061 0.12596321811380715 -0.856593357199699 -0.08710049046393387 1.6481028374158715
P 7.909074485938733 8.391293542555841 12.676364730119122 -1.2471845508289745 0.26931868526932323 -1.2742117301500957
P 5.3562530523197545 5.914211546387245 11.605096704075942 -0.2911231827389244 1.3590108261743628 -0.5209985744109608
P 3.527626399540641 3.7766875146806376 8.511105394764655 0.03255402267662135 0.8456219457898598 -0.32256700307050257
P 0.40051524158606905 0.34624738010416317 10.433587353828344 0.3182616908269293 0.5576123689792526 0.9744036180426638
P 2.2931184829616282 7.3639393578391825 12.634373935383076 0.5688213503211945 2.318073700094898 1.5852460499906504
P 1.6148733329990195 3.3034787287901093 12.258927961790084 0.5554734682593787 -0.1753965438978657 -0.19407895079871737
P 4.443456714541845 1.55115981130985 5.594131532376916 -1.105523194400025 -0.6382984712764105 0.094318862589244
P 0.26294683144080494 0.6226298726141646 2.049379202189742 -0.20161999637076888 0.48118169952433903 0.7816528991370667
Ni 8.385399743901527 8.531287301260873 7.513219286710133 0.5067564626696498 0.38404645053222247 -0.5783619428217781
Ni 2.7039703291238557 0.9974818832945601 3.401246124134811 -0.22863560572766428 -1.1728480448989285 1.0257575470346076
Ni 1.880130936820466 5.708790206353297 4.23823977841146 -0.0599493839704387 0.7113633095828845 0.3246040881051893
Ni 8.754940002917575 1.8965749100488318 12.096546934292988 1.6919018368786924 0.021227541920208603 -3.5457708316232224
Ni 6.500218289105124 4.166567337015384 3.2936545088870086 -1.9129532025011957 1.2992265070268785 -0.04103712044696804
Ni 0.30103653642992073 6.635766492060014 12.324476535564157 -1.7624449372045776 1.559949994428023 -1.073381319560158
Ni 8.556576555517875 5.233720703313739 4.00227426224101 0.6293322632220582 0.4695322882108688 -0.9462664934868156
Ni 7.1495169131729845 5.157027992053017 7.363368310162411 -1.5353941594655298 -0.633444999838851 0.37974550916402344
Ni 3.7638916469956882 0.03402087571594322 7.154462021064124 -0.1669864654572995 -0.6738246892074782 -1.6743792546138971
Ni 5.993479930154751 0.173999968670048 9.154888779874039 -0.39577119516831843 -0.5591450035736951 0.22661908951826779
Ni 3.0532901840474995 1.0173264775194273 9.247066690896188 -0.8245890363789605 -0.4293420891452283 0.3306168699581725
Ni 8.783868196623663 4.318302862557394 12.379157787900354 -0.4901563922191236 0.3017009582547707 -0.6186603853305087
Ni 4.887425659519058 1.8910019246960745 12.932708307204456 -0.7910585087216828 -1.3290916700174271 0.5998849044952185
Ni 1.146504244914833 2.3193518449346398 9.987655948055036 -0.5463648210898913 1.362244759730628 0.33719066652094837
Ni 1.7741800524577687 7.790336899985417 7.775184429448175 0.14902011078686594 -0.7562964226501492 1.5448054254771009
Ni 2.0366786618858272 7.929533208483723 10.539087266349997 -0.4249437029672165 0.4132248718683915 -0.7912107180288309
Ni 7.672369265955836 1.2596963437983826 0.5031470831918037 -0.5698078826041799 -2.0655381478211843 0.22802985382286536
Ni 4.75857787151954 8.837535678926942 4.2540027108310925 0.6116834397920434 0.4831552783109421 0.2886605801310448
Ni 3.199691042689337 0.07448643235544493 0.3601807600954891 1.2452351404120876 -0.5133274310189481 -1.2556666201580569
Ni 1.6672300638130801 3.0696974928985443 7.695938960916494 -0.04248670840930102 0.504831220622479 1.4369782439887768
Ni 5.542168943619053 3.8167066825262586 11.867181922649708 0.8863631322629638 1.357801893467926 0.7183726510211822
Ni 1.7521630938766457 8.085796784624847 1.6377115736321277 0.029964407572574205 -1.0764381041086106 1.5859759861781395
Ni 7.149865224757532 0.00783334421458268 2.7897539727412632 -0.8914009517971875 0.5433486599713868 0.8524338265053707
Ni 4.6904554584575475 1.873036379808897 7.988128383098913 0.452529325894969 3.101010865261027 -0.31259935033482933
P 7.117664735375565 7.378770098465434 8.780474908502626 -0.90146759200457 -0.2944332209487639 -0.48726904336899945
P 7.043135222376768 5.943909692017069 2.1403902694036585 -0.11138764514607268 1.2578019213335048 -0.5906970673483634
P 1.270228186183774 0.8035108282978882 7.788787830043614 -0.21472208097036571 0.1987827840322899 -0.5608321614681309
P 3.9359392375734052 8.12965654599482 8.98581283707817 -0.13066809064223947 -1.0529171381685352 0.5553325718061404
P 4.4290567803491125 3.473005643427023 2.352181128387658 -0.969419534564511 0.891957852741922 -0.11638895501540601
P 6.677701373620645 2.6955008579627573 8.224389047506794 0.7989618227291595 1.2161726758284925 0.26065638160863497
P 4.8783237278491764 0.2516395374750792 2.065746180225734 -0.5104665645313853 0.3172219367085053 -0.2289719060211605
P 0.17538588213277315 5.18673530377717 10.228544573490232 0.44067525476986047 0.11634524626166413 0.6330943013676517
