# total energy = -340862.45301474875 ev
CRYSTAL
PRIMVEC
9.25899212459282 0.00000000000000 0.00000000000000

0.00000000000000 9.25899212459282 0.00000000000000

0.00000000000000 0.00000000000000 13.55147088760708

PRIMCOORD
 96 1
Ni 3.3468941036661803 3.318487516460847 10.871531469492522 -0.8926975591214239 -0.028903056187595384 -0.5244533657287807
Ni 6.639558291666899 4.473528240284483 10.515507489947767 2.56045622309501 0.9471730644614849 0.7164834044182693
Ni -0.050367064237148595 -0.16255271391599474 3.442398753505024 1.1617550203095606 0.4016939884106566 -0.05369851796472042
Ni 5.983503160304091 7.075471631180292 3.0960911600793275 -1.3915933880960742 -0.7391011418177852 1.4594471145152543
Ni 0.4357559366507821 0.4374966271314218 8.384417170468234 -1.7240681371985922 -0.016475886167836143 -0.09749571765532887
Ni 2.990885864407685 0.6117323370499229 3.8626431009950837 -0.3273163448300298 1.5363176997210637 -0.4968759703311442
Ni 6.475813019591828 1.09882012489574 1.0338266311252586 -0.9196884858879709 -0.4568256392774777 -2.318821119783884
Ni 8.387396714067542 8.093062619976818 0.6172182897615135 -2.2310192323775513 1.3221885151396906 0.5150837515884226
Ni 0.728266935232793 5.391807281765361 5.645448106375173 1.2639080342312428 -1.675049284097728 0.13191481856514703
Ni 6.239856869545963 3.0591338938374477 2.13376061274877 -3.1572732872981817 -1.0768808480729841 -0.14446951530170604
Ni 5.330809043007626 3.0469027655133782 9.54194300772274 -2.5230099053230934 -0.7167682826485398 -2.157488510178252
Ni 1.1895397277112079 7.593604818928157 2.2128064785536496 -0.3046924367829269 -1.653053239442611 -0.5478128663903276
Ni 1.292888595503232 2.911091872055807 13.127919097106401 -0.09580316044425437 0.14452813645378337 -0.37843836031682565
Ni 3.3188023221860696 2.91167518854666 2.4916271316852674 3.7167548482756896 0.3559360654492515 1.3828727203936249
Ni 8.88942851486949 6.834358222635936 12.388958026207977 -0.13116405644205154 0.9274452470152543 -1.567097918326714
Ni 8.414831107121454 1.2988699042824514 12.51325165961838 -0.018041173772426995 -0.24725990569707096 0.44547910391640694
Ni 0.08577807882867307 5.110870948980414 3.3234031152702705 0.8673948186905772 -0.020537714942035594 -0.567126479117275
Ni 6.6853903016624665 6.285068527083005 7.952300943540534 0.21163624295619035 -0.9749276088669339 -0.6502548723073382
Ni 2.3555153209903517 1.209724330093094 9.4596176069804 0.04901782465959945 -1.0699301277867637 1.1975997979223114
Ni 4.906191673634554 4.515267775852163 11.98151886454092 -1.1222834445774994 -0.000784700684824455 -0.7212481727967642
Ni 9.023202430105036 7.31233516243415 7.380632264521079 0.21138607461859726 -0.9651713008111185 -1.024400261675765
Ni -0.23738944199481699 2.6763116139835654 6.313670479017814 1.5912380059080273 -0.13872669928065787 1.3540069452018682
Ni 7.961279388003707 1.4041724193692362 4.855369992894217 -1.3999579580106856 -1.4087850693840125 -0.06949589000829322
Ni 8.77376518782613 4.253117937669438 12.121668521611404 -1.5427410867489044 0.030559875064728015 -0.11194300342891043
P 1.832206356760159 5.778110942580523 0.9841317697013784 -1.0128989459043847 0.8131609970476769 0.9542929633357177
P 5.384390829238807 4.869294590840143 3.682218680878394 -0.760742888457277 0.10028819279880147 0.08425839302944844
P 6.902152561461702 4.138195329979543 8.453285552356522 -0.43215127645924933 -0.20404068999711958 -0.7164517798493855
P 7.933252419467023 7.222671084697367 2.4216884103312237 1.3474123227034858 -1.3995072436265124 1.7171513554741007
P 1.8680479144758841 3.8920265118477975 4.1043064936593865 -1.2281074795928655 0.7229684979219807 0.1164879424871155
P 6.4563506185795685 3.3500143839426464 12.769930359476582 2.3674157408631356 -0.00855046067317237 1.0200563828847724
P 6.553144120093439 8.861855236936803 12.656477153804122 0.6008045880960103 0.09144616902713928 -0.1362332434348428
P 6.181923357113183 2.029311776716852 6.539803764537558 -0.08417740327986793 0.48978512492263393 -0.16683245637793848
Ni 7.351778468006093 8.52806857828222 8.351662560658069 -0.6905702840969332 0.8623811675260696 -0.6180273797322001
Ni 3.7532897769440448 0.12679633892591782 0.48618873973055055 0.7800734704650888 -1.4798436758937352 1.2712464768741847
Ni 5.814461744851754 5.93970812853055 5.6231154178682425 -0.4333100726540408 0.15405021701160565 -0.9051527541656411
Ni 1.461531874303082 5.485036071390688 12.303149392705974 1.635781853956673 -0.5912123164218851 1.2251874777325933
Ni 3.27983122520196 6.538496394878694 10.524194276165511 0.25297778201745463 -3.6633291243563817 -3.4770385592538315
Ni 5.72029779704268 7.94717794331214 0.8652490911680284 0.24674799905765893 -0.11474164921997013 -0.32170439795989114
Ni 1.5662695908828508 5.9949565333070245 7.9559054690943265 1.3965095944507693 -0.6088552263146289 -0.5579214155792391
Ni 6.340196564964541 6.510876821986416 11.412004752940854 -0.12766504214985755 2.0598956048234265 0.42864197775441015
Ni 1.0807095367035524 5.244005993773597 10.047778402404724 0.4567317940120908 -2.266861695997457 0.3256106749928328
Ni 3.463687027723571 7.932206153380255 2.6803855704276165 0.6533733633316618 0.8554559011611461 -0.2619794712954327
Ni 7.103183793991754 3.75163241739067 5.346963206207477 -0.7059686209298744 0.27146607062962924 -0.6531473633637849
Ni 4.832369731069977 7.481126585104692 9.137200990401483 1.0624369047335123 1.0783875145254975 0.5196582583329824
Ni 4.030957685581835 6.135545066594436 7.457509674418695 0.5768048827473035 1.5773188247237737 -0.7614394003036693
Ni 2.3803479373152223 7.977723357650601 6.907293153774741 0.8461441368419169 -0.5672578624888167 0.598238370030731
Ni 5.178054194339572 0.657911559242426 8.43116952426048 -0.06209059868315758 0.04786828443618853 -0.009188865588119658
Ni 6.708537781458207 9.166559401976018 10.471234694191242 0.34911210054888264 -1.047971878348118 0.5563067627939515
Ni 6.753730921011411 2.1201980413868493 10.896683521038575 -1.8137345886174892 0.8796985757585947 2.268660953989725
Ni 1.0086745795792065 9.219956008368833 10.794071669003248 -1.9287125222179813 0.3770805607373506 1.012905630772604
Ni 4.954227323706675 4.104974066976696 6.998345154400075 1.2639124051066168 -1.2120997913106997 0.709466606780804
Ni 5.755019016736292 1.8509187794270359 4.280922690400082 -2.0202710484532687 -0.26590194627829045 -0.07519422594465114
Ni 2.897073758291506 6.2260980075553745 5.503319802731747 0.3965561529634589 -0.7632805672774662 -1.3721044261335273
Ni 3.098586458401308 5.7002428205476505 3.1220422626279287 -2.350858864945719 -2.1536927905812457 2.3063093604701184
Ni 7.134479186675595 4.936829677892197 2.485041210733783 1.371576064433883 2.3732464886122995 0.11835764870600261
Ni 2.5205568519339847 7.669760027456145 12.005084850771368 -3.545708868037035 2.4176376131331656 3.7550084924402496
P 2.088393404147501 8.18474515795179 8.947670351733148 0.7968563463503825 0.28766839142110456 1.4176324924723134
P 5.435074550999561 8.087803512567225 7.124292443767085 0.14041282873382915 -0.2317846928796073 -0.8261913478690738
P 2.186844265214747 8.172764022409513 4.835855741527216 -0.7182538660551308 -0.617367377550698 -1.7951457698717084
P 3.363023267587853 4.8254440051150915 8.851440722827103 -0.49971472533152006 -1.7821917808142018 1.3995139284947316
P 2.9890896199755352 2.0853286778225453 0.5075390491949502 -1.1047726893872456 0.6023410793451949 0.3749367749214704
P 4.216683804470942 1.249056527762017 10.524180387677635 1.8268739542129249 0.33718475298367734 -0.7292736142044021
P 4.131019611242864 6.41221300410505 12.548485827464264 1.4565844482554786 -0.16950023301808875 1.5787491294123972
P 8.576206077265441 9.17617023558721 6.433262396332105 0.902401159562433 1.477645639801152 0.009803359243666987
Ni 8.988138627710446 4.282802265759496 7.926566501402821 0.6381094951940558 0.7343075770838837 0.5086418526178207
Ni 2.8404179867434505 0.7081860335603917 11.984920618171703 -0.834473385372208 1.6335578497221606 0.7973158024853043
Ni 2.30030395218155 3.9176831784533968 6.584076560294084 -0.5921847076374833 0.16190493716933407 0.6407752149516771
Ni -0.04905413918313417 7.381620198958762 4.837875127664597 0.8344479314509113 -0.3960707286866082 -0.020248208726074805
Ni 7.060860941933221 9.26463990336653 2.9788028799543085 -1.1560903658246156 -0.45677087478014233 0.5220280441167396
Ni 3.5205927920534204 2.401143633163716 8.049017595421482 1.8198700120912659 1.130810251101588 -2.0230612096038967
Ni 8.34229616443352 3.2290549135220226 0.7745452286388218 -0.750325806889011 1.5774383810207737 -0.7124855961127858
Ni 3.3014602303231 4.544776183095774 0.2287146924665651 0.18892028941591332 -1.837425504476526 -0.3966939640929039
Ni 3.8177508786792242 3.6988191274887074 4.8886255141671615 1.9565786525006303 0.23569019858160056 -0.9574680186295899
Ni 4.79827812282681 2.031654301672181 13.064729254961605 0.5631042453317593 0.49244056026760996 -1.7048344857799607
Ni 8.809504896630756 5.733649263388864 0.8574733897550433 0.55647157050659 -0.9444081001218381 0.6991960780927313
Ni 4.639347526549252 8.338861078431831 11.427074688187073 1.0293586341223047 1.0398212242165252 0.8941183507283506
Ni 4.745020401312769 8.605714484509052 4.771377973606584 0.4470032538704173 -0.2862398865046941 1.0321523948173579
Ni 1.0135725863039853 2.838306936586079 10.867696395039966 -0.664056811187437 -0.5070757936822815 -1.1462834070365227
Ni 7.318853492744631 1.8361414283254351 8.427388151961047 0.7546766276585389 0.5702884217850243 -0.036725123335175455
Ni 1.8158364590486111 0.6500664153900535 1.9450697646474244 -0.3978257637045019 -1.5158607174182925 -1.1063696015607205
Ni 6.220283360630685 5.324559223462776 13.773850446705744 0.7678576451251873 0.23765040763176493 0.28606068061435247
Ni 7.078703019359778 8.048776861631607 5.389853634470602 -1.0853294930609696 0.06929662951329356 0.20435436458279643
Ni 1.3314522968429365 2.7966507319456637 1.908859699053351 -3.88984588396883 2.2297905021767725 -0.17871995184414383
Ni 8.713794697171325 1.0997738010633245 1.4864200445794626 1.6461223166507326 -1.0348173432440306 -0.4396923220313008
Ni 9.523984266998013 7.33293641945236 9.699546790458406 -0.770630322774318 1.1866867505542336 -0.42660463560940726
Ni 0.7864458109514081 1.9405365622042265 4.161005782469458 1.1679310672132854 0.9521370933349795 -0.4669228756124797
Ni 1.6178051399000881 0.8083099944672731 6.351140693411967 -0.3788960166795346 1.4236825553211352 -0.9504332232699954
Ni 4.349504043538903 6.114860478648962 1.5528496079964718 2.004661109830154 0.19761473186611772 -2.935281155028964
P 8.554540036176627 1.5525755418356904 10.33427013034065 3.009583722397281 -1.3858297461394198 -1.4082615927803748
P 8.351629228287162 5.903635096016868 10.572776206760812 -1.5667929854917857 -1.5553063250084245 0.22193839621314682
P 8.025064583328849 5.669993693950576 5.962226922775038 -1.876713503442871 0.8858363132252163 0.7217143137999055
P 4.950394101052501 9.72823762871563 2.5219697741007163 -0.41357042813326833 -0.5394704079629032 0.25600936975492683
P 0.6221292590749778 8.949621221330334 13.077250189732718 2.359104135673647 0.5141465844861339 -1.1701771829349847
P 3.603720021495885 1.5422147298791165 5.579587970961139 0.9068185719038383 1.2687208822388538 1.9259005066904833
P 8.095155152150353 2.5636296823378992 2.879782590884088 1.1605841399299108 0.3281876916913896 1.681011415218434
P 1.428921704766842 2.58878636337991 8.11356387988231 -2.494454462282904 0.3836199045177651 -0.4681762884036066
