# total energy = -340863.6049367106 ev
CRYSTAL
PRIMVEC
9.29926331714672 0.00000000000000 0.00000000000000
0.00000000000000 9.29926331714672 0.00000000000000
0.00000000000000 0.00000000000000 13.61041184858612
PRIMCOORD
 96 1
Ni 1.375128569686285 2.2525884620173646 11.108940929250668 -0.35484488926760177 -0.9786991600942242 -0.28502915402604456
Ni 4.600652460974503 5.486490989594931 7.148311199106361 -0.44324738637241085 0.06028054205761231 -1.172902809396264
Ni 1.4350251250022568 8.901189795460517 8.347225237563187 -1.092312866357338 1.3718282896540053 -1.1830378409477367
Ni 0.18797716945631446 1.7329735231273526 4.82327124630771 0.514304707330553 -0.12428069905865693 -0.6675807651802955
Ni 4.289285225817744 7.247083324908037 4.297038021682815 -0.8292113656423203 -0.8869884245517885 0.8947405576933815
Ni 8.33485535743878 8.437128655896327 1.4037098556300265 -0.21330077514280688 0.60402695168805 -0.15634826901716298
Ni 2.011523657878886 6.71197581325659 8.418651949521958 0.1830489182368009 -0.34308672029040915 0.2929800334420051
Ni 2.5961125498806346 0.4497542228814358 12.9507149037895 -0.8362029664688051 0.39585809845516984 0.8310597317049687
Ni 0.9996429136471111 3.7323802408452837 7.777125527806092 -1.0511541327308411 1.5218986960822565 1.282323560623953
Ni 0.35822343345990976 6.456022888475218 2.270407710472025 0.025875582215181242 -0.5335524998165714 -0.5972430959969972
Ni 8.232656453088131 0.8877913739264914 7.738076991021851 2.0499343798456566 0.6945374962747974 -0.3920058145886152
Ni 2.7397303732465517 8.34564250293894 1.6605378410937814 0.2349018983523503 1.1239346070276772 -1.1034873949169188
Ni 0.931181736774547 4.177071014825998 0.820328008012692 0.3314342236531453 -0.6477917554788263 -0.4657823342501333
Ni 3.9229500449269814 0.6871923143086541 7.879285375250619 0.40624741210929394 0.1534984582731937 0.4480561206149638
Ni 1.8799018842502153 1.797705695391672 6.788070755423189 -0.7642794408556257 -0.9741290242250386 -1.0977281238356384
Ni 4.66078149787453 1.9716670151084688 0.06211535955419447 -1.1816203917749197 0.20223680401916136 3.146504735927768
Ni 2.6245589965056246 5.852621586691726 1.3579816579727122 3.282927726775914 -0.3227444091886313 0.4957187167982495
Ni 6.046911096118306 0.5630080915170762 1.6841384415807255 0.9058708632785882 2.6282294739852414 1.5727898265051687
Ni 7.754785907431064 0.09766086382989256 4.74582791095359 0.6366046285137553 2.9882361099594403 1.1938009930015119
Ni 1.5903321224144673 4.561056197578228 12.09502830669469 -1.9760781559861385 1.2260020032140886 -0.042926881270513174
Ni 6.191114773076042 0.9061174322343918 6.7171062168535185 -0.5574344486404916 1.8927921541722885 -1.3409457411425358
Ni 8.107339580019035 6.936218249972837 11.967962242187165 0.7297397552075432 -0.7223907710416397 0.011048030284045489
Ni 6.617960260664682 9.1246603933177 8.836137728536537 -0.5457122751075569 -1.8914394967991361 -0.12308719297118802
Ni 0.027804797452997406 9.188704420093217 10.48800679632407 -0.34497853799648326 1.0149465724620328 -0.5630713352112948
P 3.5045575877345865 1.4839392502874629 2.4456281504480644 1.367655646333554 -0.1683604629866907 -0.45294918704120707
P 5.056818525944181 5.422707342193558 2.1227205294588063 -0.7739100219668542 1.2253065198089608 -0.18235857703799563
P 3.185853233785046 5.205160375098099 5.521689631347219 -0.5764845232934072 -0.2857539480072111 -0.01090173451416832
P 1.3847905043196171 7.416497304840716 10.541372478980763 0.691947366950118 0.27267654599796265 0.12480057611786893
P 6.176533528124102 2.6860736236466205 8.046965042566246 0.9125608737042541 0.42716847853267725 -0.4377074303907881
P 1.995082560254505 7.517589596851262 3.4771740469118972 2.2618650141138144 -3.76913104788456 0.631041789713997
P 4.083185651921161 7.5410888353675585 13.335277570796523 -3.700181260187724 -2.617210754277235 0.763160496759834
P 7.319180513755224 8.818956409548525 12.68278080809226 0.7763230022837211 -1.3457917563809274 0.9969457650092379
Ni 4.366441213933971 1.33456518290034 11.645599558030932 0.10339459963826708 0.15605182082266672 -1.6994750212402603
Ni 1.6171790957411576 6.714551709207921 13.427215667953314 -1.4468278830893468 2.0317168283963656 -3.382099032361453
Ni 2.906763741758505 0.1407917772301425 4.00195100689427 0.7759306519413088 0.25565584307025 0.11870654740498912
Ni 7.1676118202146215 4.56645906959167 10.533642001347761 -0.7582028956442426 2.2046368857292804 0.03300113751636897
Ni 3.948876391180813 4.227854292047008 0.022762736858009048 0.38974684335110943 0.839522003539709 -0.9390630337598408
Ni 1.009816307765365 3.97962905511963 5.44647811920003 -0.04267645582260392 2.0132359959833583 0.7251940448183899
Ni 5.428175309050535 3.372424354620995 2.1239861592024023 0.46335649841746007 -1.659330844921207 -0.7696401909469068
Ni 6.8052939210963315 6.185219040104403 5.744165208024648 0.328704226316492 1.4357855092322562 -0.4632631673727054
Ni 5.185492433087032 4.97922547244993 9.39080345089138 -0.24169089624972567 -0.3049210078539652 -0.22961725291464327
Ni 7.9827201517021065 4.246592307721854 1.788639843539857 0.8235335985312527 -1.3788435446295737 -2.1354405292392773
Ni 0.9873678860089985 6.996263593502604 5.511713381612244 0.14346395685532712 -0.14735249327645591 0.22081430991103262
Ni 7.086326959165574 6.436420041307686 1.7539331328194299 -0.04580523125957273 -0.1040905972640272 -0.3343575679475274
Ni 2.5076021611991535 2.433449835148919 8.947335530042794 0.6136832438308915 1.4472485155665333 -0.13568714112338567
Ni 5.664999649095847 8.035363281595558 6.656253697263912 0.5649760084331753 -0.21645474739075624 -0.6438114306748396
Ni 2.671269196373988 5.246569994850004 3.3919323493022313 -0.03460679144059201 1.2472205462732329 2.684686271421389
Ni 2.817602404641669 3.3814074430288863 1.9822477169619876 0.7659061778257713 0.42817326564810776 -0.2548446600228643
Ni 3.4461768123466547 8.056565602061388 6.735057514847922 -2.3939397552955937 -0.1990820604402636 -2.20207606698064
Ni 8.281756563640581 7.76058864776908 6.808540293936078 -1.097774917913174 -0.9633015945922313 1.2738569179138386
Ni 4.310273663226244 7.276013333227862 8.647279918839823 -0.10663496095243569 1.482852380813072 2.356859562613844
Ni 6.034673265533642 2.613985734062796 10.218588538194224 -2.3675504666687868 0.17820753098409955 -2.7605564403871425
Ni 4.495375500450964 2.8571614709844955 6.686101542877586 -1.0838253977116175 0.6146664336797671 0.18344281124110987
Ni 6.231789751022333 4.14074809213322 5.917194741552551 0.6311315212143259 -2.363381937113394 0.4587344262644164
Ni 5.845507650219638 6.32226228427324 13.06790050097468 0.21578420368629286 -0.17344996169445612 -0.12226238307704751
Ni 8.249804294728039 2.504338119759019 10.728801921825045 1.4750156583774727 -1.2484315358621982 0.26458142769465404
P 3.6683455133331297 1.1791372950644208 5.689669664869445 0.47974445285718026 -0.9425959866137639 0.7879253624093397
P 0.37269866680952035 1.7269197026785563 9.106331545230793 0.8701965498054305 -0.08227093028577444 0.21037537396589576
P 8.545725453440173 5.44939622804309 4.643396525018885 2.206610464515884 -0.736517440251009 0.4017394969366113
P 0.9194600153064857 0.3888626463857077 1.127767234325256 -0.3520873811271227 -1.0331900920532529 -0.9843450455260919
P 7.398531128024932 2.3651560450168745 0.5288286490292863 -0.7689760750003466 0.5095736204034708 0.29294866598343744
P 7.313145291833152 2.6476025711171722 4.504597579927264 1.913485163745266 0.2668797368105275 -0.24465923484943028
P 6.30966178241745 6.760880639278433 8.29592678115191 1.726203695484356 -0.6438494830016266 0.3552549802218269
P 3.00894404758243 4.790441126933776 8.609987082978366 0.19557430439732124 -1.9106093848593675 -0.6813366813138072
Ni 0.728519170616636 4.14951729748378 3.132272738144685 -1.4188226561256725 0.5085780892594208 1.2681544682124224
Ni 6.7726535066949864 0.6455446334146762 11.037404485984222 -0.12802165415832792 -0.4760927150372058 0.367542025119296
Ni 0.12812990023616214 2.2077195162947185 13.135640055010338 -0.3390413465764419 -1.0294385954306204 0.8203022360781485
Ni 3.444019383246623 8.164911319494456 11.3196296896165 0.45534082720183516 -1.9041525734904303 0.8648080318000074
Ni 3.2607588001676193 3.662635765628735 10.914856003618056 2.0850631052279898 -2.3071732511323106 -0.038202479211650334
Ni 8.333079198136598 3.1109104703490242 6.377689613617336 -0.5952168095955878 -0.33316071942594877 1.1188337954660021
Ni 5.1808428014059285 7.920136109274456 2.1861861420531934 -0.17209344766656168 -1.5029612357478053 -0.408832913448283
Ni 7.337611653739118 4.700703235488484 8.110879809581029 0.677965193738413 0.5251172245650246 -0.4447144578362405
Ni 0.17575979725104757 8.883521195072325 12.765409412697148 0.4544077738646045 0.5304278381446608 0.9127490784556602
Ni 8.220762695247869 7.405161502802186 3.89142089249742 -1.5076560701203132 -1.484120191781902 -0.37768194176677533
Ni 5.305322740772424 9.05756620815938 13.453511194962624 1.0886086780328736 0.6843888378765698 -1.7483285524078536
Ni 0.8886915426199531 2.092715526294311 2.3573911601094317 1.4488425995265306 -1.149581103951188 -0.22589300998552064
Ni 3.1384827862179665 5.794826664895612 10.439771517264305 -0.6742723182678582 2.813796787768522 1.225199304807135
Ni 4.797350479611896 4.4925578236522155 4.228046786798605 -2.240242807858348 -0.040584349180265586 -0.23122162128728568
Ni 6.037072475481091 7.261831956600497 10.667132926912238 -0.1507221810796372 0.07314711360763532 -0.662987232272342
Ni 8.042644604808165 1.684756842594312 2.4847166740647633 -1.2280313749392915 0.001618252329713342 1.2032402840375407
Ni 6.225029186558009 2.9835291608135193 12.372844729566944 -0.7080892668173031 -0.061123606784197954 0.8880196940297803
Ni 5.4641541589989115 1.887778360318004 4.231953407337068 -2.0932998913154854 -1.2276572794293246 -0.18948053279475754
Ni 0.577795780115657 8.868912052330298 3.3953488986615064 -1.5978331426270418 3.0540766626033338 -0.628994163156349
Ni 6.870100487467549 4.815325955691041 3.5583603357693048 0.2839660028688529 -0.24732624015863214 0.7028257044255186
Ni 2.822837889914591 0.5152545142994734 10.017548693493017 -2.1371749954318804 0.3125623264493068 -0.04679330620445489
Ni 2.6777135858839967 2.8056621504845958 4.4268138915340876 1.1094523542511023 -0.714343218146815 -0.4493015629862907
Ni 8.071583912391352 4.197231817795262 12.542811085743338 1.869326724060497 0.5712129904818227 1.5318663488179296
Ni 8.847812023761453 7.130405467502433 9.35842434579051 -0.8387601856730199 -0.7996596201271325 -0.5956646957662838
P 9.185719356553948 4.37722835943413 10.07621030663449 1.2535925112378477 0.377499393442324 0.0869685928717599
P 2.275120577143991 2.763824764618029 13.069778952173847 1.6773969583942983 -0.1619926117871339 0.5372975686813005
P 6.117780782201681 8.401084711104415 4.248939441794475 -1.9433305292414722 -1.6315297635485386 -0.5727901051609555
P 0.30191918358075814 5.890497486365993 7.5622307106215345 -1.3276549375709006 -0.3983960343856751 -0.9495382222595516
P 0.2911152994065466 -0.13297667630054416 6.139738202852524 1.7794008483326258 1.7045537213147484 -0.5481303976307463
P 4.966978342601903 4.9081047062557746 11.538499011962063 0.8822385685716291 -0.10119964886947733 1.1196076975175493
P 4.817343895840639 0.06046195052839416 9.942079591750694 1.0475419898995506 -0.6935285953943088 0.11123286473576327
P 9.00778725138149 5.696384662943294 0.0764148368262594 -1.0290110209748988 1.911180683981805 0.5644443042994214
