# total energy = -381163.34518010507 ev
CRYSTAL
PRIMVEC
9.39967618539920 0.00000000000000 0.00000000000000
0.00000000000000 9.39967618539920 0.00000000000000
0.00000000000000 0.00000000000000 13.75737623117009
PRIMCOORD
 96 1
Ni 3.7659615202678953 0.7949381465482721 8.872131710860495 0.09734170857596784 -0.5480982588412302 0.04556509022430862
Ni 2.995366655466168 5.515288282736337 8.994971380914063 0.07029653153271764 0.26359052453629445 1.2258503081275727
Ni 2.4301829173951734 0.2694370220186275 11.141108299346257 3.173959746814927 0.8257128655707585 -1.1218921226763516
Ni 3.777194133476298 0.9405034140528463 4.094593943910989 0.07398555034853065 -0.3754548522084695 2.164223514909241
Ni 2.5353464961195327 3.8443830198475637 11.236378718738528 2.456106972852957 -0.6932097786023094 0.9495549344301002
Ni 0.853672964032812 7.11852527576127 9.18149385806966 0.5826225178703449 -0.8393983334776511 -0.15533165482719058
Ni 7.669919688663456 1.0200340754388677 2.9304308715100107 1.6264263808837018 0.8971795061521773 0.6991053181511379
Ni 7.774707280334815 1.4270494599886974 7.256108338130635 -0.9929842092583285 0.8222408478617581 -0.26182211978196196
Ni 3.986562523939865 3.5889092170097583 4.6968782044368504 0.5794556901065891 -0.4788543369427431 1.4894683434676927
Ni 0.939913114379635 6.600490314136592 3.552333196493828 -0.35070618450887986 0.6923214624600851 0.006832192430485007
Ni 8.837961067516138 8.723303815703506 8.08318773790469 -0.899380370458238 0.10086720523072304 1.3550970929422532
Ni 5.360080827257555 2.4128969126334554 6.335753130280476 -1.331190718638301 -0.4979689462850068 0.7745854507673241
Ni 8.595599813151741 5.13514657279975 13.633284902007855 0.36571397077162177 -1.4428979519073215 -0.5200704061697365
Ni 6.407768750444641 5.215147218002023 0.9289324124967429 -0.2637573891314619 0.03875629483259132 0.9734605374031042
Ni 1.1484054550097096 8.881425170843047 6.500965601239613 0.20989432056441917 2.94039919298182 -1.357230080124856
Ni 2.0778360503516784 2.2856722935742666 3.3802147833386953 -0.38027309953271926 0.6746746959125993 0.8839897469347808
Ni 0.9131569357204564 7.286403494926184 12.468323797086882 0.2177513547149927 0.04172591898387653 -0.595833103023348
Ni 7.50716429309568 4.452908665453241 3.1162521328117614 -1.0121024181450182 -0.5507508659727289 -0.683981318025506
Ni 5.0998319888466375 7.019424488266551 1.714334587413279 -0.4035606093057501 0.007175948923148932 -0.32969178704074187
Ni 4.875123326620633 5.950427498850637 11.152678360934727 -0.653463609052623 -0.45716733888761263 -1.5034065508153398
Ni 5.755722603454107 4.354183865011522 12.654130958874147 0.5693592251025356 -0.23835000480195082 -0.7370655994449952
Ni 5.606107955388713 2.1107255178129347 8.773781017536514 0.4788221981532269 0.4197989255414835 -0.3571102882630108
Ni 7.449995461686888 5.9835049598383945 11.583586782735134 1.2556367953613858 -0.8840828208692194 -0.7307486560880319
Ni 7.087102157806718 9.299146786727077 12.328548730198522 -0.21722659255977425 -0.3245837763902152 -0.16255979714451357
P 2.6882322315460354 3.8236285345219128 0.48644452943154065 1.315377405755128 -1.3560435160159228 1.5985286260321696
Ni 3.2782311151150916 6.455359311678234 3.226132469116018 0.3878419130189127 0.2374835430365975 -0.4909261805056126
P 7.769612655766652 3.758958761405753 7.521515718908725 -0.31035014928933646 -1.042049856436728 -1.1421950958997622
Ni 8.59645518369732 6.456158284165861 1.9502598833979337 -0.23925426178377504 0.28420845789696214 0.08710923221468224
P 2.852359979857265 6.315755318898988 11.518129316742936 -1.3173810664487182 -0.6224946714749344 -0.27045691263882454
P 2.216970059314672 5.094549370751975 5.573305904917278 -1.054636434852487 0.054317125385325814 -0.36686222544345204
P 3.1838395654592087 8.439941173209357 2.478859141244306 0.2764067024643562 0.609615501519421 -0.9936465254326758
Ni 0.5463355071040585 2.138727153585179 7.965246239184095 -0.5120405938867246 0.6971844469793412 -0.51529843870239
Ni 3.1513636837562533 4.1909772849801445 2.7935452651239627 0.67779935758451 -0.28252721353979726 -2.681432540370782
Ni 0.007209551741292795 1.4210336671406825 5.564735280044123 0.2580181726548395 0.160343249109169 -0.29537655869863966
Ni 2.1654034349955946 9.350328024316829 0.4832843582510679 0.16491852718467728 -0.8257892273346489 -0.1429330240525216
Ni 5.314943581544794 8.460441867274232 10.61493039812121 2.3019909356004224 0.8335480453444613 1.8662858803516438
Ni 0.7335892790777432 1.3111514509011613 1.7289172452639199 -1.0168353048443133 0.804767373667343 -0.2247984913697612
Ni 4.998550476444513 8.295740738707176 4.679214332686867 -0.3897445293582642 -1.77694595903423 0.9132206187754401
Ni 8.822028616145225 8.678636553806996 4.423863665608919 -0.1763943890347607 -0.2735144685182257 -0.2969673002245273
Ni 9.284755882273467 3.122168289090731 3.8536614403479943 0.13825284496803286 -0.1444468895938867 -0.5067004126207338
Ni 8.463844550103891 5.899857240222012 4.67959877944856 0.5472114853609027 0.1806899310863211 1.183032184520782
Ni 9.146364447740151 8.935294715861755 13.613804072824246 0.5500484405890655 1.8392828694002388 0.7947822374301732
Ni 1.5648581145898623 9.383593478831086 3.608752873699515 -0.18658444219388512 -0.6366719914165809 0.5301149348899322
Ni 3.4186810787635884 4.238417451392537 7.101791971967463 -0.05166169004034974 -0.8046699288575303 -0.2217663894116568
Ni 7.673970949159542 7.9467495561117145 6.307371747584701 -1.4835411793499804 -0.8053646409317099 -0.011968742326101966
Ni 7.228830477435418 3.1007652260986536 5.32671855607715 1.5141133957098827 -0.007868604114799352 -0.4257309747552023
Ni 3.4121483037176974 8.065335872628207 12.495494501471994 0.6759011121205327 -0.17469386140388624 0.6560845916152378
Ni 7.230813809139997 8.518804457576302 1.8319734165562094 -0.3961586604147242 -1.7179481403437835 -2.2709114405867985
Ni 1.5895228652667235 5.187201980287728 13.336152673665179 -0.6568232695534753 0.969920899680962 -0.9942255378645972
Ni 4.615692260049992 9.137359557820778 6.704588909533326 -0.38177333822732956 0.03596484813038322 0.9737569855976005
Ni 7.9735104346090555 1.1754953221784263 9.660897089966126 0.30700077320112934 0.4303949558897749 0.6252902319422005
Ni 6.553520131540451 2.1696426890181804 11.63400758651019 -0.3988446918873196 -0.06813500510502458 -0.5481843907971333
Ni 6.533630416436702 6.411951606409277 9.386575056161384 -0.7729885385938494 1.1018089787732315 0.7798076183982118
Ni 1.062774403688748 4.815002996845785 2.0819314893264913 -0.6736732512312785 -0.5149551964303583 -0.9902711812025399
Ni 0.4326746209818779 8.946311136514682 10.642981852177979 -2.7983382871216067 -0.5171540038538901 -0.2199254795481761
Ni 5.868772510615161 7.06566149610934 12.747364468406786 0.47353549583299087 1.758956464435345 2.317882924240331
P 0.8779128493397819 0.9588515822392917 12.249003969298013 -0.4770684486869139 -0.07257658581614598 1.4696803622074883
Ni 1.4543555197128897 0.28358071498488996 8.643621819528652 1.8878304392916392 -0.6436828755167753 0.8382007136251243
P 8.329927361501285 3.4220179638589716 11.551188918345677 -0.42695481985997435 -0.1102815565660875 3.53878642988559
Ni 3.73529977609567 1.317486832744227 1.7925032356998043 -0.7536978086850374 -0.05635266775811585 -0.5827163631357319
P 5.6465547626152865 1.1111263387046675 0.7007129711633421 0.8129946466731419 -0.03093499901595963 -0.21323624045345857
P 8.016795944085787 7.190536196087273 13.63188153033253 -1.5107686476073658 -0.672274571111539 -0.8485915699411449
P 4.161753691285647 2.4427596843180543 11.039854046005475 0.6701035316021491 -0.0854585839851367 -1.3224638802882644
Ni 2.9605596540346077 1.8660895417778811 13.18636319162014 -1.555490930215405 1.623232556536753 -0.030564245940102198
Ni 5.723594509775177 2.0011534908921393 3.248267766893815 -0.7749508045265427 1.914577111257864 0.39485099734689416
Ni 6.579077851468189 6.672256842878144 3.566531407582776 -0.08857913189198938 0.8459083666820271 0.36858177923772006
Ni 2.337614904946345 7.335131416995106 5.204662819029092 -0.6115875376441273 1.3128278998603973 -0.9900837477820819
Ni 4.668809830962699 0.7951844180679878 12.3135675260717 1.7081365535700002 -1.4057925624145917 0.06902794923293917
Ni 6.552674160671199 0.6212358879323734 5.2610956557816335 0.4384157693117224 -0.05265387875028996 -0.5986052664518465
Ni 0.949621100088119 4.197594657112961 8.918907320156709 -0.599010215199749 1.7922946735761585 -1.3170008002911642
Ni 5.569139028402396 4.531264367298634 8.094179719399174 0.22663683013008062 0.3905492846477468 -1.2387413051576277
Ni 4.760804463155701 3.186057889071914 0.6641679695792844 0.7136294799092419 0.5248423736370832 0.40797905008842
Ni 8.077715246348264 4.0978828906571145 9.690861378155034 0.30543728536875137 0.8061089752969021 -1.6346441408078043
Ni 3.7436936870539155 7.877398744185693 9.385295760213548 -1.9873771259387258 -1.1224929894851443 -0.7689783889931918
Ni 0.1954484097938399 4.285585027191503 6.241336201498515 0.2302829115231002 -0.2955169409312459 0.004063371436096227
Ni 0.4998832466734264 6.859817984267657 6.763511720544367 -0.9700227153661486 -2.220821723019259 -0.7553091190362153
Ni 0.6661682207012493 2.5606410251101703 10.683868564256564 -0.12930874840086762 -1.1128243560471285 -0.5960040813835735
Ni 5.853723628818798 3.9239982783205107 10.163096416886038 -1.3226564559150447 0.4717562924453811 2.20311607820938
Ni 5.310196745000657 9.12439740416857 2.745037295481048 -0.11417960606891304 1.1284031843219922 -1.234946871112202
Ni 4.007354607970816 5.847237852154532 13.703255152603695 -0.48052529688726275 -0.9308501589317454 -0.48592898440133736
Ni 7.562716380176566 2.501329067499274 0.03827172212496446 -1.213760466842574 -0.18234597863250532 0.34463580994508386
Ni 6.308912354534372 5.28888767877183 5.9212988418870225 0.41401162943574504 0.5541676049637617 -0.06423592716093454
Ni 8.117729668463886 5.829293870050063 7.9176180792452024 0.8484342184276743 0.16365123043647944 -1.0423293353503598
Ni 2.666528378911557 7.384771107667553 7.385165894073204 1.1899818763657377 -0.2984819370968408 1.2876639990002596
Ni 1.5873985384172682 7.1039933761627845 1.0708327462021907 0.15304851521996868 0.23542563206630424 0.9753063323625913
Ni 4.141375193012997 6.049283894760906 5.419333566907604 1.7041148340051167 -0.39778925403961174 0.7524436245629622
Ni 2.6467890586290084 1.8569906550952586 6.511105032091416 0.17227393910848393 -0.25337887411061527 -0.04640686939931363
Ni 1.0341523892790525 5.331129824176484 10.94912461024582 -2.4246143015613146 1.6128345011318803 -0.5903972767197573
P 5.182417545038292 5.119138924018235 3.166797012314309 0.08749052681350093 -0.5605516541132347 -0.13425452244191718
Ni 0.5151774600218716 2.8073731289657045 13.287754680235267 0.36012824915372815 0.7753801787544775 0.0044906887815019435
P 7.687638078536125 8.38047882077726 10.17034732720316 -0.8213232211434952 -0.06051476955560547 0.15619323149653747
Ni 2.7486345516106345 2.905317756272446 9.02265154775599 1.0693182052343777 -0.7797217435526249 0.10988714934114623
P 8.86017250267217 3.3800202100387677 1.521800077280196 -0.01504712414110957 -0.06483859374193995 1.2671075150051467
P 9.249478897025655 8.731143145758574 2.2032850705530707 1.460664274751807 -0.182725216348795 0.7018463712313847
P 5.727485975773737 7.131647223911004 7.491262860656638 -0.16229343085700437 0.19604378783457205 -1.1995790331358696
Ni 6.329488246009848 9.290940869295332 8.453632741744386 -0.03783738256274774 -1.5759808226386405 0.0348495035790174
