# total energy = -340888.62297990546 ev
CRYSTAL
PRIMVEC
9.05885774951182 0.00000000000000 0.00000000000000
0.00000000000000 9.05885774951182 0.00000000000000
0.00000000000000 0.00000000000000 13.25855399978417
PRIMCOORD
 96 1
Ni 6.454707825161735 2.112435010104087 11.19061699246886 -0.1628806708190421 -0.8192786799096408 1.0811373093564929
Ni 4.645137602110309 0.4270689722086927 5.79416038589649 -0.3198616883241975 -0.42790458536775333 0.7207825460142554
Ni 2.680642795917238 1.6576350629267822 4.62861424579816 -0.39410177788569545 0.9371110522397925 1.5080965000918414
Ni 3.4536079406796696 4.61027005910293 5.128276373603016 0.2438845614669348 -0.6107956378704513 0.4446692064206019
Ni 4.815480360933574 4.500304586365448 2.7704414398048827 1.127201193594091 0.21544584651026766 -0.07216623775160474
Ni 7.0540871400703375 5.881925316246811 2.716359153884292 0.05825271299430613 -0.29313584229357903 -1.8875607305700202
Ni 5.269818306371888 4.834902551686451 11.289022456988176 -0.008908615343539497 0.2356295205469942 0.768169005718019
Ni 5.616455493479538 7.422248172900391 12.306509722140571 -0.5002582565398159 1.6760939233121586 -0.014154694233827236
Ni 1.9458607360537676 6.368712089706021 0.36764105440224804 0.8038546320450866 0.06335172478376831 0.24584014253140887
Ni 2.7183729379348356 1.4903541979815356 0.4076630873995458 -0.489315384375067 0.7745170594232338 -0.14392392721088118
Ni 0.1865282197459163 -0.12450856277230847 4.873963439889494 1.4911251623448254 1.8547076885957412 -0.03487392905904961
Ni 8.3909027601272 2.290758622496981 1.1470588234525871 0.5337648729376937 0.2170430157940585 0.363652974477535
Ni 6.7047232368168785 1.005968021793553 4.7106186485832975 1.5166639300458784 -1.2100984446099545 -0.6052104304731899
Ni 0.8831915125995795 7.16215931156372 2.542075791993163 0.13733727513229896 1.1100560492733722 -0.1271842458586971
Ni 7.471356240097845 3.5422760391354307 3.637696610066561 -0.1858208245549832 0.5722761416390144 0.8162859158299038
Ni 7.410036832818825 3.8442530581406182 12.613883102634325 1.0085805210346888 0.2690320072668399 -0.19413268685478824
Ni 7.890808524813525 8.803207606174961 6.996883171811389 0.7191990035772194 1.544487637126366 -0.7215250806072347
Ni 6.789052142469174 0.5306878092925067 0.294864003996252 -0.8698000856979601 -0.2220656658196305 -0.19668862050742253
Ni 1.860924886940444 6.211703969310103 9.541518091084257 0.28756914683907897 1.418749636795892 -0.5342898922032282
Ni 0.15565382118064014 4.853310150385072 1.285305143816657 -0.7503916271299399 -0.7876839358224951 0.6281230734053053
Ni 6.522848552234093 2.06104411078456 6.866366774660673 -0.5395773658544126 -0.9958026525437301 0.7768511068730493
Ni 3.1546475212643648 4.215747750577508 0.7482688870989566 1.0980384559872058 0.6726520090556158 -0.7211597268480161
Ni 5.936160696861301 5.791545093699495 4.726037730150682 -0.7350717089434179 -0.22592874831946252 1.080021964805127
Ni 5.4119427236861934 3.02740680703167 9.114234423949798 0.41396509246852575 -1.1721718447675105 -0.15422736601941825
P 0.17049404174564084 5.449319570256328 12.406678040354155 0.6093671329540409 -0.6810194071837046 0.13044594732910436
P 3.9718289501055213 5.859486525904051 12.749107388093938 0.9700150020566648 0.9615535015528729 0.8010757837483687
P 2.5837764313087943 8.287133546006775 1.4868139964207967 -1.278844858046733 0.4599816684079562 0.4273294295905737
P 6.3802349566079135 7.83884691746348 5.567638215611919 -0.6897429030996315 0.5245963190645482 0.6789293574238952
P 4.555309969878257 1.0476750023095238 12.609176120211194 1.1346463370182265 -0.034560254473372735 -1.1485081826019832
P 4.098218131721252 6.400291267394699 8.289035906108502 0.29801656742464805 0.13506364860677383 0.06993452020760858
P 4.60664651605202 1.224911551787145 3.711613264762068 0.1908013084887101 -0.6490400260636306 -0.15792512658597962
P -0.07707547835013767 5.461413145188739 3.53019605248946 1.060745118853386 -0.8242545358576772 0.9943926595700809
Ni 1.4343070458415896 0.9245741860124937 2.680640984145713 0.6964038600595749 0.21106905759881067 -0.3326488127865368
Ni 1.6094872346378195 6.550251596556596 4.815612620254933 0.27661110516567844 0.5023732460002897 0.510329524732889
Ni 6.129594483776489 5.691172951189296 9.162548935219103 -0.6056354338257505 1.4299696738814276 -0.06143702425955871
Ni 8.665830030257348 2.580750772861285 10.106969266521428 -0.47160562580012977 -2.9939840681868115 0.16072608636988447
Ni 2.3485631930166178 5.858779935009125 7.164074354066125 -0.6147124564263543 -2.013086357779372 -0.25663286227153864
Ni 0.5599497312001281 0.13384190378568914 9.352703415673217 0.04534860333812835 -0.2571745937076216 -0.3490617069269214
Ni 1.6163538487192934 1.226107320993945 11.212175261850245 -0.22393254382504013 -0.04105383261751639 1.2298103212165852
Ni 4.1985087445128055 6.723674366973136 1.6625032930156793 -0.18182198780823525 0.24029658700536033 -0.2365602598913797
Ni 5.985975354953683 7.963225032685956 7.717698284985128 -3.747354575439417 0.9951593625327764 1.8742614423579527
Ni 5.239480192178146 2.878343304774872 4.888216646480248 -0.96410660699203 1.1522637929896735 -0.1973969594283568
Ni 0.6341472104820807 7.458818781141697 7.108453874120424 -0.5430707237196518 -0.22598325570648176 0.11064562477372555
Ni 5.196061087570621 4.713106210887748 7.134838702845623 -0.22059730880422007 1.5084891075445699 -0.1632596514250156
Ni 8.45512100184695 7.082450423301333 9.246210203064267 -0.7237295444577213 0.792760321904138 0.7685695835905473
Ni 4.794019927214562 0.22841003621409345 10.538071242145783 -0.44595167267745134 0.24660144617746563 0.15632975707440175
Ni 8.040497088246605 7.277179626857221 4.4033376684373415 -0.6186740121772636 -1.7598555792108466 -0.30309192506502636
Ni 7.282442823138667 6.322973917545913 7.173235576784588 1.9849911422050524 -2.0657163252702615 -1.9942455709237845
Ni 2.194055317325828 5.131462373830528 2.966534907319438 -0.11381399519937818 -0.8691956193447418 -1.271170629330927
Ni 2.5297041101315942 5.049117357998605 11.462165308704032 -0.9342694690259394 0.26109166937384065 0.36811358135204986
Ni 0.7794186749361018 3.1948960257023438 3.9001761039310705 1.843787956359444 1.3002006980146896 -0.906724212417819
Ni 3.5093833270907977 2.6737942995510187 2.4253605644375984 -0.9055587313548082 -1.0397433197907384 0.9779054605483353
Ni 1.2907513290221744 3.302098546863508 8.278680725954764 -0.6777114258563941 2.20142120700546 0.4869893073450516
Ni 3.9254475990538777 2.9079295337855497 7.172519927032033 -1.809727267230309 -1.609001243428719 -1.0899983592915485
Ni 4.062807057256237 7.1033310901322 6.118862455145457 0.24187190191228025 0.24769879300670247 -0.6761512804581259
Ni 0.615142633065822 7.464679862026544 11.795591963733827 2.2059525192169103 -0.09446592969006956 -1.7293437837752343
P 0.25547065571828714 5.537000253230715 8.1102312683756 -0.0880937076151386 -0.9889864009528452 -0.9790264615266558
P 8.565213298591212 1.548955947972373 8.062791842753091 -0.6496354935557843 1.2815375743875477 -0.3564158332991475
P 1.977485208030582 3.277005511235958 10.397742290413204 0.05332905044044364 -1.0506805355285322 -0.3870101611462367
P 3.851717556825492 6.247250926639528 3.8513715084641307 0.24405116895178613 1.0281530438499777 -0.07430282447863332
P 6.967837756601059 4.0452147557440705 10.220329999097613 1.264904593816557 -0.7357160273956362 0.5289139726032955
P 6.446400852717526 7.751066587055193 10.172147747149667 -0.9638201860998629 -0.6871697430558166 -0.237612612415294
P 2.0064735524378596 8.482587458172844 5.882648213085467 2.0901096665129613 1.1257153530771837 0.09324002770276846
P 6.773407495346872 3.8563013387848932 1.5328212166524346 0.02163788998474983 0.7062900088250352 0.4956950626491657
Ni 5.3160094214133595 2.786685783302111 0.38698624486529226 -0.8773007649503793 0.46556533314332077 -0.5391101964100069
Ni 1.4694101191472773 1.4107087217225402 7.169271420686893 1.5611329589925307 -2.3122421810147857 -1.1825567875462601
Ni 6.950689339112628 0.612324422457977 9.300624043174016 -0.11630462283171585 0.46172076258625006 -0.7023248535297002
Ni 3.0632074123746578 1.656176586848791 9.234807818968818 0.2547225326227033 -0.1045107155205813 -0.3740939673052009
Ni 6.318390135586513 1.759266386647172 2.397994661431366 0.19855884094694193 0.31998972926162955 0.33140825551121633
Ni 4.076186989971721 6.838214562812391 10.565065731989298 -0.40036627073816855 0.4329030670236093 -1.0108479769126268
Ni 8.690560711579806 7.100912375145718 0.5093315524362076 -3.0389542051395986 0.2660127608245419 0.9527834686697269
Ni 7.536036483556583 3.874364700893678 7.91302356137289 1.7208992525523072 0.6479308521598519 0.8241869158445354
Ni 3.0255678589333335 8.443661546948446 12.564269551181269 0.5461951282812464 -0.5182744906115784 -0.4782933222329504
Ni 0.18636153676557446 4.669804871429377 10.234052356631409 -0.045726812613153506 1.828759601271412 0.4632873357424214
Ni 8.78752672362215 2.14070770475881 5.759383431465383 -0.8103047585458045 0.572623240565788 0.1900837135963952
Ni 3.9947931541906616 2.9798568633461073 11.349945086303121 -0.80787635160997 -1.9723621405871323 0.550317377979736
Ni 1.3824903802135808 3.281589293195359 12.66703685564812 -1.8525327924316095 0.12700735396120064 -1.091384441005798
Ni 2.7314086340604833 8.378002946865964 8.17505192412756 0.9358854073628075 -0.3247480698822213 -0.002460031504718344
Ni 5.683708452504422 7.977637675170949 3.38203209479505 -0.6380354474230109 0.47756004361135174 1.162689616308688
Ni 3.1605357787220925 8.462585500531823 3.933296193302148 0.12704540628798763 -1.0443255398447822 -0.6480812616947871
Ni 3.568030371369771 4.397423140292494 9.121526804339753 -0.49679035259587345 0.5082587582467891 0.3766869248433577
Ni 7.426252187971646 6.090641395979209 11.30615185087559 0.4445367946077957 -0.5279595791098263 0.354529414909712
Ni 0.6247069749486982 9.255434837786122 0.5557654448620901 0.19472892567789044 -0.4255790225583703 -1.096145095619235
Ni 4.452129581503604 0.4520351838294606 1.663352107975355 0.24545267728500308 -1.5051379316841496 -0.359114206066917
Ni 6.136524509861354 5.723821074077993 0.4068360136981756 0.17165944545293663 -1.4000014096541116 0.454208770479921
Ni 7.7960256974593545 8.590460334798426 11.57959618601215 -0.470126470151442 1.1441843584156488 -0.17544385219603334
Ni 0.14079457701462217 4.761625452339429 5.726608484569905 -0.8050219128803103 0.2082876381989316 0.8817189486227331
Ni 8.095710825484842 8.858810874291173 2.3555937724211455 -0.43770948727331715 -0.47893892623674933 0.12299154793358819
P 8.611168883334376 1.546156760965545 3.4683313019812787 -1.9571468662992746 -0.2985837527820277 1.0347474092380438
P 1.4288445546923434 3.124843879670632 1.545775383059437 1.231527303907692 -1.124985931110327 1.618224304688884
P 4.804582555207964 0.9697597678573378 7.952957723451203 -0.0690145794965005 0.3462545764954295 1.1778105311105265
P 8.587534323784817 1.4262265448380609 12.337309838073304 -0.09607646871029905 0.9799559153194606 -0.815500186703815
P 6.356274278183773 7.6663662682401785 1.4292984034594698 0.7876872782566047 0.3282738236472927 -1.6348577994805071
P 1.9004033884801053 3.45560088935767 6.088539741009682 -0.01171883109882498 -1.1265399058610082 -0.26669513160354713
P 6.758596263126278 4.080517123917558 5.864033166547181 1.6772496341831564 -0.0822624456453422 -0.4380293325065811
P 2.221404008502569 8.200793573961223 10.49117534798091 0.5900949149879902 0.643278440989505 -0.6623801948159624
