# total energy = -381165.62179563777 ev
CRYSTAL
PRIMVEC
9.27936585377230 0.00000000000000 0.00000000000000
0.00000000000000 9.27936585377230 0.00000000000000
0.00000000000000 0.00000000000000 13.58128989966838
PRIMCOORD
 96 1
Ni 1.2513224740838513 8.282427829129986 9.656880991425634 0.27381503047778005 1.9459057461678164 0.23776353617086152
Ni 3.87729019333479 4.90201983468113 12.383922346453092 0.7578431983119788 0.5178129775941276 0.19821122779953607
Ni 4.135664853834537 2.738034619655171 9.349210628209367 -0.06310824131439453 -0.48157816363180933 0.493662348489853
Ni 6.927993042609948 5.961704846883039 0.8376446363111578 2.4984859520398 0.5876662509418396 -0.22340289657381526
Ni 2.494423430095487 3.468394940679952 10.828199557650318 -0.23575550460189718 -0.8407556188364939 0.67921063610974
Ni 1.4478130442634995 0.559299852737805 3.238866116612813 0.7826512584945939 1.4562967418117305 -0.9881199391874919
Ni 6.931491363505236 1.8636307037827538 2.232994930320835 0.4318358021013595 -1.6456062962462628 -0.3112880877225736
Ni 6.159448131441637 5.520007036231268 4.253959136607012 0.18135327570193283 -1.1371757883082996 -0.11541373558633027
Ni 4.429495970941434 7.02156616703458 4.329864348605573 -0.15111915940773973 0.1053272978846057 0.2524992997191393
Ni 8.685690506762437 6.942236869066892 2.1762117073645038 0.19642919619844879 0.6524490517451796 0.48705898424072247
Ni 3.0880894139624693 7.360095989055544 8.502009173091691 1.5995948625131549 -0.3557280632035035 -0.7070988778795757
Ni 1.0959766117283618 3.4730346235649496 4.881726789678727 0.6875680069354998 1.2818376221264698 -1.3962450279354728
Ni 0.28177072541563497 1.5966633505799923 5.571248621949758 -0.9659035509914526 -1.144192585945765 -0.20552421652118152
Ni 1.3155913614068382 7.52370048694633 3.707800721672674 0.8198764613946397 0.999717414217104 -0.5525637508117516
Ni 2.2656313876704854 5.250460019344448 6.4643003512735575 -0.27853326188905575 0.9411217160610824 -1.5223290987514557
Ni 4.239036988512282 8.958772962007625 12.501563361875359 -0.8200420404382265 0.5797544522939306 -0.6054991653582023
Ni 5.181978299961884 5.141529544570474 1.7577039597085278 -1.694358268838985 1.3858379736695359 1.5370702616163723
Ni 7.428234371904619 7.751425402307781 6.53724544559149 -1.066223625469454 -0.8616293769617097 1.5242481701510395
Ni 2.650975610001076 0.40146897622911093 5.149250904827688 -2.737457135365518 2.29156434095046 1.1917929614325473
Ni 1.8413973433978454 6.2131663798841394 0.3680641873937052 0.24675185571240082 0.2504979530183944 -0.03465924194508225
Ni 7.44748905587736 2.9684876685530015 9.596430563117002 1.5505292153347554 0.6889096085650588 -0.5864318643141061
Ni 4.625346264882952 3.2843479999978675 0.754224993912055 -0.7338879730479619 -1.4465162653861992 -0.6881089670406344
Ni 8.62388993073427 5.588219654006503 4.426033839572649 0.5471004137043352 -0.2987932976896725 0.4743546493001767
Ni 7.701353944612888 2.9828428473991835 4.329919096863615 0.22645145359215194 0.22945707318769515 0.590116512254545
P 3.3502500556963732 2.4876866105464703 12.804276687897298 -0.06730916676961957 0.18798337942394078 -1.9760614438155906
Ni 1.85192014418102 8.231456272955404 12.385688209759122 -0.3859012443527741 -0.8346361362023174 -0.49713462330916963
P 6.811342135515339 5.291094362051258 6.47487975618793 0.9158544568538614 0.22283365433390656 -0.18122934852955885
Ni 8.459329658169175 0.9418370669229718 10.217204358207871 -0.7757828135095349 -1.7628326595612995 -1.06924698567681
P 0.8533295482721807 8.129698747921635 0.9304948981423066 0.14544422051014952 -0.35854753493016955 0.48839904320838473
P 5.4823513699366275 8.495287200527907 7.775899729526144 -0.16467735770814862 -0.38589250260202573 -0.2799738509903243
P 9.266448892843357 2.5663013973498696 7.652010917130939 0.8325995653882629 -3.0986616483025604 1.4242253151984827
Ni 0.19257282195155614 4.730490758422768 1.8065291985805116 -0.5577411812476329 0.2361432269586191 -0.7390702885798497
Ni 5.818459277491624 4.117180357220706 8.274550575527837 -1.0046613884859408 1.3915355382749455 -2.032045158270062
Ni 7.191192973310093 2.745012702714207 6.874808357699221 1.083251270375702 1.6323458316919304 -0.5246775659244448
Ni 2.202819360773388 2.2001005066027797 0.9283114633766268 -0.2159271570220604 2.586486071499868 1.4071056247990605
Ni 4.72620369143703 6.368410169216158 6.616261100996153 0.586887463794286 -0.19756048158941458 0.7279083584257593
Ni 5.16890367359196 6.833352791121768 10.956298418295372 -0.044100332753324055 -0.939895556963465 0.11940794434738791
Ni 4.863584701661808 1.6967877072382402 4.651862980507291 0.7124891956572117 -0.795247864212682 0.8646280545787174
Ni 9.14272710903201 4.3095880064615555 6.763563609102211 -0.4990164137129148 2.832616491578186 -2.3159666810542245
Ni 4.891274329119475 0.9284933389457186 0.906797253838893 2.1119601867291498 0.08599594454584544 0.10275233806857786
Ni 9.174230555821145 2.607362590882098 11.626752081845641 -1.1152805308971052 1.3940094537367347 -0.5774664275907022
Ni 1.6433014429399881 4.160069585809623 12.824527047817158 0.8041269118698668 -0.5282603981796967 0.754080645945753
Ni 1.6101555484095653 4.121495262303753 8.373612444805422 0.3996206508213956 -1.4576496562951993 2.014156450915099
Ni 3.6890860967877477 4.681226605549863 4.460394403082364 -0.2693942757022651 -0.0808298269638737 -0.8606436160096725
Ni 8.67869386497186 7.1692658319955935 13.259657851313502 0.017685075984588898 -1.536026136622574 -0.5957145751676127
Ni 3.1102949362500674 0.5070718704379642 10.508360234163277 -0.15848974084019804 0.16473469330864532 -0.6127584180237771
Ni 3.3045027824502973 6.768647773607592 2.261094705745535 -0.40889050615909583 -0.39525671742574503 0.2516978868637665
Ni 6.299343849790084 6.788904629083491 8.945425522284065 -2.1461766847098587 0.40992537518151334 -0.28943062552784987
Ni 8.20024048650514 7.974417841126536 8.707073877242815 1.3238772156960232 1.1456246904066012 0.33226443286392454
Ni 1.7493924317883431 5.927714530067547 10.736837706088679 -0.8064254780960562 -0.7047550602377475 1.6150762459782055
Ni 4.708192442477469 2.0771860276134233 7.183578325759234 0.2552897179800829 -1.4827611066508464 -0.4426845718904054
Ni 3.0714236730395577 2.3477908921980233 3.494927431226099 -0.9500940947630216 -0.18467925475137226 -0.1783376288040606
Ni 8.693438777180384 9.266142673772947 3.1861166339566984 -2.464012600853279 0.6152048226817405 -0.8125061370724974
Ni 5.369161666274227 3.7481678186453067 5.714328090693892 0.605482453187654 0.6175105879967817 0.07786714479112396
Ni 6.017288247845311 7.686052270458165 12.895841757569302 1.6532864384993395 -0.46716095976521477 1.6019440794716218
Ni 2.8482642056369434 0.10748010990412328 0.9235789868339292 -1.5173727831874448 -2.6195522579262174 0.31230418769191376
P 5.725535708670892 9.223717413472528 3.6643408120889016 0.8722158942283043 -0.2304189228803322 0.0034236809695682973
Ni -0.0022465344529158356 8.466558284104 5.229747547009241 0.08121163578332465 0.7312322805926698 1.6850166797230854
P 6.8087810305628205 0.9132965216241976 12.961058996073984 -1.8741141181468113 -0.6978580760075982 -0.8236300148998008
Ni 4.584108763401093 9.1054333380024 5.850480512890723 2.626175162559374 -1.6289252360461561 1.572406475023821
P 0.10507768210627152 4.5249992034462245 10.366653183616528 -0.7920769226838681 -0.1407730402867253 0.02984767948905182
P 4.177589028383374 6.8982341165855745 0.329879597250175 0.20496037359791153 -0.2076482048427198 -0.8080272753655374
P 3.7361974368020134 4.063100213513174 7.206898299875809 1.0687669607165982 -0.9698558507709812 1.1168183076978702
Ni 7.572667700114595 9.035197818489307 1.0042797750624233 -0.46484568136847687 -0.6048908423502422 0.11842578293977668
Ni 5.702634233950544 7.804076523686735 1.8353072956429977 -0.7233600769334445 0.09630915354639542 0.9657953075483624
Ni 1.6392463600985003 5.423074781397899 3.533851586821498 0.5686735118894206 -1.7344980742826646 -0.5142710258791401
Ni 0.47935626075614246 0.3715615803524164 7.657145190211477 -1.645975506660223 -0.09095920208839174 -0.07229042203429487
Ni 2.6256893382778386 0.4267775184301958 8.068087470955176 1.9981688172375913 -0.08389741014560391 0.15967373384597017
Ni 1.5706811264240057 1.2743445805592095 12.009268881426113 1.0219314884202981 -0.055021607651518145 1.435549224851734
Ni 6.3846026624848 4.261539450504521 13.100471259465813 -0.4495103365629871 -0.9167862246395114 -0.990781545180055
Ni 8.014244879011356 2.378329284947077 0.17896648792301223 0.00466989467184357 1.1700612261824108 -0.03153663715570052
Ni 7.194589221181911 7.586104221749547 4.336886044683728 -0.9060603535815751 1.314319911024891 -1.7793339996504325
Ni 8.787865603255854 4.448286686625674 12.969887384667556 -1.0547084257410029 1.3021238831793316 0.7990412698168432
Ni 7.982017641692162 5.500743072892758 8.429634759768613 0.777666403685493 -1.3257399799363747 0.5822589638833391
Ni 6.806006500197592 0.9389511841685032 8.022427423747338 0.17545465082931072 -1.64686433702308 1.599169344939962
Ni 1.1413063135147885 1.9729137944559871 9.653988613115128 0.4114328129649753 -0.3893357239556198 -1.6195275968813398
Ni 8.677626737908312 9.19911781481627 12.29959611001826 0.7696818428181197 1.3198871207000238 0.29107253200664707
Ni 3.5474272989430014 8.856634982977289 3.3372348172673783 1.0785744337253231 0.6468309342274537 -1.56748204113901
Ni 5.28564737434427 9.243454624465308 9.885997811652587 -0.4088395983165024 -0.7440080922010993 -1.0000735120049422
Ni 0.37651954548332484 0.9177144276672923 0.8980356766788634 0.22616040471429438 -1.296804013628315 -0.3509715223551246
Ni 2.289637106917463 2.318700080509088 6.741032381076086 -0.11604519852274207 0.7279865199618624 -0.2126502860430015
Ni 6.0600568446792185 1.79360860968237 11.006141603592324 -0.053477403092849846 0.08081851410996405 1.1264085224894667
Ni 7.4679778954975085 5.610684998535661 11.439166918995458 -1.4335283377669634 -0.42371960075212833 -0.822630369990693
Ni 0.962659963710841 6.319229530635184 8.38996361522873 -1.0127729618494814 0.7526819658260133 -0.6703328740041359
Ni 5.454067863069683 3.159967381216852 3.1388670313924596 -1.4162248134915094 1.9585262631453042 -0.024485129625557833
Ni 9.207246539230788 2.5728340708519464 2.354425638723569 0.355791055230955 -0.3108121765274195 1.424687599546882
Ni 2.687044504749047 7.763423622248385 6.278317734891853 -1.0450855579392582 -1.0247635585524544 -0.49497875330843133
Ni 7.145000290507056 8.225730904275316 10.895154821363718 -0.7057829872816297 0.1372028064369637 -0.10391370536653072
P 0.6813587742031678 6.679203966950607 6.168308997815405 -0.6617153075384539 0.07243517514227525 -0.18864672403955254
Ni 7.237311421186968 0.7847661704708402 5.6673364544980585 -0.37584180323424304 -0.8121179004951432 -1.5627866925458698
P 5.78786520854795 4.206754074998469 10.306976654413113 -0.7849829919515642 0.6452108821255275 2.6023230385321243
Ni 9.054387546901657 7.076193793322541 10.791760416208124 -0.003189710581891281 -0.44050864728500905 0.30559977908854463
P 7.240549919840697 4.355177530489542 2.6230363676041972 1.0382261118152636 0.4935664463419371 -0.27416855716245686
P 2.9661863858420423 3.9475628303109636 2.1599681775841275 0.11730812439556572 1.5859199361292236 0.5351566110788978
P 3.2165251155849726 7.446496163739971 10.580503591278683 -0.04416769565614974 1.656714490344282 1.1995723482676501
Ni 3.573186818320508 5.2110041560904286 9.745077651323133 2.6247392014437954 -0.31054606735022644 -1.4779024930069644
