# total energy = -340890.8339560019 ev
CRYSTAL
PRIMVEC
9.08397111585361 0.00000000000000 0.00000000000000
0.00000000000000 9.08397111585361 0.00000000000000
0.00000000000000 0.00000000000000 13.29530994992683
PRIMCOORD
 96 1
Ni 6.310534951783397 2.1455613538311735 11.51760720512338 0.08776409218986175 -0.2687638412071178 0.1638432918426275
Ni 4.567738718304168 0.7214008571251206 6.107812505837838 -0.19600419284588824 -1.0190883625445482 0.27799178756328896
Ni 2.834271723369787 1.5792665817904805 4.68080055053468 -0.7815945350953055 -0.5795461929378664 0.30307778399763935
Ni 3.0631605487003823 4.090793888159404 4.743035746439845 0.5866198119551962 0.9288457269072068 -0.42962773870644716
Ni 5.0170137718105625 4.5590907776082625 2.6071569976378366 -0.3138013410627305 0.7386751100239601 0.17255624623559315
Ni 7.360678372171466 6.176755306165121 2.5601320033095876 0.10638736371800386 -0.6466985224146474 0.7979007284544968
Ni 5.356518115895401 4.815304188667097 11.411470992626649 -1.1291171796698811 -0.029728380302368157 0.8908389086461302
Ni 5.604101754200968 8.066393936019676 12.527824754769178 0.055605762289762294 0.44339856723829446 0.4728698372245339
Ni 2.161649067037527 6.534963547196251 0.24645268387632369 -2.451312893898424 0.33777019317350215 0.20578904014679397
Ni 2.4813321857038093 1.428181970809075 0.5874422572718565 1.6895315368743031 -0.8070106611755651 -2.424436895443186
Ni 0.7475581525388385 8.894134486599079 4.546131584124252 -0.8160537452144397 -0.40516677745060536 1.066161404772951
Ni 8.735819034447568 2.2738997006292307 1.3573851319355372 0.47543039886285854 0.4043818196554649 0.744463434570963
Ni 6.784836346274264 0.866479146270252 4.723079169848631 0.18147488888146168 -1.211838310119197 -0.16299997000572572
Ni 0.8360505675422331 7.095953279986515 2.4914744396817277 -0.7865158836563229 0.6009750522356038 -0.019553496651895357
Ni 7.709957069395795 3.8178478019305517 3.9759624983159076 0.024295382212254933 0.10078595837082643 -0.550369057153278
Ni 7.410685634283818 3.761000309414821 12.9072467940221 1.201221968055931 0.5688658304058849 -0.05680132525976024
Ni 8.029422172750415 9.044610471502095 6.695837045671257 0.9606731558304488 -1.1757626474425622 0.19797931429438806
Ni 6.826250171518627 1.018849139193328 0.40798477027197344 -1.008700848662637 -0.5332413963340559 -0.00055047318683131
Ni 1.7168887472767893 6.617200739549225 9.200247968908698 1.0244629965929002 -0.530028545823713 0.4317915791269854
Ni 0.044850291594425946 4.7470381442030956 1.4419823400372467 0.2931093599310177 0.13589771447229498 0.1834834346710582
Ni 6.572462180802026 1.72570928342776 7.012531537773513 -1.1920115052012568 0.3266272891828052 0.7700649371891513
Ni 3.4370477242285005 4.673939426997267 0.282117263672746 0.8725722491264586 -1.7912718887385988 0.6127602177959898
Ni 6.114148575832999 5.494821579230652 4.923359844303581 -0.5246138025660448 0.5940520998635253 -1.1253651688266169
Ni 5.230741449009366 2.9462407538505953 9.428755267443886 1.4893297610072995 -0.013766457656473066 -0.31449836712975515
P 0.24803511168013329 5.482639973691566 12.55115875189688 -0.13267277977709407 1.7669572232526343 0.23357675178302353
P 4.142899547646499 6.42090520331202 12.467889620402042 0.43619099374626163 -0.6321183106076276 0.7720490574987156
P 2.321399786657476 8.267467641170795 1.44618367677239 0.500614354327654 1.5086217764676921 -0.03945949154720301
P 6.6019033318476446 7.613694225325932 5.611645083984455 -0.45604736635055654 0.9671423084945602 0.20506398905531137
P 4.520374891845711 1.1755385604786972 12.783680257358036 0.6327088930037748 0.07262517966589427 -0.17152471964728525
P 3.898686062700364 6.2304779125470375 8.457412573058726 -0.10990180462916556 -2.3303309201956965 -2.948368841450858
P 4.760827612665684 0.9978015776466761 3.8890116332453863 0.2696526715699743 -0.9773976676739812 -0.667631673022889
P 0.21687981524657593 5.496774633064286 3.79206204094379 -0.3335960071911545 -0.7215592762792798 -0.13006773805407923
Ni 1.5661039073489185 0.881747485263611 2.630769872685039 -0.5979254667760026 0.6321725608843306 -0.22974169430764949
Ni 1.8783563374760723 6.451627194313651 4.824376350823611 0.8599098231674417 -0.18221099571653782 0.16918964375620538
Ni 6.028241459067058 5.460302488217584 9.179933483847506 0.021701396232833594 0.6268125821239979 -0.056928080645611626
Ni 8.66962413544435 2.505377457785807 10.465429883556935 0.2588244706062187 0.2599130756847072 -0.36249700649622085
Ni 2.449202179147699 5.126139519268452 6.916592991479747 -0.3645502894808238 0.7024212698982484 0.8561745244947254
Ni 0.6705969307280724 8.994830308672725 9.427837786340643 -0.20190153216692971 -0.21997793005266633 -0.3624399280060403
Ni 1.3894297491612473 1.2078593304325116 11.500124193922394 1.3214698918061112 0.4956061024797852 -1.1146758074335708
Ni 4.018885171196393 6.853102390738265 1.787661059427765 1.0129007456765975 0.3961524897671371 -0.19312635707746095
Ni 5.859579363582945 8.133533568040091 7.767532188014196 -0.3002986785906054 0.3183516794375743 0.2927872007049086
Ni 5.17100525361412 3.0591000135206876 4.542795041458699 -0.11112924927836344 0.1949245866284643 1.8960374005824634
Ni 0.9953034855338884 7.446494649224216 7.144061992093148 -0.1521789681308218 0.08940805555118796 -0.5446172422711654
Ni 4.993495370065079 4.648004688880869 7.106542465353339 -0.2957989909480389 0.34801423949901356 -0.005665682926209598
Ni 7.942070704544717 7.32519638019856 8.82672960261614 0.7149543693682526 0.12220684724876373 0.7219022614409955
Ni 4.631626288592301 0.6016604891807127 10.459753309879549 -0.13326156240102857 -0.4281655523386239 0.06586292124139624
Ni 8.591193127074133 6.768294434501949 5.475022155343262 0.006936836329149343 0.7674015314243752 -1.2817311784555925
Ni 7.095862440273322 5.947730221264737 7.043297131837476 -0.005439682958332567 -0.940803156379399 0.8441978117488236
Ni 2.460393631812988 5.146278683683181 2.5350829523968152 -0.27375975175981243 -0.1255287125331451 0.40611654295838445
Ni 2.4508372939851597 5.474673330844603 11.447089244169343 -0.8408018986933972 -0.9236811519871319 -1.0211285329030286
Ni 1.0476180763613243 3.337905261250443 3.5710135912588203 -0.31626857165630046 -0.300681772961637 0.1498865725522193
Ni 3.673003879245456 2.4939044020096213 2.5810451220807145 0.5145196515548365 0.35022384555582264 0.08438771951846112
Ni 1.1865210818036445 3.4981555992929496 8.443931051223858 -1.0015480396679397 -0.04418543626796261 -0.49131493130359893
Ni 3.4676425396316617 2.9396457906728353 7.208145776161776 0.4413547973353883 -1.0855410948511435 -0.22957123016805622
Ni 4.279131865520965 6.960347756133074 6.065400352145493 0.3896493985412967 -0.21605211263569887 -0.36593945651886656
Ni 0.40716448766184715 7.425483423562841 11.172075646068233 1.1520933288500805 -0.6108933397905801 0.8903460281701118
P 0.0006449619636652101 5.471448521026278 8.018481437693538 0.4351185866176894 0.44717088979653313 -0.1484282428391379
P 8.754486595508581 1.425838306208714 8.306830305691273 -0.28961908738957215 0.8775740732164242 -1.100386387394092
P 1.808273498748226 3.2772425007806363 10.596933994359745 0.11855202410499581 -0.2562361410537522 -0.17242511997436757
P 4.104665112363866 6.080728645349558 4.0284524097898045 -0.8917259392367739 -0.5213397598004634 -0.8728316734354322
P 7.093109996963596 4.060017393329859 10.482514108417009 0.14485286678305376 -0.03587383107847371 -0.20617084896624494
P 6.370779849572518 8.118290664166427 10.205081448753587 -0.2588956901637864 -1.3730806740038675 -0.03320656865895571
P 2.626684810782782 8.478379287260637 5.772078918247611 -1.082323359244794 0.2335171021896817 1.0711236338742327
P 6.938001186687773 3.9608840143231205 1.8576076385858231 0.6626511890891619 1.1908959035395748 -1.5222730487025398
Ni 5.272427793393304 3.087723607147576 0.4838631827014876 -0.5258008808956106 -0.46715890288268574 0.16415568087672372
Ni 1.4374022016980916 0.815721548126932 7.060315043706918 -0.23650960915910235 0.9938079907112046 -0.5647487229137177
Ni 6.9226583591295965 0.955897217951076 9.415885096878803 -0.16370676626476324 -0.06597604978049283 -0.617229309310937
Ni 2.6480412273542875 1.5770410088172695 9.029270369135315 0.14604045933325172 -0.5811544179652507 1.3484595330210776
Ni 6.264688148535251 2.1595870055480617 2.745282415135231 1.149221149508608 -0.952048133165599 -1.7045843174423676
Ni 4.31651240749959 6.990324861486528 10.27355188257227 0.6863197363506954 1.417879832596429 1.8829679689930154
Ni 8.309026809956263 7.111450535057118 0.48131058676078436 0.2569509077325898 0.25227921328853325 -0.008220331027263262
Ni 7.6366766727635795 3.4054990918368206 8.32811586728649 0.36570111525581533 1.0959869727748157 -0.03944792158297722
Ni 3.1216794919388513 8.383297359462274 12.269683724996403 -0.2926907843363605 0.9724259254910027 0.14291759743355387
Ni 0.0735038623266678 5.150711661686964 10.311550134600603 -0.2816273274333472 -1.0146946043522267 -0.3627636298940462
Ni 8.521718914424675 2.269893669277451 5.68682948100518 1.022838830725916 -0.9074693181139596 0.3343097454287275
Ni 3.8688088810314225 2.9839028989401157 11.523657130021986 -1.0797005769099661 -0.8483614562082098 0.8630853926819457
Ni 0.9018303290561609 3.4356851285306167 12.632764608243168 0.8373465931549451 -0.13330192872066074 0.33844742174618486
Ni 3.2829381507977926 8.210992591479151 7.91473794324229 0.12557216417657083 1.120350489220845 0.6318637713946602
Ni 5.56405960862581 7.804584798628197 3.5367788285480444 0.1746951469554669 0.40828064048923873 1.2025782249735095
Ni 3.0272243581615155 8.294174516849324 3.688651019842827 1.0827313933164902 -0.27081943818456583 -0.8401542378070692
Ni 3.365111755351532 4.155281000554607 9.420259029069012 -0.4974873786628981 2.0450770517533554 -0.8174480544588052
Ni 7.313123782315306 6.331518925530814 11.766336332212303 0.09749134677995468 -0.5525997462560096 -1.4154413983582657
Ni 0.7507511684575473 9.017304053716495 13.26221841607219 -1.0268716060343928 -1.378922220386309 1.1412543292530473
Ni 4.698675080899524 0.40593179275382785 1.7174746634268796 -0.26685813954397264 -0.9209025608007302 -0.6158110888071717
Ni 5.947521289924394 5.685294289852231 0.429014163875987 -0.18919616878511933 0.5883817889516254 0.3443028520856974
Ni 7.766786393968887 8.890800669124921 11.614450514960541 0.45787876313234044 0.5619871010081805 0.42317915486762603
Ni 0.057464294168306375 4.504341682467274 5.9748322496956545 0.6351195593277965 0.31937909226082417 0.4549189091730681
Ni 8.168343346135375 9.024335047517576 2.1277149837774174 0.11376720112184278 -0.5763647098860912 0.554328041801026
P 8.706287043688755 1.5407596273682718 3.55448803063488 -0.6276150234206351 -0.11634138960692221 0.4953690467683146
P 2.024753619256756 3.1799350000090625 1.5219276464263793 -1.9848792992175364 2.1072216436029 -0.0788441639924126
P 4.687647139717982 1.278496291410831 8.246947858357789 0.51242343114744 -0.8143437045018685 -0.4607661119824646
P 8.526306319940886 1.6860032447914128 12.51249555316798 -0.25608881684261053 -0.3813727603548013 0.23231125480703863
P 6.358625495947392 7.860142367216596 1.4792229888575552 0.05930146597379465 0.06667950360542065 -0.7487810881097104
P 1.751380586375899 2.9141561671510807 5.9791671208091905 -1.7803094761898242 0.6478061536565295 0.6300771118078826
P 6.627565550824465 3.6652552517101546 6.046135065771674 1.3599004278681677 0.2893334378283533 0.2661148336200449
P 2.6923346715068446 8.595807784504302 10.116135743581363 -1.4677229813708013 0.4841361541669727 0.22967870228019796
