# total energy = -340869.6927283264 ev
CRYSTAL
PRIMVEC
9.20560061509685 0.00000000000000 0.00000000000000

0.00000000000000 9.20560061509685 0.00000000000000

0.00000000000000 0.00000000000000 13.47332701656481

PRIMCOORD
 96 1
Ni 8.17700359702141 6.232624258500349 6.824590404045437 -0.5466995787214908 1.173164804808399 1.0128814624028877
Ni 5.332113998186041 3.776072920295096 12.046420386676782 -1.2531266273450223 -1.8273858608523368 1.9020915771963434
Ni 1.8957921786394496 9.115671071755814 6.5206859119704825 0.2007936438147316 -1.3822463996635357 0.4095633638564043
Ni 5.8879849838418155 6.703334233154839 8.293749023625917 0.17074438983783496 0.9619641067277305 -0.30638293711147235
Ni 4.97490907873054 1.3273923705890422 11.265075705360479 0.6437420108894849 1.101250278056284 -0.6860225168252507
Ni 2.1215871497603564 7.3991579644870304 10.913677678753276 2.2878470399998725 -1.477737685294326 0.3349733471546554
Ni 2.562866819348247 3.6414133949543985 2.6804103715233745 0.2887564822789608 0.41450142458797 0.1736268535919526
Ni 5.507674006920827 6.645477033485282 12.58997519931141 -0.9972866932884245 -0.33276991174543336 -0.9671867885792503
Ni 6.901981888153943 2.3457435239773363 7.954409413223511 0.19272655053588097 -1.0619743632747967 -1.1936888929036795
Ni 6.5134963379144875 2.9603278301569667 1.0374619802003862 0.8306136453064855 -0.7845389624356102 -0.1349633755834837
Ni 0.8715522025576609 5.53553935988817 0.31156631344090124 -0.3525455517104638 1.5617351113529039 -1.5474675456902962
Ni 3.8046747213091474 7.954587081314779 8.734784744798334 -2.681074385700415 -1.4048068014625548 -1.304581857801521
Ni 4.453282927246723 8.375098915985483 6.193109217994133 0.47039874997622205 -0.09493901267174616 0.2822359075516236
Ni 3.3085480834426213 3.4386232196925564 10.040902972438078 1.3270964939642693 -2.355183203352686 4.471825111828221
Ni 6.092653101622766 4.460371239696295 2.596215948583395 -2.3107406567685946 2.0620738434216683 1.1543013922449927
Ni 0.6281837399221663 8.965822305451749 10.518370778481179 -1.9582953780814212 0.42613772327531774 0.04618498319649465
Ni 5.842297588144121 8.945422694557916 12.765599647250285 0.6876693084000544 -0.3173232381730599 0.7407546182608081
Ni 7.728331830164679 8.228269586672923 8.875716045816816 -0.8891162695280687 0.8059611368651279 -0.4971590487892018
Ni 8.710376094850231 8.829054697577348 6.741500653175521 -0.7803853452785527 -1.340904346381639 -0.5937880475688613
Ni 7.553517475077187 4.221854128568494 5.941831303336985 -0.25328322907301537 -1.5125769044606983 -0.5988050411674785
Ni 4.873693500311004 3.829778394101332 6.041587794063979 -0.4382964701250387 -0.35531205871200744 -1.5194515200933445
Ni 5.661011695846175 6.505054802179088 1.3276344778843978 0.5033492367603138 -0.3223931964967996 1.365461466895713
Ni 8.941666809519702 5.428229673882119 11.116491788576635 -0.8181733626606038 -0.8747808267420032 0.27923800126556425
Ni 9.089214175677803 2.905259927464319 13.404007127180884 -0.0052669048258941545 -0.802361849549644 -0.41024727729730637
P 8.511194515017262 2.565499621115231 10.674579694228633 0.5785565753310875 -0.7628766469708281 1.6354355263608478
P 9.069348489617834 2.8477709518181165 7.142884170393023 -1.1827591333650533 0.6733158678918597 0.21156553761925498
P 1.917646274425532 0.39854358943738133 8.633789180232753 0.9009153190455259 2.6931506001386585 -0.9041515665946365
P 6.013448114199237 5.967622634492784 6.02090649179228 0.2605455670623835 -0.07481498822836147 0.052310636478258295
P 2.7612935399333396 3.2973448675320642 5.769090049500978 0.5177353302786567 1.236172515989187 -0.27381554469841224
P 4.459800492460095 4.330093580233514 1.0975358884905368 0.10355632202711199 -0.3683627212483785 0.3954058414090996
P 6.899118946372364 0.4208294278908469 10.659355471983046 0.4640203572537041 -0.9439617566130388 -0.34609465387879745
P 0.6503001953248888 3.763332369087034 1.6944730583509087 -0.2861352426060298 0.5018713666632066 1.2857798946036696
Ni 5.745491492404254 5.3515930490214885 10.511202377306528 -1.1418742222252334 3.9968780803596844 -1.1622594707498048
Ni 3.366497339118017 4.31152588385587 8.196849030760093 0.3087918036632811 0.39181195341025427 -4.184560897824071
Ni 8.501068354375017 0.14875790263487823 12.483118428854088 0.9187199513271145 -0.9579773541658406 0.4921196865930815
Ni 0.4097155063059532 1.8814590585303803 3.210504754984284 0.9576359116660217 -0.400621067061452 -0.7563758697378329
Ni 3.402776611019008 5.307498222224801 11.730390277512768 0.07400380518097578 0.04246485403243009 1.1714889597678728
Ni 1.4620334847285719 2.601530341800457 8.846599651730125 1.2201236900564407 0.24800475428289542 -0.08123477571177622
Ni 7.952064746754801 4.911712630722343 1.0237750932523038 -0.6883871604026854 0.267866526203829 0.14249310830162557
Ni 2.8677378994845073 1.633809991623391 4.164619227498406 -2.181379972083869 0.2575191215312339 0.7128087837801594
Ni 2.702856387426999 8.204215352347298 4.48611930452935 0.917201200689743 -0.18244907986927286 -1.5568908958867251
Ni 3.9834014566447804 6.107115100140009 6.905848240399165 0.4803489192103986 0.8903640258922407 0.8364361655255338
Ni 1.8651283230946136 8.956294508847455 13.06908712561879 -0.3218378382139619 -1.7394466765371916 -1.8535429788636788
Ni 5.9369863957497 4.49785644527377 7.896743690046097 0.28677339041066097 -0.01523121512745764 0.7512873994713318
Ni 9.020411516914036 1.032168759864667 8.470438559552342 -0.8364479926000756 0.5985255622538467 1.0526278890628902
Ni 1.0993512329256738 2.013402931698839 5.710817677245089 -0.11681318703701818 0.12126376660920406 -1.03742341340831
Ni 3.105748702580196 0.5169285335058734 10.278706649520629 0.06339594775814242 0.06399141525029624 1.3446735836160844
Ni 0.6240798831818817 6.447602648935221 2.540018518699108 -1.9931338259168445 -0.5252426943992954 -0.3282108316198412
Ni 1.1957338710386833 1.5842194212781395 11.560613227064763 0.03671998112885289 0.8688359220124777 0.7340715498136777
Ni 7.292722810536446 8.363269719235223 4.687841630123463 -0.22687388584155121 -0.6916000109130283 0.2797571069938279
Ni 6.391043438947988 3.478115246197314 9.94871808819131 0.7790229177133874 -3.3671529525745814 0.12135838320553938
Ni 2.44967475456911 3.954689188423722 0.19831901505826122 1.3631191919157815 -1.569774693827929 0.2061114564832192
Ni 0.9080376799117298 4.79659659542118 6.343376839124763 0.22259042797484888 -0.73690721949026 0.6874780183248548
Ni 5.010654425797667 1.1801948172531285 4.907955825124072 2.3531818566519407 0.317177456623815 1.5902928683859388
Ni 4.55383570242422 2.3501161842546696 2.812799795760092 1.3610741364612946 0.8085132138630206 -1.486161133471331
Ni 3.6372248466887425 1.4888309880281871 6.828807489672903 -0.2757202179202929 0.961543474250544 0.8524307411815771
P 6.073017555577392 3.022410400494515 4.307341938390506 0.5943853148332279 0.39904909458864174 0.4345614285626387
P 7.562520552448202 6.623236302474677 2.5993955630250603 -2.82022300300984 1.3249591359062922 -3.950657358829248
P 1.853621322364789 6.772376237533786 6.959701003814743 0.6439129892497104 -0.27154088973162266 -0.8035183317515903
P 4.188750788868935 0.22372002874930483 3.2849053394630947 -3.329337424388705 -0.999261557626608 -0.24798855633297937
P 8.68704910297073 6.294918557651327 9.04475204541782 -0.9289691398589485 -1.0810884583964284 0.42030903240868267
P 3.899400351317062 8.10427935240892 12.399610743717663 -1.4418448280524587 -0.2971891864273462 -0.529586830300604
P 4.728548795905291 2.4738578673029092 8.572633613874 0.4681598333433743 0.38454935831056997 0.05810487456253218
P 6.422287247329607 0.10153409219973718 6.510338816914224 0.6959971115394594 0.38260380454842496 0.051252113306756886
Ni 8.631364425038965 3.779359319703534 9.016148403283651 -0.5424426032173497 2.397851431645173 -0.4385628364125479
Ni 5.376181208180977 7.937400225024714 10.258226949901717 0.043041809581822646 0.6263179018757664 2.0507579041882167
Ni 4.514251619913625 2.023703998752178 0.3187144622942682 0.5285820431851737 0.1296638177474412 0.08413703696023575
Ni 0.7153948381734764 4.614380937464265 3.948062076563402 1.4389574792023347 -1.6327001297075558 -0.18604965273633764
Ni 7.044595052399096 1.7873409981610002 12.605146029073612 -0.8479454517167139 1.4352808016816958 -1.3175301904320729
Ni 5.834123014825654 8.584452684463617 2.6338604110509722 2.0392905269785655 -3.707664198828331 0.48633393314923984
Ni 7.92887583888406 3.5003099492049996 3.260962492904535 1.4145222289781059 0.005612461090770979 0.5474665387945022
Ni 1.0329420303137111 7.800540561144474 8.676014349550858 -0.32417599942883524 -2.7854442047677574 -1.9489627878265856
Ni 1.4319587876211028 3.7930020197688137 11.524719669828237 -0.1539453160026252 1.2627857477013413 -0.413121770631624
Ni 2.3389405851458642 1.4061094611816252 1.058257431919325 -1.317626092579989 2.1095366648893217 1.305565561871029
Ni 1.4846700565642825 5.272645818414309 9.383377301214919 -0.5221224036027587 0.2227524074740099 -0.03340660048490376
Ni 2.88382008370451 5.499223265584844 5.082489409393756 -0.6118654738958623 -0.35729849301441685 -2.0202725911151656
Ni 7.11394084159731 1.181253461320272 3.3027163354727462 -0.23260127524363167 1.810616611813798 -0.38634398831714756
Ni 7.689843214123562 7.305141165724073 0.06690354336331597 0.505577097649568 -0.6596005751882963 0.777442460600145
Ni 0.6332081567208367 7.287540057407733 5.1936847794062535 0.5546784831619092 0.0516164386247111 0.08604093885116794
Ni 8.560186721324563 8.67144560998109 2.5535590365979073 0.37563148699564985 -0.6063008353238913 -0.39616483106231126
Ni 8.24545644296299 6.023933293264253 4.279627557272739 -1.7631633034278407 -1.7375535732795366 3.344296102581066
Ni 7.960312964877939 1.5516868288147798 5.6366877374234425 -1.4437474443918104 1.0399978590037058 -0.4549016827818876
Ni 5.4429402236151265 0.30315791786760393 8.381877920255437 0.40541643156756635 0.8874386247153296 0.5389155639006977
Ni 3.892008254048223 8.929524622349591 1.1525338286187472 1.9097596352645627 -1.1778624673943843 -1.0608556762893215
Ni 5.203079094802082 6.480853278244122 3.9329584476854635 0.11572818150295552 0.28273007357922275 0.6109259928007285
Ni 1.8317580209781226 8.162569215305918 1.7935290028734707 0.08584399234901345 0.8455167876705632 0.7094540083753136
Ni 7.538530757326664 7.439220738227987 11.022637008383954 0.2529117046662096 -0.5269609626419828 0.833717738153106
Ni 3.314384434212789 6.251569384501932 0.6128306392684053 -0.1196030910773295 0.7494189788040255 0.5950486594488398
P 3.539875620514428 5.837685582251607 9.758420833481821 1.0530045556760188 1.273901655108845 -1.1335785578753446
P 0.24250497730072862 0.6442235783794831 0.9298080047324991 0.8474456292621598 0.3503259183513257 0.1858136254661316
P 2.627315229035848 6.388419842781588 2.977780728303906 1.771319613986388 -0.11603671388230984 0.5135272057345801
P 6.297091079389118 0.6844787491726425 1.200796951359806 0.4675661656234334 2.6240015519468227 -2.07599379593687
P 3.20967993317197 2.295407299984792 12.197174063518242 -1.7407875068358023 0.14153151571930464 -1.2575982899631308
P 6.9258980384708115 5.079834514185371 12.395690078428997 2.2695348719542463 0.3435050387747504 0.5118125370363186
P 0.2993523225862364 7.283820994771854 12.077167092626874 -0.05282614266209612 0.34518371202875386 1.2050038036958666
P 0.19449961137601787 0.1844839179407787 4.574248201158871 0.47584126114803216 -0.33264932700716904 0.30600164251265366
