# total energy = -340893.3633496442 ev
CRYSTAL
PRIMVEC
9.07204978169059 0.00000000000000 0.00000000000000
0.00000000000000 9.07204978169059 0.00000000000000
0.00000000000000 0.00000000000000 13.27786187235247
PRIMCOORD
 96 1
Ni 6.512842470027525 2.044749233627297 11.674838627505371 -0.01979826567284977 -0.39542332491059645 -0.2246352263190196
Ni 4.512265045347082 0.513438991089225 6.0274451838992205 0.049513019128463114 -0.6012668724444097 -0.24554060901311903
Ni 2.539021705767658 1.4690369732519997 4.834682055256219 0.6823977755884699 0.2257793672257918 0.5664158262034954
Ni 3.4540921212620663 4.570534819195026 4.8951490794896495 -0.20978376312848385 -0.5587264279790377 0.4420050293248775
Ni 5.002164789635239 4.653507783793079 2.3906519652455365 0.533313644332888 0.16950460389346292 0.10053167626817525
Ni 7.212297485390516 5.807027947974917 2.781699029515518 0.8743221419380298 0.6771295852109951 -0.9408900596662505
Ni 5.108171687877995 4.595020280757473 11.625670840906633 0.02771854896119097 -0.33664276443727825 -0.3555090052141619
Ni 5.488934676850759 7.836381913624639 12.54181629426512 0.36649918567707845 1.0312838761694756 -0.5619269371942064
Ni 1.8943800133984827 6.597520979928928 0.2669006030801652 -1.08932550159424 -0.510521843249353 0.3955932748295574
Ni 2.778541956294425 1.5478095789380808 0.40256312388738485 0.3156610199792886 0.020808966325551258 0.552598717814745
Ni 0.4709427896824175 0.1426724934449756 4.7870810116036955 0.24788751197874082 -0.763038369359673 -0.2993579119438909
Ni 8.84609194935597 2.3666709096345055 1.42053235347068 -0.14120421428687294 0.4451515453736592 -0.1413790493018404
Ni 6.6975584696099615 0.5746599026349328 4.742719596822586 0.014113299472930533 1.2678965865653455 -0.533385635221404
Ni 1.0351208463413397 7.513090358145059 2.5587497845796996 -1.3753221617398765 -0.20875403631238887 0.30392239138612176
Ni 7.518869253667579 3.6676300220612115 3.8741080539504282 1.714632959927621 0.1992378692918375 -0.04514188664396097
Ni 7.548879593366941 3.9379680246915845 12.686239693260875 1.2330182866309214 0.06872892993528164 0.4654961704682822
Ni 7.914356178955961 8.916817647148056 6.844551980225072 0.37737700893184684 0.2646166518079636 0.5525817485338805
Ni 7.016586161831167 0.48048204971684266 0.3091754464795168 0.12918790655228718 0.8225825474718931 -0.15974803872733132
Ni 1.6877822304560524 6.39815362042676 9.274984882466287 0.5898259775973197 0.7520656723982533 -0.21489820153691377
Ni 0.20486865031041782 4.902599046527471 1.360462685004733 -0.25346474895620213 -0.17334506068547567 0.27378751967395426
Ni 6.311243386351825 2.1530967206374165 6.9547710310441335 -0.11729552599007541 -0.7515108283360477 0.6580041772354538
Ni 3.3216129826194494 4.515839432844527 0.323601819571997 0.9589862550463292 -0.6752089711495146 0.16208131484619828
Ni 5.826315125181943 5.540137324149185 4.818761515613411 0.6799153754862484 1.7978384862125232 -0.05265644985345124
Ni 5.248371140633114 2.4674341632744112 9.743255046370157 0.36975343094831803 0.40838991237359346 -1.394995471799088
P 0.229193536596965 5.447012736176409 12.439815613075337 -0.23372381888384908 1.844403992676888 0.13986801197395266
P 3.9686496960529025 6.263361109165238 12.57131950639822 0.2415021772776873 -0.3935857574812254 -0.4414740965220719
P 2.4932259999628283 8.589325732756505 1.470032177080603 0.15891525841339083 0.4356124955349724 -1.8796934120068014
P 6.322420151318456 7.896602178112052 5.855869140792164 -1.3624666459334471 -0.8700865065901273 -0.2989678755943238
P 4.773413061848237 1.1767173947172875 12.668009409818957 0.2347178073660022 -1.3776099293327888 -0.060239661517347866
P 4.009092892661051 5.885274374790816 8.465579348949017 -0.14914583773145282 0.0497359337725466 -1.544405876045837
P 4.608582994738895 1.188901157176853 3.664822222745325 0.21025787455142497 -0.9447163753908762 1.4419343024424713
P 0.4579316563097378 5.5622640528453 3.5420020951903473 -1.5824090947624876 0.05429629944971939 -0.025460349054633572
Ni 1.6587970323485977 1.072162024392275 2.6632870108057403 -0.7493955817652577 0.16825041977138766 -0.5903682232540349
Ni 1.9619667820684477 6.5546555461080445 4.719974154351535 0.4893490658264799 0.9265774996983204 0.6560012878728122
Ni 6.128940551932639 5.688583269886989 9.307940009428771 -1.0135903155444543 -1.055764377809343 -0.3469698573948992
Ni 8.553727010573828 2.2896945697466324 10.24991177326372 0.578813685647216 0.07569507684046964 -0.25010971644104024
Ni 2.3999744032972488 5.154284915414832 7.164295457150716 1.1049416108649424 1.2098035390773552 -0.3340834883505343
Ni 0.44117104488453507 8.979432932699748 9.09398116553348 -0.12100897028592061 0.20845347435283454 0.2377756203557195
Ni 1.5919269555880189 1.249593168237533 11.61846037597524 -0.935174497338712 -0.57037969594725 -1.0947240469019923
Ni 3.949344374746905 6.973757016208227 1.5169292296930212 1.304383882858102 0.12133215795329425 -0.6947804655235389
Ni 5.545435401048953 7.685858468554565 8.158462350497851 -0.13392696389916933 0.8923234636114568 -0.39302422855080055
Ni 5.481060137896996 3.325786125382964 4.932871568456974 -1.3717514136694826 -2.8228118467829386 -0.5639326547703255
Ni 0.6148645043416016 7.266720710256438 6.996809093951902 0.6578393695228154 0.3750943835452572 0.014156751116356264
Ni 5.150202493146176 4.514487697471127 7.056387057335713 -0.4791685257490522 0.546834047416826 0.5953448505330198
Ni 7.988873993433154 7.204568099228529 9.154700392742617 1.1640240188493953 -0.2786602743852233 -0.8166468987137484
Ni 4.618979563449739 0.23355900680958075 10.436385936036528 -0.2528461415355968 -0.05165243406896911 0.2649120715611954
Ni 8.247155242296765 7.291823071183927 4.687045336332559 -0.4399316917356165 -0.7286874026836289 -0.33519060537178397
Ni 7.288901871249466 6.286032160830506 6.87260820046517 0.20620067376291584 -1.2597215069537209 0.5504485042409617
Ni 2.509464968542592 5.248470933177459 2.612299371080129 -1.0487172411545747 -0.23522431468877555 -0.5327724271174372
Ni 2.386919724087037 5.0824161393875205 11.254222125141043 0.5376534093588224 1.5563198538746037 0.8073418192627386
Ni 1.143205243916368 3.2285700430920454 3.6056434295388935 -0.46556970401869496 1.5329696091844374 0.9404213475599481
Ni 3.581046381767769 2.8655338388147324 2.8498809246317585 0.4001418134321883 -0.15866817539959124 0.21083483010081755
Ni 1.2259060470298446 3.448022920155998 8.094224075293132 -1.7708141351048794 -0.8888972115387272 0.7718562247616191
Ni 3.6141049300943937 2.596311698271125 7.331662976501263 0.3137386061455952 0.3125142468201908 -1.1675569717033183
Ni 4.072461158320071 7.0078134899783 6.053788601196381 0.3474498823551113 -0.2022342329160001 0.0010541522961272168
Ni 0.774997064227143 7.431795722701898 11.41971808068265 0.30482253460288794 -0.7611326676965279 -0.026869827807650497
P 0.06527339605105995 5.427616694375552 8.151265493640684 0.5776793149324567 0.8876183448263036 -0.38965351230635475
P 8.343699992925727 1.7965470317425232 7.958909921186171 0.5530754003408475 -0.45805616925046916 0.3077188823140765
P 1.754625091068173 3.1033031837907203 10.390045907262543 -0.8019962386801092 -0.466303496860926 0.01841732616492312
P 4.140220295930269 6.259795793717279 3.6101576813630776 -0.6562794812348632 -0.15908109456729377 1.1801888015347157
P 6.963732401526307 3.995575538927058 10.507449114069487 -0.6133945089458791 -0.13867064923174183 -0.3513487031888852
P 6.468688805179643 7.998717167125358 10.37148358680944 -1.1569784248565236 -1.0855475226090465 1.1087147047541293
P 2.310533067415748 8.45143965262029 5.925258525694977 0.21386821761050265 0.18755631918885118 -0.15006089334655445
P 6.978447265792439 3.7998551433182226 1.628728631532526 0.5899923279718549 2.022523849043188 -0.1286960545175332
Ni 5.3040644524270615 2.973890397874338 0.6000716204498909 -0.7832824643206898 -0.26625907250739306 -1.1379013536204146
Ni 1.1682985327943711 0.9580810021070659 7.077498623694354 0.44388707683893874 0.7582532892662038 -0.8597882099879128
Ni 7.008956568213525 0.6631849615183578 9.280401803214318 -1.179305627598814 0.27963035160797645 -0.8256519304258362
Ni 2.43702465339767 1.479778279843307 9.028693254203242 0.5595882617587008 -0.18182455891139654 1.7456242661028132
Ni 6.3265025735871125 1.9883483019734487 2.5912939477004735 0.6350804785597449 -0.5457670396048924 0.47844913108452436
Ni 4.127991173223274 6.834364975857353 10.311295074495227 -0.1531719281717104 0.7551378835656737 1.2607350358198997
Ni 8.2787259745077 7.208868250684845 0.2828329363873051 0.15791818460744417 -0.09698021147149105 0.09774048667628328
Ni 7.483043730247755 3.9286873180675075 8.249787951057574 0.7150950087111749 -0.488091796380611 0.4479517338266156
Ni 3.052000743947948 8.239316991540946 12.348172490783607 0.020906668245680122 1.561891177314794 -0.35237560179150285
Ni 0.17667362771318512 4.662080870557255 10.331411437025265 -0.9249677320090393 0.1724865693399223 -0.39050120501863067
Ni 8.465129375294516 2.1367125992658784 5.671412601825024 0.15453666972972094 1.4101225572485132 0.6143311618275356
Ni 3.5768913831032263 2.6233645498380826 11.570846631453435 0.4763351700653151 0.6035176161517993 0.11957146650844569
Ni 1.277689305495369 3.550981609771492 12.62359446994588 -1.2167000090868723 -1.358159791027977 0.9102566510511098
Ni 3.0713514255013754 8.37997004677036 8.123276406566783 0.05453438360245447 -0.8105382147128493 -0.303209167369181
Ni 5.685761862496874 7.7526106086718265 3.521926556882996 0.8282567150385349 0.57912556046068 -0.052716099446793084
Ni 3.275817276814619 8.363223043419387 3.521315100747646 0.09278262845037569 0.45922499274758977 1.0424262659395402
Ni 3.462211605551948 3.9202956722930486 9.497083169160327 0.8968439771896296 1.2368991097425666 -1.730402564057052
Ni 7.289682067505255 6.141469052272669 11.315194462530838 0.7168870676145912 0.09142457176058448 1.1459406789851232
Ni 0.5681906241465366 0.1772469812406941 0.32479933010413603 0.2988192658316015 -0.655799199164335 0.40045163136312323
Ni 4.841825387021418 0.38907298630184967 1.5202486925999126 -0.76961473702561 -0.5330912439094367 0.023520194609127236
Ni 6.20786738245998 5.776654726296119 0.29064397099466616 -0.6289545681676652 -0.2829732999382804 1.0703551311393245
Ni 8.213606803297901 9.007374845116322 11.3645083091263 -0.5889769993334631 0.5010046477875372 0.1806580494071211
Ni 0.38203035428594445 5.064380905009549 5.798972875236385 -1.101092412322181 -1.1508977658800823 -0.32054277355162214
Ni 8.045429149928264 9.069808689678297 2.5159950297625437 0.017276013471628313 -1.2052616853429436 -0.25197530889486924
P 8.598597367331095 1.7197430607948827 3.554350968950556 -0.3688725710052615 -0.25887923510355415 0.2556021070141791
P 1.961830701326159 3.3084222226669486 1.5423826789356145 -0.9133818269436527 -0.41908904395865243 -0.5064846970655019
P 4.7507057219850255 0.830152403486577 8.212596176985173 0.2774246022059093 1.0936308138378132 0.3131505948526091
P 8.592183428344564 1.8303494881269913 12.51604441608557 0.048285060258632974 -0.6932277763244384 0.19431626362050405
P 6.396148697490376 7.767007951205952 1.397999196957598 0.4410886881581952 -1.0346571635170827 0.276286374836408
P 1.8499088268185946 3.2731500942657643 5.952119957017782 0.46517221146996013 -0.34004459102997564 -0.18274501384313688
P 7.154617394759156 4.150598720542139 6.055793524132765 0.0373784406484582 0.07301830133925488 -0.2885885892425288
P 2.248316952041437 8.656368178457315 10.210608933275951 0.48121743785828097 -0.9308229052382356 0.4926020255461387
