# total energy = -381176.7322654399 ev
CRYSTAL
PRIMVEC
9.15385193532274 0.00000000000000 0.00000000000000

0.00000000000000 9.15385193532274 0.00000000000000

0.00000000000000 0.00000000000000 13.39758759288769

PRIMCOORD
 96 1
Ni 5.6101577775589195 5.473390077583871 8.008220714600172 0.4186933511821305 0.26371650859119744 -1.0618344952628231
Ni 4.962898069538325 1.59613883336117 1.2373032652685465 -0.5789363272680094 -0.22228369536770753 0.5300735401290354
Ni 7.327218993402546 1.1511426350553653 1.4857122573703394 1.4113649142960467 1.0147257147004782 -3.073989856587493
Ni 6.590333922256613 1.1995665111592408 6.633359771944901 -2.205481236007447 1.9800703078646673 3.891104181855963
Ni 8.081130228925268 3.293711498689645 12.79833983112136 0.01492653940284526 -0.5293891124675012 0.12349625548414861
Ni 0.15698398170953035 5.185538053394367 5.243453558445712 -1.0564968850999934 0.7876790507264887 0.040527013579768914
Ni 3.0299341047748474 1.1322673926118507 10.495790930078345 -0.8826761703296799 -0.09274149079979511 0.25855553321554825
Ni 4.7521489391905885 3.2772620269772323 7.446338982462536 -0.3314694477664549 -0.22836538278541313 -0.12628333131098252
Ni 4.359778234971963 8.795606670826913 9.157264371434248 1.2080112230636226 0.3971511062349805 -1.4463188046634123
Ni 0.04413438114314292 5.380835481877578 2.2729407673458546 -0.2528677388021516 0.9192328864077911 1.0577371852649977
Ni 5.404717881264159 3.9637642977307785 0.3506794861250329 -0.5909091833591694 -1.2921019801669553 -1.4583600520986628
Ni 3.1049316126990543 1.4381525048778447 8.141352504634112 1.0281381314516425 0.4014834150617473 0.6073668146945604
Ni 8.523389425538245 8.865624483363499 11.31873776983785 0.4907246060177678 0.10198563510588242 -0.1322665454776109
Ni 0.4789551577708629 3.1902363577674886 1.2791409449911861 -0.029830453097871207 -0.5746613540417392 0.567682608731061
Ni 0.35894083738850124 5.059324744562565 13.181470637317442 -0.4806415107501529 0.44283780963881797 0.27919737783561593
Ni 6.292897815216304 5.627229711194785 5.639607549619673 0.15061728007065672 1.2580562034361558 -0.36050877242159846
Ni 6.678897438571357 3.445299284753952 9.000070766518142 1.4337353115714468 0.01099300867639397 0.10437701815619443
Ni 5.987818241910072 8.332375999704677 5.65115604907008 -1.68610219947778 0.11100172256156365 -3.1452775483888864
Ni 8.39422857642186 6.49000770635898 11.269595316366463 -0.2540537886904528 -0.9836418488114802 0.32905261079484616
Ni 1.641047630367902 9.067311300413914 12.787367108950148 -0.14569721706122005 -1.0275010120882757 -0.18787873552527642
Ni 2.340063216553206 2.1089284582124006 13.407635769507625 0.3800643259560229 0.3061808484029953 1.1119563516198783
Ni 3.9702818402233984 0.5689805442205388 12.587394808344772 0.8821043569866099 0.4294091949377378 0.6753591235741336
Ni 2.8458318370619655 6.0102817942652536 2.4092480285745843 0.6000754232394697 -0.8175169600235276 -0.6798292435303454
Ni 4.486019005359212 4.21945884049251 9.618154402647265 -0.7335228763990593 0.2921909618818065 0.7984848830927409
P 4.39433402557539 3.1984107474387096 11.50357051492561 -0.4170409031803721 -0.6640758373508305 1.2714789045999653
Ni 8.560846987167178 8.341191159002982 0.14257398818160574 0.7756064358326706 0.01958049323508886 0.6762476968266742
P 4.642449179033907 0.14420611996030536 7.078052977755614 -0.23728068299717203 0.18115067277282348 -0.09013850595930928
Ni 0.2857127690202264 7.173965206307823 9.001169228736 -0.9337251664866951 1.196194690044669 -0.08019090782829415
P 1.052381727818179 7.500638716046766 5.840450381532701 -1.172041232726917 1.604755580778488 -0.053820131144249245
P 2.975395455658233 4.61135354441673 8.101159772082713 0.5595887759793331 -1.520518527905278 -0.05356687748286258
P 7.12875433219118 5.300940663232091 13.032730614552932 1.3738484054078275 0.6042550085384562 1.7736071244689842
Ni 5.03037111127021 5.947477216959262 1.3739894959624372 -0.41189638286495517 -0.006511832976588785 0.07322553225405454
Ni 6.434388902728139 7.737668554956739 7.614210555521395 0.6702032904048071 -0.5156105706261701 2.480413410808806
Ni 1.5425796463888115 1.3946991703097733 6.4812438086308415 -0.2518344124416308 -0.1167486523476699 0.990127970756456
Ni 0.20344527198416762 3.8055948922111438 7.598776245975318 0.6250470055831429 1.3828542084508635 1.0084547940901019
Ni 8.23693794067651 6.04481927716505 7.2533199476961965 -0.34967208681741074 -0.05088907354038333 -0.21076926697020473
Ni 4.423251043460484 6.897116112000523 4.30200553000894 0.7302292932494521 0.13979962062986245 -0.4953513061565018
Ni 7.719910082434713 0.13150789672187507 9.160854512116277 -1.887550703267691 -0.7999658385136417 -1.6183752284444517
Ni 5.509511176847745 3.5164064056565807 5.155579327172672 -0.25238822806257183 -1.7837228727467473 0.8115525149099766
Ni 8.642233883658589 9.080199923770106 6.82067138010429 0.9522358236963729 0.30871415634781024 1.2750581373107914
Ni 9.14055126878955 2.6529235639025934 5.526437564239744 -0.42318892505963895 0.37874689269618 -0.8836657879364587
Ni 2.849063146752829 8.8012179819898 5.214434932805467 0.7604819214864065 -1.7749209581844012 0.1680745563151557
Ni 3.7366297726333366 1.664838491236328 5.789714242460235 0.9762072469103058 1.7495066318763548 -0.25539821853348915
Ni 8.954627384565386 3.990237237181139 10.603413681258095 -0.579677319199092 0.7785737459911107 -0.24707401493851
Ni 5.0989426152199515 4.3484183048689555 3.104247819968438 1.0867227738640703 0.7140670816672927 -0.719042166284381
Ni 3.5507425038164366 7.345764697180703 0.11482866332889362 -0.37874663558586386 0.3331146966793618 0.29517549843142715
Ni 6.328076067743184 1.8784161617950477 12.290812755678846 -2.143580641847908 0.2689541028410529 0.8786863324439963
Ni 4.619830011197862 8.145646576520752 2.2601189671079154 -0.189577463383938 0.3113837327601734 -0.18621111801486642
Ni 6.8000120519419385 8.770515963000689 2.905414258528908 0.7236346707510698 -1.8877360798056197 1.4055999867878115
Ni 6.49826448069654 2.1821684265880354 3.2083737997546753 -0.3526185710402443 2.0380677103150577 -0.19836420843763256
Ni 8.04321497470556 7.557264443377309 5.213417024483586 1.0601164841304516 -1.2865005748197778 -1.770883297779918
Ni 0.7670927821370093 0.7517115649314626 9.353753631423835 0.9420894792909904 -0.5420499957646213 -0.8582478620839864
Ni 5.156364727658441 0.7748744715653467 3.9833572021566264 -1.913988842854562 -1.18961112328988 1.362502384267389
Ni 3.4062855683163864 3.5967863784482876 1.8243223898766652 -0.8592045695703009 -0.4382507044887678 -1.301688595414126
Ni 6.598105542447953 6.052297974098295 3.201915757298856 1.0780692119541304 1.1607394345608524 1.2270057618882546
Ni 1.5875799819136986 3.8518401515829357 3.4201628076686506 -0.727287951232941 0.07658724963743585 0.8477001684751271
P 3.584483601608286 3.3599213088709936 4.1180964085693645 -1.2051696398497695 -0.7651340755464371 1.2047142974799059
Ni 4.045151194222188 7.167649048555144 6.941450962498425 0.932323401043162 0.9122094039021064 -0.32856590096641475
P 2.527250332327904 4.937157438233203 0.28780808570078925 0.016543506180977958 0.4938636658673818 0.24578229271027993
Ni 2.8966631761933113 1.3245257422923233 3.401848696341425 0.06642162195834367 0.52032520249302 -0.9608613605818548
P 8.687701065626065 2.2241754525692614 3.349839256481427 1.0285425659789127 -0.0896070589358715 -0.45488908437639725
P 3.060242508135893 0.18345692115989107 1.3063333771942434 -0.19366268919690519 0.5655046272431358 -0.7400383089200738
P 8.711702465086248 7.635401722474225 2.550177069584949 0.44919357665351667 -0.1950012055026706 -0.02415165754553905
Ni 7.601569086164221 0.9533278973228978 4.898023806336855 1.3005693942080183 -1.0038268083997872 -3.4204259529661094
Ni 3.702549982324314 5.5298968048408135 11.658955318722978 1.3325739721390728 -1.2421834980699575 -0.036335601206240645
Ni 2.1048000710436203 8.459770155420676 7.628009987133227 -0.6331866039711418 -0.07753521537300195 0.32975092241345144
Ni 0.9405674278921222 1.8212412033555756 11.453812007227036 -0.8864312664967379 0.08411852501747448 0.28385236010912407
Ni 2.1754403455036595 6.223337695270491 4.6078055114530505 -0.2682609334287703 -0.056209971532664486 -0.21613618770907292
Ni 3.8471259178979644 5.2145374559458 5.857385007391334 0.912838295735357 -1.5531921068788992 0.22642034324390037
Ni 1.636251012016592 2.959165676389391 9.298140320104082 0.6984671703465067 0.3837320046155972 0.1826794507125241
Ni 7.851771317836665 1.9202858799990414 10.649809063799658 0.301361572637481 0.6228854791554498 -0.924083272521557
Ni 7.663092124216044 3.980872846773906 4.117467538949642 0.04106514547142605 1.1032881344219192 0.4863465315547302
Ni 0.8831846770164388 0.49231154295482604 4.439156776375057 -1.9123428226107066 0.3519889078760454 0.11538956721661418
Ni 3.4446859766823144 6.669999894606713 9.137838067111442 -0.10961461240604993 -1.0302382085137805 0.8072721423670677
Ni 1.2627097809824044 7.068027679247302 1.0575023925237572 -0.7414848115586133 -0.24559897305488024 -0.9044991797420423
Ni 5.264810410116402 1.7741080203576824 9.98018466502349 0.06320285791072985 0.19485876638753538 0.03756870228239336
Ni 6.225287465707188 8.86390355922219 13.184605831564243 -0.6432113351969955 -0.2701625213268573 -0.47479147972727903
Ni 6.375639481776404 4.307216817847491 11.348921680814207 -0.5916139227356778 -0.22076545895096814 -1.24716758154811
Ni 4.143692409015803 7.885393415554914 11.15276836718625 -0.688134420961931 0.19041204347009144 0.7289956779526671
Ni 7.244816019359618 4.082334140296657 1.80166752201854 0.26356867015942353 0.03556966957449358 -1.0296882495475816
Ni 5.594879998878888 6.634089333934595 12.422055190698073 1.2034212897000953 0.009727768810725183 0.560324368593777
Ni 1.5016070056627344 5.3488519236343 9.679850448498401 0.4581654411348238 -0.4130983735928563 0.3888739538278529
Ni 7.217684002578543 3.7324281546500324 6.766263631068637 -0.2337382170615523 -0.14651585630777347 -0.8162774311894717
Ni 2.03414148887995 3.7883490353907843 11.723826835768902 0.7840643367920368 0.6480640353036065 -0.05280480250585744
Ni 1.9652312924130355 8.20876238478847 2.906405620680524 0.6910173989366809 -0.47665321552636625 0.682388005396457
Ni 0.6545855356285207 0.8627093412755789 2.006476717923214 0.07949799552632761 -0.1700162534225588 -0.8154929876149632
Ni 6.010519794412455 6.635206103856083 10.0044872262084 0.023671889695643104 0.7205701728931332 0.33534975665746763
Ni 1.7739249433213726 6.081709299981424 7.273214929231956 -0.9525281581258113 0.4184398404104277 -0.1901006828772597
P 8.42270620941981 2.0260403300232523 8.065441442298722 -0.8523932030754223 -1.5525871263050488 0.2372770834527462
Ni 1.7245765281841339 6.462280689209899 11.995690742377493 -0.9874031156261254 1.358379363237951 -0.49770952197603313
P 6.275240035064248 9.189643376075956 10.894314853487334 -0.32499875244044674 -0.8801798862703875 0.3371343593617161
Ni 7.027769038962832 7.087122614134389 1.1733645257226184 -0.20356734990512687 -1.2096664992788586 -0.4994321610940947
P 7.747206868548466 5.458707299271845 9.286725466890182 0.15341772563392933 0.11175634133940107 0.4869011185066195
P 8.841888545605967 1.2824637932002045 13.197655562712388 0.7016903052694947 0.15349511583908404 0.23911593643369788
P 1.5854562882925076 7.9962740225957925 10.494289698380605 0.6640041035726306 0.8180283524423074 0.15095949390142388
Ni 1.9076535644936825 3.974053227171375 6.08463487102165 1.6395680604719827 -1.7174904839810745 -0.6581916106559117
