# total energy = -340851.5543961825 ev
CRYSTAL
PRIMVEC
9.48847954713219 0.00000000000000 0.00000000000000
0.00000000000000 9.48847954713219 0.00000000000000
0.00000000000000 0.00000000000000 13.88734892743422
PRIMCOORD
 96 1
Ni 3.72212182762181 0.6920185434641444 10.433203942708248 0.9542785651580147 0.7754580831802645 -0.24982818064487938
Ni 6.563494506921922 0.2765758984817326 6.934398228337739 -0.7256496442985696 0.14187270110880726 -0.07121570091287735
Ni 9.302477002113143 8.676749721856927 2.830199994489786 0.3624687243614467 0.10909422112620566 0.9077814500377398
Ni 2.342420975902284 1.2601839618079727 6.163553191174862 -0.5312235945730786 -0.10129143725233522 2.250837295544743
Ni 6.314678104560008 0.33816751770957276 11.323855268412585 0.3203262866654419 0.02130827455947298 -1.2099544628329229
Ni 6.67524033198451 0.9974194943325322 13.47222829545077 1.1054406619885477 -0.4089324151406248 0.07733801176053132
Ni 9.586495664047291 4.085226967597621 9.122807895339546 -0.07456224878760707 -0.6345963398344749 0.6124370301286162
Ni 3.9615825890300247 3.2155983174480682 5.272596336425182 -1.9730152007900987 -0.41853060035202116 -0.08726426973530778
Ni 1.0957580976227306 5.848433190581451 11.239114605336125 1.2902710976058038 0.5660905816535927 0.39533205074837074
Ni 3.739703980448589 9.622741656383123 1.803772320112986 0.11716285706695305 -1.0709619114853879 -0.2872770695199569
Ni 5.033078644138954 1.8289993410091314 2.7904404181324995 1.260569713886629 -2.4071963631951836 3.704543908031794
Ni 6.17997015869828 2.7197588353816946 5.62844563599806 0.8582080099849866 -1.7160918038613346 0.4029507436358931
Ni 8.582880192490858 8.18826381153408 5.720559796625351 -0.8180067551757526 -0.501496242711975 0.271493581433455
Ni 0.8731080756441998 1.9738125177184145 0.7278280657351989 1.687867518908319 -0.4524390801740079 1.2141703006864832
Ni 0.6215172418270514 6.141057903575441 0.11867051752507266 1.1464291885857676 1.6116955024314308 -0.5382558188295118
Ni 5.890286874401699 5.640341342959167 10.183259360113684 0.07315739802028046 0.3544108870539767 0.20035449939478397
Ni 3.884147106450778 0.4082019861469477 13.249905626020821 -0.7258262790857499 -1.1495039708563493 0.11828385804527371
Ni 3.445096175203764 5.738860227363078 10.175955128464437 -0.5368003173299077 0.2971174526491464 -0.12320726348882009
Ni 1.4048073689238738 9.60803451289607 8.3526014328584 1.5499568877710532 -0.9020849138735949 -0.22252332218233936
Ni 5.931020917620999 7.634800792437469 5.979697767171274 -1.0624672437508154 1.0408992877720524 -0.39147770999928705
Ni 7.067513058463029 2.8598372607361133 3.225406558881981 -1.1131262035582636 1.4771671575028367 0.2968775687241984
Ni 4.097239382858659 7.3555358588175235 0.9048973290794711 0.45881773000684206 0.45230178326519527 0.2232954244616735
Ni 8.723015548723293 4.410956986156982 2.577978176774645 1.4644702787614585 0.2733532603500131 -1.608758531290294
Ni 2.232202796066415 7.844581589440846 2.6312778136196884 1.2371569913896436 -0.8854881858571783 0.7994950695248102
P 7.175207302706927 6.1454795351012255 5.421912745585404 1.0858239161988847 0.43086855309208383 1.0469395804288615
P 5.792175994623559 9.07164126872411 0.7487795776924632 -1.721858274031467 -0.2635624995118364 2.9611217702411516
P 2.621723863440906 5.17968514350569 3.4304526045304944 0.0502817789736876 0.9960561633154328 -0.19105816169452255
P 8.383422861367427 2.5989135583164718 5.48941948303894 0.1730226443490504 -1.5546465799372386 -0.6917059403632733
P 0.32428966734559705 2.1446051517615996 7.8603504938028665 0.6408497769433544 0.7980303120538256 0.19890542565308325
P 1.7037514093774624 0.9619136034108877 12.811218103545134 1.4674471020015953 0.14341047790957237 0.7411104589383302
P 5.506496848747325 3.4732864483005583 7.566716206572087 0.1389526992485349 -0.36726434597787716 0.2746125866784109
P 0.355411880660133 4.171031289244984 0.4792223076219386 -1.7267479980236005 -1.852469543293842 1.0514382396301634
Ni 6.583429802706628 3.2173441977071766 13.49933688186529 -0.6843551564251569 0.5224661600954228 0.24766922532034763
Ni 8.727645926801797 0.23079113753458916 7.918344081540197 -1.0237924528884368 0.4164361797168376 -0.1339984405670531
Ni 5.415473863281976 7.317724267336295 8.19588306070834 -0.8441792998060622 -0.210671822160392 0.951046174263646
Ni 3.584292171948959 2.207931265072945 1.2791808469534092 -2.2868818478731257 2.416671392565154 -2.6660858827113825
Ni 1.636402180686433 8.797310344532077 0.810132087232643 -0.3862732829802122 1.483905761778251 -2.2693528378504273
Ni 7.561388425237907 7.813317048931274 8.696341534677615 -0.6906659291345331 0.32936834226305206 1.2076294142441717
Ni 3.005893428282044 5.964505762373133 5.397207591071057 0.03882957127268797 0.7557804022456791 -2.237903103981578
Ni 7.700907030291852 3.2528121347101444 7.667053083680591 0.0379566817494314 -0.19397816355479494 -0.2997746877663353
Ni 4.353286006728401 8.170880916780352 11.036554541360907 0.6095643365665115 -1.312402125176888 -0.9242182554375244
Ni 2.546470731185545 7.854516027654357 12.61557324355273 -0.6839085558060415 -0.42022829976941817 -0.4747110041983308
Ni 9.113248252072964 1.9751598818314215 3.1450543176524643 1.739617912007733 0.7573120083988569 -1.9107528524157673
Ni 0.2656897657574133 0.6883521949200174 4.862085803174752 0.8393798215348899 0.20303538866105678 1.2599019983956432
Ni 1.806151081966021 5.113341693659582 7.8727661694498385 1.4986245560456644 0.1271644483643552 0.3314987583424936
Ni 0.7796503462957689 5.742465849637322 5.910913880354283 3.316723078058804e-05 1.2702005521081736 -0.26907494468963333
Ni 1.8481470929813064 3.578475733911822 13.02990288986996 1.2711261492462367 -0.2721528122840087 -0.7466280463224496
Ni 5.530075720724954 4.754686650648562 4.784927384201842 0.36129964375401 1.2166825255853755 0.047187970539712285
Ni 7.594740431274674 0.597357674893676 3.9305505162723446 -1.4599330530127372 1.0622150185306931 1.5385041658494214
Ni 6.32938524804706 7.770723263696837 13.141334646255503 1.3062638734896344 0.5662381629750506 -0.9312944455580154
Ni 3.257053485122217 4.623726654256115 1.4347435222797769 0.23379401000015218 -0.6756301178473332 0.08544649980027866
Ni 1.3802606720200008 7.9515926631485705 4.77255440671338 0.13998936804316536 0.24163561753175802 -1.457575351413838
Ni 1.5135548344110374 7.658835111439213 9.789206594849247 -0.016778247899603364 -0.2817381419795987 0.43346613861593086
Ni 2.238721381599064 1.9510306780329871 9.291122138493172 -1.8382212609049438 2.0750710270122843 -0.6035978345704314
Ni 4.867922167019194 5.854287582537264 2.761971183733434 0.23318697254377257 -0.0827391281714446 -0.0919177093469191
Ni 3.4021797816605788 8.535997614446005 5.870779509050067 0.7146198688469693 0.6073063937702702 -0.8748024240085579
P 5.095825960190487 1.855880203911595 12.437578853440725 -1.6143241983035295 1.4555526645568544 -1.3698459691166538
P 7.153146587476349 5.523661508468665 3.403025205199093 -1.0913224774196109 0.8194661133300983 -2.219782740231784
P 8.39364195397101 1.936162230391561 10.918358447819287 -0.7354506895493914 0.014561956974574922 0.5646700471569823
P 5.3980055722112255 3.512293588220088 1.7612212330370602 0.1566855977519237 2.0510772352008484 -1.7669878193802535
P 9.058044277358338 8.814883008879187 10.067231384176447 0.6001988361912115 -0.20326447395272734 -1.0693536864580035
P 6.358154318403668 4.831809013398729 12.216409034290567 -0.3916846838037706 1.0345805446428764 -2.1597346258999512
P 1.4362711675064963 0.6255147383116288 2.57599223797991 0.768145094458619 0.7489556660143618 0.4655244526030563
P 1.161968708753472 8.213598052250486 6.7134637234833745 0.328932283166898 0.9991962516063114 0.9633699859363215
Ni 6.436823303339892 5.53712566111907 0.3021843562605744 -1.2012865027452793 0.05748909535540422 1.9816880459737485
Ni 8.176725820256495 6.895837995810622 1.6198893795183578 -0.7557120109015888 -0.6287511939076074 0.19766332571586603
Ni 4.302171566751142 3.8763665531221445 12.967353883043513 -0.06725491649291644 0.4902024149657106 0.1706708562874222
Ni 6.925555914134136 8.11208080827115 3.723948359958105 -0.986414783570927 -2.8215404362696823 -0.6268190098819011
Ni 8.646405563875254 4.628689129123036 4.961768924034057 -0.19991972585021053 -0.47104743930381454 -0.6165528520692026
Ni 8.09176597329968 0.28187331668097204 1.2045843174911472 -0.4362203043223003 -0.6638457236178955 0.9024664655827296
Ni 1.3056622448618052 0.4327818927296628 10.792748056264259 -0.7035175882862207 -0.3016238251599322 0.98117796065202
Ni 4.595280192208255 6.484540867595625 12.544192359850316 -0.14696219981657271 -2.1634118176412227 -0.8423203922204525
Ni 5.941761876606382 1.5222083278692256 9.159484664652354 0.3321425625740796 0.3045566825360109 -1.25433350316893
Ni 4.318036304757821 8.292703507251487 3.4377160357171643 1.4698233155432558 -0.6251565345778137 1.7934434424686212
Ni 3.7021675548777644 3.1749591590254593 10.464908748674466 1.5031255292398111 0.1145606435574156 -0.0040931962327671444
Ni 9.046696055674134 0.9527856859692464 12.906430252784373 -0.7291692274160538 -0.5038485449942355 -1.2056581494504137
Ni 3.1142898200214524 7.518035561629945 7.846852182625653 -1.7205799215396755 0.865266973714297 1.6938610174875923
Ni 1.050744750072682 3.2913068967275447 6.038038633264493 -0.38446656878877655 -0.15909343586246794 0.4868815781225938
Ni 1.3753361510717554 3.505499836777037 3.614848871875219 0.5050842171735495 -0.27705924844669055 0.08871385769764077
Ni 3.4674035909057377 2.9380033562498777 7.602254358324607 -0.2627186634543024 0.676013726438997 0.005821748888099652
Ni 8.069079018410944 6.112004178828761 12.579008438300018 0.3173949719512599 1.37318943166759 2.858612658531632
Ni 9.236940073038905 4.118246876845971 11.920080967681741 -0.6740280634675359 -2.0947903598180826 0.6477953550232521
Ni 0.5446254491328426 6.497710877376288 3.2209488711334546 -0.28484429170874814 -2.5118950263568545 0.17590253700000674
Ni 8.379703377337151 5.777003915632723 10.556607313892252 -0.6238427008623966 0.7536047347505989 -4.176918036566832
Ni 0.01254946321030648 6.918857047487775 7.907790045604295 1.7586245350172227 -0.16201575171558552 0.6742828597908194
Ni 8.22309602039922 2.6889402534165683 0.9286080909244998 -0.2355493021283621 0.13827161402111024 0.7568193850331547
Ni 5.940490420330727 2.9861099481720417 10.844200286117736 1.6534656443896816 0.9070288881424314 1.1286214709803852
Ni 2.8884829808570234 1.3932409122072826 4.097698625274641 0.18485640375918486 -0.6844623714269825 -2.2966659238430833
P 7.908951435515789 5.6455600067771545 8.32882614935162 -0.9734749355808072 -2.069445710405707 0.6706468057001289
P 2.898502815387557 5.875693592670677 13.696078610107437 -0.5758448328268793 0.31526172765834093 -1.2324526439354389
P 9.18955460557159 8.148298335167974 14.06288520600215 -0.8016913058451807 0.2475524972368253 -0.47099061792395014
P 1.8339713043557222 3.87834015689331 10.675886042964112 -1.4424963455935285 1.0405056518780598 -0.08812610351497081
P 4.6598682733155865 0.0809898670632784 8.335311525205428 -0.5791985797904606 -1.3699393001614084 0.2091394446762656
P 6.585355964079449 7.720927722393579 10.771194974695977 -0.46833955345434825 -0.5781747665116366 0.07555212350470214
P 3.9083332411272274 5.757761278863858 7.150665350042888 2.1511592255261145 -1.8818364264917333 2.591519263048401
P 5.13062970361662 0.14752783074260262 5.1447770268031965 0.8137037569250245 0.35978166444758686 -0.9716633362933653
