# total energy = -340866.43676814955 ev
CRYSTAL
PRIMVEC
9.32048219237878 0.00000000000000 0.00000000000000

0.00000000000000 9.32048219237878 0.00000000000000

0.00000000000000 0.00000000000000 13.64146781732576

PRIMCOORD
 96 1
Ni 7.876515908527011 6.549652046888643 0.47561209564755397 -0.6323977895212592 -1.4847251723557526 -0.5421070742548019
Ni 7.591243906467686 7.812055452871694 11.989609334056215 -0.35442811344515734 -0.47898931985871057 0.632241209338737
Ni 3.416739687094967 4.039506353596026 6.576524861484567 0.403364434134544 -0.2828331748159903 0.42519927062144836
Ni 4.469655932680546 6.205577121936114 10.7884368366081 -0.8070024336454489 -0.2553992469747537 1.7755778750421096
Ni 4.832595513828326 3.0252701095965606 4.758034451493764 -0.81450696955261 0.08457438160797047 1.0312697351020885
Ni 2.823556231445552 8.910791189492777 7.51628485953849 1.971292047451405 -1.256906663212745 2.8074489911736227
Ni 4.099082876520952 4.7123799329951455 1.032535146918506 0.6584196675063178 0.18875291060011365 0.33567191588357675
Ni 6.14586079177654 0.49295285298513597 11.14499747966298 0.7487386649075493 -0.6056508604447182 0.17923648646924617
Ni 7.060917783516285 7.450252970565722 3.0829993129276625 0.9055114230566406 0.14221620049115508 0.9390951725493568
Ni 6.729593278363709 2.983421144025078 3.6034485207752556 -0.3093505043802285 -0.49279254429038993 -1.6606287377970237
Ni 1.163401242887218 2.2202227705606488 2.0788646076556745 -0.5388356025923816 -0.38219937002115467 -1.545403721182732
Ni 3.9110328254362674 2.6184963001452872 13.37400014455956 1.290987406946538 -0.8987928733858843 0.5716444215922865
Ni 6.012372844134051 0.9471008099212049 13.542321530738864 -0.6416720157343336 0.8105893796657588 0.7486751586594654
Ni 3.797947413570165 2.8114862068542226 9.073458771102892 0.21721090883049043 0.6057909855670083 -0.6549563915480656
Ni 1.9590628562370531 4.5741478598569145 2.4428592674009364 0.6609498901273392 -0.484848606852965 0.429537492985486
Ni 4.384103225557909 7.241026783672928 6.44005529155114 0.21349437921085165 0.3318702827492994 -1.655554151487594
Ni 4.422923034378672 0.4783616379289765 2.595248221119686 -1.8667731044007077 -0.1748257589960602 -1.1174394862216368
Ni 0.23168202492205253 1.4687775252890127 9.048876931058743 -0.1616452557500442 0.6589595991701878 -0.7513763596407124
Ni 6.435578663897691 0.5745480833189863 3.3141808279496736 2.6606264022587083 -0.007135068382884487 0.08260234548326419
Ni 2.350737484346277 2.671790817993336 11.607825601774264 0.00039080768051545596 -1.6549921083365369 -0.8377800811479379
Ni 2.368259991088902 0.9242003848857634 9.664421155817855 0.17566368151632328 -0.3239165751198615 0.361595577727874
Ni 6.436324302482483 1.2645843988435688 5.661345771426563 1.271307154908791 0.951296085490923 0.7225200975306524
Ni 8.174957752090235 3.394538298232768 10.62892703440458 -0.3282200875912218 -0.1769806005555339 0.29943658770062626
Ni 3.4570787345322445 2.64725930855366 2.6004863321778537 0.5440374585082952 0.8379598012589117 -0.37237235662840384
P 7.815792966277967 5.150256191914579 9.407142290328105 -0.6552183869602006 -0.11169077820878828 -0.9858314002636313
P 9.613611478553628 1.6349430839100354 11.240051486452336 0.260412383918629 1.64189799415674 1.2015073605068338
P 3.4665390240768 4.828457219682727 12.489828435050155 0.6123002474404358 -1.9782790202921994 0.031014703213959483
P 0.3478786137832018 8.214318148884972 13.360139655316498 0.37559626288234027 -1.319157955843483 -0.35966056548869024
P 2.445331059309524 9.021192302453626 5.601595887530673 -1.0437730097754216 -0.036440245104904984 -2.511932307352693
P 2.2734893269617675 6.566195902988729 2.988572574597763 1.26785776290761 2.0942756249651935 -0.28458820983388405
P 5.896137109247201 5.03090741593622 5.9023221813080555 -1.6707845952841032 2.1268540731218466 -2.640687497242936
P 9.380599420805952 4.438963584434022 1.4177711858480464 -0.6996624762061886 -0.42224404464786636 -0.7060817494689711
Ni 0.4436008991541782 0.5497052697701601 5.8178814077249905 0.5794274079718149 1.839043756806239 -1.1485562622310994
Ni 7.9329887108427375 1.8485778589354152 1.4905072977463298 -0.11382093717791365 0.04841721496112306 0.938429771051216
Ni 8.944438130631541 3.192339755001644 13.109996551083212 -0.09194470593011263 0.1891552882448549 -0.2956555233916392
Ni 6.578247286615438 4.151519909996489 7.452770432837629 1.5878431212938655 -2.0839845274518307 3.4595180338715648
Ni 8.356213171570998 0.5796454550942745 13.201380151938928 -1.095837591681145 1.0821966038589428 -2.5585147830979227
Ni 5.4248935236583 6.267996391965562 13.217900706833236 0.7061198017957581 1.5983728171805958 1.8011971182721105
Ni 6.040968083860847 8.262020377347078 1.29114404523388 -1.167568284557228 0.18920568186681608 -1.5130708133779813
Ni 3.3561845135275004 9.339216479349965 12.940555774978488 1.3845660489356477 0.5340672346694609 -0.9610431375753578
Ni 0.9202764618332926 8.222464250423831 8.661185877088773 0.11962186013040689 -0.42796114963730164 -0.2723980955255954
Ni 1.6787213893196689 4.7008132144485515 11.028267759213703 -0.1008702905545166 1.1315730974095415 -1.1891292985574553
Ni 7.802418074163251 3.8515215458875107 5.379554037461757 -0.5019667545904903 1.6718932549672494 1.2494242387927708
Ni 8.759547723049915 6.369598969625859 7.874619190376945 0.6637701331849536 -0.046880209491306356 -0.4268046674353553
Ni 1.981534539086239 1.494213121512749 4.206387725258449 0.21046896212096652 -0.7360669829771517 0.5703789246163016
Ni 9.189706622616745 9.035340794600065 10.536479034469075 -2.574940275643798 0.26104281841377625 0.2869297134828671
Ni 0.6187420822396417 6.772076036732265 1.5921639342040241 0.7091040812350626 -0.7152094228018522 -0.14612736262010317
Ni 4.386321500347667 0.38632746740803037 5.117624251299363 -0.37934621684307573 0.18183561465499007 -0.01968565135438545
Ni 0.9705977458244808 3.4234317933934797 5.62323152311666 -0.8037882975835254 0.02470084518078972 0.8025860497453081
Ni 4.327015271409729 7.45450311049904 8.80638594280189 -0.5426842869145105 -1.9600640399460696 -2.8840658084974136
Ni 5.5494804106948274 5.293707735146359 3.8074971797448955 -0.5011748548168142 -0.3495964963844689 0.5774450874344635
Ni 8.493653003712888 8.620038743835227 1.3821809241476664 -0.47404380292797715 1.2257274093964632 3.0977345085026005
Ni 0.3421586337896118 5.580797231256116 3.890519375920393 0.7931580715631888 1.080982014725551 1.8880682663340578
Ni 1.2035632011606074 1.2830575947818048 13.36095892571154 0.8822385685716291 -0.1672183789624475 -0.1844314004066243
Ni -0.17521761104040462 6.628149148902681 10.468653884699881 0.4968037223323122 -0.7720673123311605 0.024260672319577573
Ni 6.371052964866204 7.701169674830729 9.86205825500651 0.7757455325136963 -0.09814826363766323 -0.15231960747374412
P 5.498898153198962 2.3814857554866604 1.8945269046750257 1.311292179942161 0.033774268236967636 -1.2109898460759725
P 2.2912168843152108 6.778684258689989 10.483399819762386 -0.2262259678449072 -0.010719186189717022 -0.9426204120937961
P 7.960279083046146 8.7509728793248 8.77245938719383 -0.1236842031252386 0.10194295479340507 -0.7403255011431894
P 8.222939595021638 2.165753871941552 6.578174586853421 1.047000258463468 -0.1357601604531662 0.9951714467176345
P 5.762397508582344 6.1060530118309275 1.8234414501938268 0.07489134999225167 0.11182139024938162 -0.8217489958270042
P 3.6943875346247874 5.0867371049725625 8.52054259517697 0.16461205168785198 0.509105936738433 -0.19538481409433447
P 9.215561640544427 0.8365580256292454 3.2282394567147135 -0.09555144944476447 0.16773054271217563 -0.34169163971509536
P 8.142820729085676 5.391004249979479 12.067529498215269 -0.23470700873272482 -0.6528992519087207 0.8095781647924252
Ni 4.708670381035803 7.717788094789293 3.6908765089386457 -0.7874553647514567 -0.957486787682667 -0.029766432629155185
Ni 5.702895549515898 4.376646839709984 12.291304025945598 -0.5014877580715428 -2.590389520319332 -2.901797935669854
Ni 7.800954758440595 6.723777297402327 5.244366965894173 -1.0364607923847247 -1.804030731066164 -0.42252558044402716
Ni 1.6119308130868748 8.384575399240045 11.635149527713988 0.8650864822723746 0.22470670298690332 1.064531839589328
Ni 1.8970350464646217 8.721203258826957 2.6576441899433587 0.17067059917710606 1.3907834906002694 -0.1086494202793032
Ni 2.3411653490140028 6.406983424170897 7.29710812573164 -0.9691480260706794 -0.1943689712353104 0.25881341486262527
Ni 2.921393334252646 5.898532473200847 4.898855754617688 -0.08486568759614416 -0.7968995408834921 -0.12423956140807636
Ni 3.157490471644902 6.843228598686096 12.807892690020426 -0.6513074819415686 1.037115652359904 -0.9023047431938847
Ni 3.4720940315335045 7.8020172934239245 1.1813590161537157 0.7075696468684072 -0.4391302788802437 1.6637557134617798
Ni 2.0586988121299594 1.61243411913161 7.08045351443785 0.6119264090407848 2.23217751435171 0.4388279171484765
Ni 4.7836443407366955 0.5726420446866104 9.09970524928759 -0.19537915766737962 1.338696797207359 -0.04947882345641801
Ni -0.045178241852581465 3.6418572963261515 8.035506559865867 -1.3891575249610721 0.4769717752080495 -0.3908981833467332
Ni -0.3239370908737435 3.377006471007833 3.614634031595375 1.4831130906736263 -1.8535514635041113 -1.9342038843498561
Ni 0.9891548261035056 5.690070565857465 12.88023361346877 -1.8553615201296563 1.6983229099136878 0.9594526531597862
Ni 5.996667831441858 8.906923189334165 7.440970702233285 0.18236988989190528 0.7018178319862945 -0.3191302094748117
Ni 5.531929942505273 4.7430256788301195 9.597945611887138 1.7551481464328484 -1.7442811218113572 -0.7026817226484866
Ni 7.2160106091531375 1.6440398746445046 8.690938720718458 -0.8999159312467341 0.08915120234537549 -0.3664850446096914
Ni 7.743764278987006 5.227262016759031 2.6991688027304566 -0.5076401508261839 -0.6994711861309889 -0.7589060923588543
Ni 1.9157505749429151 3.7577668143321556 0.13333415968437531 -0.31833393882576144 0.005874456502906012 0.36322874245592285
Ni 6.907744977235272 3.922264006619705 0.4569841797029737 -0.18781497216687654 0.15609732934862147 1.612168328302791
Ni 3.9470285281171282 8.452819970713184 10.640822765976715 -0.6760618060681132 1.0408447803850331 3.058839631209616
Ni 9.389733493469661 8.10523122392982 3.964592977030148 -0.41629348349138623 -0.28018673833207874 0.6082322480186492
Ni 6.4824793308811435 6.718203648981002 7.321620994206695 -0.04994702134208818 -1.6334105255110192 0.5132837222652065
Ni 8.273987876632997 8.60558267577256 6.548313625628941 -1.6409749681218384 -1.360546546092599 1.343533042253738
P 6.373951634864585 8.43830797975666 4.998165493629747 -0.3455912318798177 -0.21556900235169327 0.9183129456966831
P 1.6600804246998548 3.4433217026428213 9.244195094248692 0.7426551777176307 -1.1815478866657716 0.18104757153605594
P 0.5078945181761481 6.662802702130915 5.896156682260051 0.8075099694094867 0.05651721836043815 0.3236592076934168
P 5.423886911568831 8.283056705920536 12.624633366843035 -0.4925999686636098 1.384884094396699 -0.5585176544023414
P 2.9298842936369716 0.9682023818708346 1.110955820977602 -0.8531758468777177 0.04186167323079242 0.6582348051890212
P 4.626342560792394 1.6290432186078643 7.0913258570523565 -0.5788951896174288 0.128827694999391 -0.07289437416688091
P 2.6885583656688583 3.5418671621054685 4.472723303408737 0.7331906898706212 0.9713841144900497 -0.3955994454771445
P 5.488953198574292 2.3833591724309517 10.52064073887985 0.18622783018541475 1.3025833393142534 -0.37187587660795957
