# total energy = -381175.4220491437 ev
CRYSTAL
PRIMVEC
9.11390185929025 0.00000000000000 0.00000000000000
0.00000000000000 9.11390185929025 0.00000000000000
0.00000000000000 0.00000000000000 13.33911661839182
PRIMCOORD
 96 1
Ni 6.494119686250301 5.417458036746625 10.920467356254573 0.7025994473473254 0.39180938230709295 -0.781513545345725
Ni 5.223040288196569 3.409446784564801 3.6756866345328554 0.008099746288998953 0.04501076038273538 -1.2044188777266742
Ni 6.446618031204225 6.3533099068063486 8.685045120405213 0.09494466909870099 0.18095064094687544 -0.6736405982211302
Ni 4.474178336897465 3.1732873667685766 7.105253268230372 -1.7301302842322719 0.09551648244177098 1.0975221784724196
Ni 4.235831582721528 6.701962211830839 9.75524227951668 -0.5374793456748034 0.08730103651051416 1.0112156446646907
Ni 4.266135305482119 0.4220483772457216 10.728784689569315 0.78273121980291 0.4499132284283607 -0.4500237858642959
Ni 4.372758840091491 7.582310421255373 12.164140340860673 1.497836255816414 0.7733366659618874 0.21912715201659677
Ni 2.3981409233066002 5.068869529033211 6.60838522733629 -0.9801454056224473 -0.6085202115727132 -0.5785555468898229
Ni 5.466089815588886 1.04694121644434 3.4820964282464564 0.0009299680134371081 -0.5089133611116526 -0.3837392037044488
Ni 6.458329394737265 7.090597203096145 6.316085087184286 -0.4524138833630273 -1.2022822909996456 -0.8945677795609432
Ni 6.982998481017486 8.796910971204628 2.224097301743402 -0.25850745358643223 -0.3157551223549917 -0.9924193378937941
Ni 5.215448408178652 5.240019486844083 12.79079854279575 0.7808494293991649 -0.5959768276900639 0.814066796691398
Ni 2.229962097411504 8.218907332865767 10.897684425079559 0.2597778356584236 -1.892497505750005 -1.5847580546106383
Ni 3.984506632692634 6.69064274606583 7.003663341464813 1.4652896893389602 -0.7039197088206458 0.4774024349875649
Ni 5.183075829758916 6.783823275841556 3.0092644799949326 0.9754729398474427 -0.5441770694099531 1.0711429171479425
Ni 1.1094443534946066 5.026371405955726 13.307702584927993 2.4726088271627225 0.0520938924817619 1.6886681604327434
Ni 0.562489955065755 8.21614582068638 1.6492078835751554 -0.34649317486879677 -1.3252751244848142 1.226644521894094
Ni 6.207660645622284 0.36220285389680484 6.18497432180404 -0.48092381787726207 0.6809587291490983 -0.7151960530654135
Ni 1.03899389426472 2.6295064288706236 13.231776493627562 -1.0885680546029253 -1.4982967403926002 -0.24182819315853837
Ni 0.3066536237537055 3.736690534772861 11.170789777109432 -0.8992135058630707 0.12380221676034162 0.39480934547568136
Ni 8.346666005244105 2.8889883208155265 9.288973251794452 -0.14165132912662054 -0.8158889375018014 0.4009828212762449
Ni 5.508077560177772 1.520399289734556 8.400921972752698 0.06612028866784096 -0.4561018737375758 0.47126469752094324
Ni 7.577908406791203 2.930164928163602 3.065395177058972 0.24417895277890206 -0.21716077231884534 0.8065157238170175
Ni 6.03521651378675 3.1728590133942163 5.746864515800126 3.262087907212427 -1.8521887788286293 -2.1155643591406403
P 0.9515824641904844 0.19920254688067637 12.179293113631127 -1.8762468482190977 -0.43002214593138843 1.771715049652594
Ni 8.213183802672187 1.50969045537555 11.739249337711485 0.4854908684226542 -0.39123525497117784 1.08277124541549
P 2.956941571011908 9.24304556755161 9.079523033974827 0.9080907537480425 0.3042702616438437 -1.1266286089200725
Ni 9.18881785313792 4.790576544222787 3.1529533409486796 -1.0397435769010543 -0.1393144534633278 -1.4594275741312284
P 4.599266636112237 1.6427260767699423 5.370101292735706 -1.3549199439344408 -0.20265769360666386 -0.05309687982497953
P 5.709531240749236 5.007113731912679 6.900458431338899 -0.027884899335726174 1.2118701917983967 0.695304456347809
P 6.1473904144596405 8.140646259979992 4.285364726430261 0.8068689933913782 0.9386930520149318 0.5051230408312849
Ni 3.2893255617122907 4.788808447315852 2.7248478647114727 0.26317246316226933 0.7516710080629958 1.6275692362388936
Ni 2.019522109880058 6.634947693497416 8.485185461220466 1.0071224484319234 0.508310694530647 0.8737824673844757
Ni 3.5338971106688244 3.9048146772584644 0.628404425478214 -0.12348571396118734 -0.7328567035699701 -0.6134654713931306
Ni 3.93043385460584 6.378272883239811 1.2657860440148285 -1.0597822407194846 0.03725271370387133 -2.332786323714725
Ni 2.910387761730374 1.0684864797845017 12.80299020894217 0.3155810586709726 -0.49329493784810524 0.2856608740727725
Ni 8.30507015842325 5.155980200355236 9.25716026693186 0.1671247908073767 -0.44342093583579767 1.960326292468521
Ni 6.910451824423709 3.286163037863291 12.122241912507292 -0.43128944267958624 0.7753323562356776 -0.36185037405115744
Ni 6.62047481778499 8.768922179445898 10.351994124800148 0.22271589780911963 -0.9945029598957001 -0.20352826913707528
Ni 3.6794461189354855 0.15055071745493512 6.726542404397851 -0.3379064616410503 0.0857141516393685 0.05734819890216575
Ni 2.981968344756445 3.1562079152036593 5.22988027133396 -0.9676295325436239 -0.2152157327773326 -0.33954888234047975
Ni 6.107289247498256 7.209041468057543 0.6692046286909479 -0.19106304679052902 -0.021888829653291336 0.23130466791939522
Ni 8.697086407175528 5.925867922604321 12.130085336208877 -1.3027412050483564 0.7939718257137358 -2.564211576372384
Ni 8.32660630786183 6.26875112792732 1.0861309932475107 0.5501924223660977 1.8162316440077302 0.26791537716389346
Ni 1.5806421791924539 3.420392580364943 1.9367460101504952 -1.3428812676023518 1.3538400806067008 -1.612305625211604
Ni 7.9954709216782 6.909339928430688 3.3533607456185144 -0.6343047767359851 0.8530148958198212 1.020724355486074
Ni 1.0812368280979054 8.468892539362088 4.304786450701786 -1.0249201387349767 -1.1288168748206429 0.21454441774192082
Ni 8.069184157674488 1.2595594264539156 7.515765268853431 -0.6773694691359431 1.5343999138730606 0.8297261004952098
Ni 2.2310739934045243 7.766137816166991 -0.17870264805198507 -0.819453514924608 0.6709419683430445 2.021102800325945
Ni 3.085812139383266 5.785668774566372 12.483211655520035 -0.30179351796857706 -0.5746886077352489 -1.4788342607926144
Ni 3.049456785972138 0.5253708567020446 4.264168525520695 -0.06433697151517308 1.218896759627875 0.6279826911726991
Ni 1.5738249808090186 5.721424882313919 10.640066326008201 0.8668836833821135 -0.12467999137960464 1.0999539278423636
Ni 4.673426453286051 2.500198393223324 12.043061246951881 0.4376125566841367 0.4714112504011365 0.33071045811324334
Ni 8.85606019247267 0.7027656598769937 9.792405124607987 -1.2669110827236245 -1.2326866143231157 -0.1382667289251038
Ni 6.070131870747901 0.4678858338629002 12.671160356727095 -0.7657868786390877 -0.19203775199897252 -5.013651164507494e-05
Ni 2.6614871095223274 2.0609721342755982 7.7354467525891595 -0.747182633274339 -0.7027179752030607 0.9258493632830442
P 7.025988754780405 7.24261708148612 12.101606216545028 -1.0490591978750254 0.5811521039724056 -0.7156524238765417
Ni 0.20126957975950407 7.276028644686219 9.829141439105246 -2.0162225894155084 1.1307631999137364 -0.5243793179577357
P 8.19686991884017 2.133017526282358 5.459273528595609 0.21428010833694067 1.2356698653211557 0.07133782831303842
Ni 8.188986393971625 8.616838503744848 13.365127456016696 0.09010611005947708 0.4342017312303748 -0.9578768240322342
P 4.4697398668269654 4.52249112918435 10.680630479169958 -0.11168177934772378 0.8578709383605418 0.29323971486129496
P 1.474346745040039 6.1481104126846295 2.032481166539693 0.26714841709088183 -0.17775681659992612 -1.0083918020626503
P 8.970002190052494 1.2106177749578626 2.024251313411027 0.41279986851583106 0.09240261940313764 0.45433295476261115
Ni 8.161507980701494 0.5486614321951849 4.0151010889136955 -0.39787538599551475 0.157619936640735 0.7370810260639629
Ni 8.213037980246874 4.189213976128918 0.44236873221324485 -1.1542489417405024 -2.6637695758733804 0.8092588337797935
Ni 3.5358201439026544 2.746820570035837 9.910883111005237 0.7113597100384588 -0.7130651227653397 -1.1474116071036948
Ni 2.504810027423883 3.644795065120216 11.794766669199046 0.5581936954040192 -0.08003149943229443 -0.5689499054792588
Ni 1.3665384032249903 4.225004267641954 8.869951601264157 0.5122200568873824 -0.00862733665769482 0.7528598861647744
Ni 4.296047130474679 8.855349308149263 1.244182451704541 0.7365480363786283 -0.12417039873303776 -0.20699051665406287
Ni 7.652970500221649 3.7560666895364756 7.165600056166307 0.40088511935611604 0.9685325039738675 -0.082641940471948
Ni 0.9269931577218902 0.9817130228210155 6.146958415524648 1.4390572380049924 0.6342659530782495 -2.044390567209292
Ni 7.037663662707119 4.87708569804039 4.604062371124755 0.5376940327887707 1.422276676112544 -0.2847687012758064
Ni 2.0160588272788478 0.800432052011445 1.8140665151238804 0.27620075710113723 1.5418759105351316 -0.24018011603215414
Ni 3.710469839921065 4.700157526626446 8.526897054591412 -0.043207131515093325 0.9930106916208897 1.06436831742827
Ni 1.806803646953079 5.945736228053371 4.163604824073284 -0.1732005646878114 -0.0020167733197126556 1.5281575325077748
Ni 1.038984780363138 0.049452029984652514 8.183747723342215 1.221630099398638 -1.4150109956890662 -0.39356775975909636
Ni 0.10521179125429912 5.906273034202736 7.413173724303994 -0.13279027919156486 0.4996759016737846 -1.9119013641979135
Ni 7.279072687814651 1.8010072055468425 0.9706596829822048 0.291236311278021 -0.6058992290100984 -1.3998607703111892
Ni 0.942213373364052 2.3690311216532685 3.7274955194666477 -1.0213262507361311 -1.2604509289205776 1.5927495574565471
Ni 5.838492948136414 3.5241999193854356 1.3902427498499594 -0.642698657226635 0.6902206140669984 -0.8022302090677861
Ni 0.7060721833709914 3.0705372403316114 7.1272232393842625 0.5912606531613173 -0.985557320666638 0.5533091136182083
Ni 2.761949646662177 7.907576454820111 2.75113964799561 -0.03627569450258269 -1.3019482768334156 -1.40631269658412
Ni 3.253754003837227 2.466950880251703 2.940315080355623 1.958362226763614 -1.064245932917793 -0.5489786045636545
Ni 3.3972432703463253 7.388321026079677 4.832321859029587 3.152480751005545 -0.06727831353168413 -0.6254388417049228
Ni 2.005787460195784 7.608111876634391 6.408818124392329 -3.389376282749156 0.36617137002401456 0.7267891572196515
Ni 8.38549122598399 8.456205988359757 6.351073355358094 1.458271091929282 -2.1185936328852675 -1.2453456978480228
Ni 5.202515781833607 8.239450067031894 8.162631724766571 0.5618053240146775 1.0865075725294706 0.9545675571533432
Ni 4.541411588868858 5.133186332498322 4.923654089564456 -0.6732891284189825 1.2700609412065158 1.241332720033888
P 6.894766799800858 5.189054549196796 2.340548356428787 -0.05154521906714348 -0.362003354689254 0.2054329423589559
Ni 0.23781085676290728 4.238866511948378 5.37327657604692 0.24312557181372324 0.2800319579217693 -0.6078661229284821
P 7.701401773229103 8.363089255895106 8.350073693045664 -0.5847629612521155 -0.9711434592341534 1.1817988263343129
Ni 1.7346488881273336 1.4060380526819538 10.738135552592583 0.43367336953073055 2.385400093255698 -1.6198705820430552
P 6.278676166750263 1.8211307002401915 10.408565934700762 0.026865714042592442 0.5086318253154917 0.8922460734063021
P 4.3643375950296 1.8418101429300509 0.9143266573030421 0.42944441905104747 0.3440405995632462 0.37179282997585
P 8.944109595657654 6.411483940605103 5.246074763055252 0.35485517368024694 0.38075261027229906 0.4706242357234669
Ni 6.141621314758151 3.841545972475299 8.870019044135864 -0.7731667160429265 0.4109080508097569 1.2331756381443923
