# total energy = -340888.73581789515 ev
CRYSTAL
PRIMVEC
9.09540323856520 0.00000000000000 0.00000000000000
0.00000000000000 9.09540323856520 0.00000000000000
0.00000000000000 0.00000000000000 13.31204201709299
PRIMCOORD
 96 1
Ni 6.863700448970369 2.2080819235498104 11.38504353791689 -1.0297864656883426 -0.21463800589699167 1.0614899674392106
Ni 4.817880517339332 0.6320586641602337 6.084028849179724 -0.030348273274554187 -0.09317677856500083 -1.6776669242262332
Ni 2.9030434862476584 1.926879344841699 4.665577991852793 0.008032383386173262 -0.017782006573769372 0.6822725628645153
Ni 3.5409495850830366 4.533057968183705 4.80961370543042 -0.3601562741781862 0.576900270674587 -1.3296961363706454
Ni 3.9928364990124314 2.846779322457887 2.5538354878435006 -0.9281044778658081 0.6843397298061892 -0.5964152007790631
Ni 5.720126317471531 4.521434042977865 2.7070702921513217 -0.8031640337359651 0.793612385491788 0.3573360311205717
Ni 5.363986712338602 2.8112435824115503 0.3347099258078283 1.3115816861581218 -0.39369425803463165 0.5600330626056033
Ni 6.01706394360226 7.993795193023936 12.047983824339555 -1.4189846356248337 -0.4251887290984871 0.6402370830600199
Ni 2.310514353650103 6.712234700572201 0.18491773158640037 0.006092486050983056 -0.07535337723033475 -0.8303753040434344
Ni 0.9928633015608287 -0.20448376280925157 13.192100041865208 0.20355680838216555 0.09944949894759002 -0.2108669688903336
Ni 8.210283978430361 0.18904613506913195 6.955262053244354 0.8123233316377301 0.013302630646177089 0.6259726027212058
Ni 9.087481038330258 2.8373655802137203 1.0856618806611011 -0.717652485025706 -1.275373354558365 0.6056716863803245
Ni 7.369977873643837 0.8022163755400318 4.954875479350574 -1.821611677372721 0.6987121964777773 -1.8910427755813497
Ni 0.7458248761063774 7.7030242502183714 1.789644264187707 0.15875173625233305 -1.7329039903226673 1.164661138212762
Ni 8.074735185517499 4.270155340582128 3.8084954159847557 -0.9041621081175977 -0.180845739937895 -0.9693693980528661
Ni 8.363978100596473 4.268763743902556 12.389583518021738 -1.1519943413783709 0.05063119189330635 0.15263379628005325
Ni 8.625852947643855 7.678111941033086 8.80614202857513 0.1348682447665161 -0.08595275001273583 0.9662550207936004
Ni 7.229171937719255 0.7491346933070075 0.634135144695831 -1.5308142534043314 0.7122513686147928 -0.3945064695232819
Ni 2.2669473726360376 6.41196815689426 9.098926693634661 -1.6273362942924814 1.840279428985553 -0.909209440733518
Ni 0.08435804499149306 5.217668962114537 1.2061177616126404 0.14504004309319538 0.9388221213936282 0.2473396098950708
Ni 6.464157580079793 2.194802634973498 7.0542773403870305 1.0353837572704618 1.4954096486527924 -0.8384341697921689
Ni 3.857578758999871 4.5051987483828535 0.13457376569684878 -0.6035052748566252 0.10059184008214934 0.2520616979610885
Ni 6.2131972167937635 6.048352130384803 4.781739023444239 0.908361490910926 -0.8779085737377075 0.5958379881193544
Ni 5.292578702329953 3.028105279346488 9.460788216879482 1.8143524247071463 -0.3642319869094566 -0.21004113055492862
P 0.511059787641567 6.170539776093144 12.299048784761633 -0.16818202842729746 -1.343859058134589 1.1174867945198044
P 4.286836309930728 6.3110546591174215 12.283793065084202 0.1371711818680799 1.2425478233879117 0.4796845461535223
P 2.63730309286813 8.625743802806243 1.3308166481264054 0.988416130271672 -0.2737785208128898 0.18705855361682625
P 6.640490160647577 8.10428615030136 5.819878332268099 -0.8839910324863615 -1.3450371376030898 -1.2253083195811734
P 5.160622593655202 0.8351708401768085 12.73746722572952 0.3575887705613261 1.482716112345524 -0.18803942947285682
P 4.046290183233655 6.471770432503337 7.98468250862352 2.132454964248392 -0.2638322082334553 -0.7533411966765672
P 4.9173751322271935 1.320397863835881 3.697219525416827 0.37746596910122737 -0.41561085560206484 1.1506612243892442
P 0.22162314047582868 6.128073338858348 3.313633631785349 1.0465094348699784 -0.6929896921717033 0.2686530266608664
Ni 0.7436774514263315 0.3687067236438143 4.770689927716497 0.1605479089208074 -0.3893979446521229 0.1895952039957509
Ni 1.8427286750416716 6.669122489714859 4.711450657561444 0.9953177424875117 0.33857314869077176 -0.8220948092021971
Ni 5.949621529360236 5.646762795788974 9.151389888454544 0.749306107375245 0.6480817759154193 -0.9547205377914396
Ni 8.956479946984626 2.6252516837149695 10.46342452910829 0.5774962523873731 0.2679403168645579 -0.6416717586240174
Ni 2.573316931817201 5.415375740048302 6.7573124280469 -1.0835839711247726 0.4267007948676393 0.7478002122536799
Ni 0.8190892578947693 0.7167968970027472 9.286467539485042 0.3386939905393522 -0.5666819353806887 -0.6245019317129503
Ni 1.6938460211336896 1.376680218431922 11.688478920046874 -0.2343563102615254 0.3642556410585404 -1.9332885716244383
Ni 4.526609327361372 6.94163895842956 1.1834765745900282 -0.10394892947984033 0.5585976157106572 1.1754631139242724
Ni 6.014517230724611 8.189792035168422 7.819466329766674 -1.7121137930501933 -0.6982830793601588 0.7878808823246496
Ni 5.275797683546873 3.0941924785214776 5.0943316574500015 0.8411307427877256 -1.4285116012786625 -1.3830136168468634
Ni 0.9745451596480256 7.827258361631967 6.8362123216174036 0.5433923687251286 -0.9422709991741773 0.30408977020192146
Ni 5.270986215288744 4.683796084331116 6.786558696825757 0.018026004263775406 1.2192759973441647 1.342145674987908
Ni 1.1281756139921957 7.598399827962675 10.878361367803937 -0.22865694588390295 1.332890474938227 -0.14106768870900865
Ni 5.170381961218478 0.5601249398504135 10.538331540702764 -0.6598803112122442 0.7023513358922613 -1.0122438288188889
Ni 8.532761496562653 7.3873319028243865 4.9767735719371 -0.3154684443525083 0.5843675255859098 -0.946453412686641
Ni 7.644704525320212 6.41677962515239 7.001215668040903 -1.133145326992668 -0.6228088602812435 0.027387133763701218
Ni 2.565713174796792 5.491868080409114 2.1903768118082696 -0.04589470564958548 -0.4243230386640821 1.4460830345035223
Ni 2.464172094203677 5.560501992461752 11.295174588166228 1.1451778326771698 -0.14385116499141676 0.8452211108070153
Ni 1.1764994908455837 3.3367759755206703 3.4786096919994454 0.5666744791815209 0.32387543746928094 -0.010892221432471563
Ni 1.436400635412789 1.080470224551951 2.4715402802829027 -0.09300888552856885 0.3710101861735546 -1.0553589148408082
Ni 1.2581853063961723 3.5727834960536478 8.27180983293342 -0.23946303536047145 -0.2098146163664193 -0.41677916487855315
Ni 3.540349288476162 3.023575768585527 7.006180848612004 -0.18407581683941845 -0.1555954500115385 -0.37872478120899294
Ni 4.355861324318148 7.257185779373394 5.495024185296772 -0.7708362681375369 0.1529047905532528 0.7189272379730715
Ni 8.126260644274216 7.666988262999641 -0.40031324953606406 0.7366719635510023 -0.24535266137202905 1.5286977212819608
P 0.441398095034735 5.731095373651692 7.972622004067226 0.5126460886812074 0.9791352191903782 -0.06861580139618505
P 8.548323731325716 2.187626361900409 7.946263525783559 1.0883322844430352 -1.0678776161331092 0.9189991731304301
P 2.0931251233333654 3.426665844698542 10.480890431747392 -0.2021455298569357 0.37339308458343434 0.2955886747094457
P 4.409551489020868 6.184273834826179 3.487555020982187 -0.6242268236746927 0.30612171303028574 -0.3328904964836976
P 7.250537039682103 4.193280993289669 10.441739268955109 -0.8886303310305856 0.23569482656729085 -0.4076597190757882
P 6.690032821520982 8.031641165466425 9.953812729645728 -0.007165150289871532 -0.5663582334926827 -0.5023323654600251
P 2.637721481412315 8.666127392723245 5.541204275631368 -0.6248143207470465 0.4694101608107077 0.7889394054961509
P 7.123628879746978 4.035630370760067 1.2071373563040133 0.6143617579551548 0.12044178492854096 -0.6309980809602552
Ni 3.088198607855868 1.5404338564647464 0.43769444687838277 -0.8304141277011698 1.3522740216711615 0.5751650331510353
Ni 1.6214829937959228 1.2405402243153192 6.9813804128852714 -0.19823076818356183 0.7965593839352539 -0.35640477755555394
Ni 7.0367313982003425 0.9082323944753019 8.894373805761589 0.20992903045709654 0.44238323859990264 2.1586239093342763
Ni 3.051216698711152 2.0000245768490292 9.198022020324922 -0.733986189188723 -1.8190891680611831 0.21936780727249314
Ni 6.621489863499689 2.284546977701219 2.7194773315670386 0.8487309237324866 -0.6006408088246366 -0.5114561821381644
Ni 4.469590245111441 7.39023333642428 10.03014408137106 -0.7473993772708355 -0.33062766859144993 0.23703359998337242
Ni 7.713784112126438 6.374467809770881 10.97888012508474 -0.5881943555311677 -0.4725055119065798 -0.22207337912911435
Ni 7.863967408682648 4.262415152514702 8.220451729594375 -0.29668010800141165 -0.3781138870978714 0.04128703167424502
Ni 3.303723280530041 8.785095265721989 12.324594134005078 1.323948692363907 -1.6036770030023284 -0.722535009928988
Ni 0.4930354272500069 5.086958923669208 10.219242060238058 -0.9773328758743169 -0.4947252425367286 -0.8593786332543198
Ni 8.82779818343828 2.6023767448318016 5.77439131165235 0.1602925983768917 0.18139029958745534 -0.2483793640134948
Ni 3.97162601890287 2.4375771354385143 11.588212105432898 0.011055486483213217 0.8756588584715822 0.01314939289776445
Ni 1.5726770605764087 3.597941381123565 12.605798531793816 0.1463757311854834 0.16184811578946964 0.2061363961838837
Ni 3.2628576342469104 8.61309209704621 7.612744188246032 0.5959796559035413 -0.4108432590100924 1.8261424753635387
Ni 5.682935214054723 8.260072215188398 3.4164153253660055 0.20445309494418978 -0.4896678826184793 1.066113068033519
Ni 3.214151750461875 8.929048211131093 3.507390276137818 0.4636714585547176 -0.8634522891030613 -0.38643166293494735
Ni 3.4930531921769683 4.512384116859076 9.108964380533852 -0.11604956939811627 -0.8203420881771485 -1.4656905243218048
Ni 4.76153449492135 4.774195296084518 10.90937760203276 1.1092011574722447 -0.3251982700457625 2.2472986862638655
Ni 8.080938250455201 8.802358340871194 2.5552061650958637 -0.36219567320571816 0.9119690057565261 1.5112736122682424
Ni 4.790366922857589 0.39365541444163904 1.6244280853308612 0.4238730956108571 -0.025565507173930167 -0.8021985844989022
Ni 6.287925048946489 5.806050590882779 13.326818424471893 0.6436137128417367 -0.6522883577975992 -0.19529919635906365
Ni 8.2966812128046 0.0819286628142787 10.995387372233473 -0.009969966728518314 0.24827472011483043 -0.095168612184049
Ni 0.19271431115325985 5.1514635226988 5.689193760951545 -0.05757599864225568 -0.3858968734773999 0.5313248960376333
Ni 7.300243417811928 6.507006024246237 2.776785647636647 -0.03877043589997839 -0.6881688737442921 -1.2688872326133889
P 8.687528876298632 1.6960198224828256 3.4631411398886685 -0.3942832977688822 0.9907856589451131 -0.6589575422876586
P 2.1254228998638345 3.4433741002565457 1.3891918549836857 0.3320952542759119 0.010666221464594533 0.5927500932226502
P 4.76954754508281 1.4397750299756735 8.07661520534539 0.34998010497613274 -0.8709509114729516 0.07668855110199051
P 8.744011329763632 1.381318874030497 12.695241816677788 0.837468720555106 1.7871085013895285 -1.3551739689267759
P 6.6118123545646235 7.812714812019965 1.151977374454765 -0.5014556192820268 -0.31138681808396695 0.7045483435435802
P 1.7019500253264939 3.554510831156517 5.75636695126079 1.4784575941794862 -0.5605056313666475 -0.11458738303029298
P 7.142520032057252 4.111031262744744 5.835373261047966 -0.23620827586859966 0.9890509356421936 -0.0748152453386776
P 2.785503591541027 8.947848409410023 10.171504836886841 -0.3848967143476597 0.3843722093027574 -0.6140102881530072
