# total energy = -381166.2560218379 ev
CRYSTAL
PRIMVEC
9.28056962389185 0.00000000000000 0.00000000000000
0.00000000000000 9.28056962389185 0.00000000000000
0.00000000000000 0.00000000000000 13.58305173891797
PRIMCOORD
 96 1
Ni 3.381700371239022 2.907778801586891 3.851718533297144 0.4047749413288254 0.5937173422319258 0.5950995672914332
Ni 4.157602396672117 7.460956198941506 0.716618674577715 0.5439197019835084 -1.9357200638840666 -0.4964589373983837
Ni 3.82848555523998 8.456770602757027 11.747234621842107 0.4797485666222382 -2.348987101844303 1.027805944923204
Ni 3.1601917348771167 1.213861387698668 2.1197572802502838 -1.523939380661369 0.7849590806921642 0.7418337102575998
Ni 1.0459573216244433 2.9414208665614137 3.3385782043689205 -0.5385173000210145 0.6665132431477295 0.8348024865768526
Ni 5.96183794196783 6.041567315815037 2.002970591798037 -0.38460180881506023 -0.19040407305029144 -0.29675235600024374
Ni 8.59727842722993 1.6647485834841056 0.2631115739806064 0.6153508613413016 -0.384019453949029 -0.5602518634846286
Ni 7.963007175197163 6.3015439133685005 12.062198594560826 0.3166784055002095 -0.38623857308753484 0.2281344977215297
Ni 8.850211072420452 6.69880797772696 4.382856670944014 -0.6145749024072255 -0.47526147738516217 -0.11902125043193051
Ni 2.052917689587385 1.4897356010594023 7.59648499779818 -1.1136052000772112 -2.196428124666243 2.008144183282748
Ni 5.936353497714026 5.56677337261598 6.5110360681499895 -1.3309212670269983 -0.5759733879849435 -1.0145045998286075
Ni 0.507169210416608 0.3817358152231855 11.76047799473001 -0.0002553105439156893 0.374462149277897 0.31679153403930604
Ni 5.287771607283822 1.324049591131084 2.243037583285337 1.7054163264253597 0.46518480987545047 -0.016542734850029574
Ni 0.3496751593167066 1.0365097017226323 2.3005483453379214 1.0426589507756365 -0.9320143544431755 0.14939163519367177
Ni 1.2458700724151173 2.377858274677857 10.332342174710165 -0.037363785360438884 -0.871473359635325 -2.7576876034797797
Ni 1.5695392194637943 5.795140349947864 3.398303310339552 1.5397154125487031 1.2235198602221833 0.15663494701964636
Ni 2.5298276026662183 3.3405688865584473 11.766440760728942 0.8919629949482445 0.09872341941484288 1.8059744850560961
Ni -0.0672906263477991 2.9306090029213254 11.929016851768168 -0.3847090238168858 0.7800675569278178 1.0125752440163789
Ni 6.989930167019597 3.61134806718235 12.487442648351477 0.26037227470931285 0.23703565686590147 0.17940283684378136
Ni 8.075951707815078 6.424724914308318 6.566006738289877 1.5963367605871734 -0.42808379125809504 0.32262999509795404
Ni 4.615728436783107 8.14500842656692 5.512505241598457 -0.6634343471120896 -0.36137266308379057 -0.2101231487457736
Ni 2.708292957000031 8.56101924161463 7.811586328875007 0.5509483266955156 -0.2774181744480061 0.6568404959446558
Ni 6.410293628505453 7.021511945532231 4.17746745600397 1.4620894372341078 -0.6692864350174925 2.430253245014647
Ni 8.101204137827677 6.345747266602611 0.7591673022435617 0.2325763355429672 0.5668074052149593 0.2775870959257025
P 3.9594436735449428 4.194539063871732 10.531958875329062 0.6409420795468446 1.8827787358003447 -0.21219134412871196
Ni 5.5713486934525145 2.950014674055595 10.654097668297393 0.5413689105371966 -1.2257346084853147 0.7830726623027289
P 3.991071854905818 4.278648866592863 5.870744510586471 0.44920283262489735 0.03460704855090814 0.4910123124615156
Ni 3.3013399186557413 6.134289487169645 4.991255550911685 1.0737122205370153 -0.7519363459092405 -0.6302748296409856
P 0.8608656405618554 8.5004078412426 4.063125269597045 0.30688044557318117 0.42942667843923465 0.1487869117301373
P 3.5484350855375806 5.597120835365412 2.4805236483534876 0.5107280457228881 1.034406223848541 -0.17582720367738108
P 5.198288354736415 -0.17002189206793125 7.337985866932701 -1.5396004842373936 0.8876728522133228 0.8455432700331246
Ni 3.8199752728726315 2.0863277403207037 6.207346131439836 1.100010235001596 0.010861368194536133 -0.2451284611763649
Ni 6.182520607631051 7.797126273306234 11.250176592057153 -0.3860755651471093 0.7610077120828894 -0.13709533432482196
Ni 7.815975110261615 2.549929316524099 2.6386710515566185 0.4585081691862232 -2.1045417827778916 1.3315802407672357
Ni 3.0550428807636427 8.046847841398497 3.525901862431887 0.09803076422319246 0.24153765850131304 -0.5869627971169118
Ni 7.833088480692792 8.935722241158452 12.701688310906745 -1.63960611279877 -0.6209836341470466 -1.5091493668363882
Ni 0.5699179259786054 5.356791203757069 7.739242432353794 0.45551026290016394 -0.13405089107154333 -0.06676152179626567
Ni 0.4233925801458455 8.620665462743252 0.30763139463971895 0.09788986776995398 0.09607286916587325 -0.32787658820887405
Ni 0.34053472627024933 0.47504823080741615 9.349635647465682 -1.9757176873229265 0.35866786255811783 -1.1546142954997212
Ni 2.4296252921752055 8.605872234724112 1.2767298226091264 -1.1505300981280184 0.21906673109230657 -0.07391664478380819
Ni 5.625760673299585 5.735837509896223 12.60135050409887 -0.5895817227969975 -0.08177085072090433 0.44811679864957016
Ni 0.18051171994122864 9.155699583528413 6.3176401333662415 -0.5011694555001756 0.617445281976485 -1.1543931806278507
Ni 7.553047291560041 4.719884269944229 3.7050085041283864 0.365532450888435 0.0874730433120042 0.30835985833218504
Ni 3.4537454334175655 2.328021615667323 9.183949637537365 -1.1165465420937222 0.6510251748144594 1.7155477584324068
Ni 6.58939006157534 6.583079274214603 8.419237194929037 0.03275174050972424 1.6174190351787692 -0.5946390827152469
Ni 2.145899716892141 1.8357523598208105 -0.05606856152926315 -0.12453575249225649 -0.7521422912724595 0.4097469406221201
Ni 7.263623446513016 4.149463337090695 1.3724041431688097 -0.46532467788742443 1.780856864052862 -1.9774192433950657
Ni 1.3148525466097731 4.704497085467607 5.440066683266832 0.8440710563629722 0.23581978218092936 0.21504963951311348
Ni 2.3182770175367713 -0.0032333504654134372 5.539833735041348 1.055899874945943 1.4049001325073094 -0.3058736015752216
Ni 6.588276393217563 8.922061242636383 8.935244291821572 0.8177072216574627 -0.7176010629624803 1.534040730761429
Ni 5.564369705077111 8.182733942186625 2.6540470993496634 -0.9561328447579339 2.3775654277026277 -1.1940066812544146
Ni 6.132600423493684 0.8022644115756137 5.456284478726965 -1.4973279487214275 1.8928631166195402 0.08999863794733533
Ni 3.25399045231091 5.074504116769468 13.39900154450239 0.14532646398536261 0.6729916517832216 1.0591566913203434
Ni 4.9037230741043185 3.946571523442967 2.0703419591017753 -0.20029047892606797 -1.3598582617763226 -0.6307111458474557
Ni 4.415787844283489 0.22735261106934204 9.582720866406683 -0.254174116318401 -1.4745567164631832 0.7499041459705601
Ni 4.43333740148813 6.942701348080191 9.499415689074047 -0.008758462918920401 0.13592933904117882 0.0009333104475467797
P 1.8770137724764595 7.7585005424306575 12.437022241510075 -0.4014397063080054 -0.4742685173442736 0.39143400124554517
Ni 8.955359926533925 8.039673961060483 2.4093750892029546 -0.15917468272236457 -1.60641111410404 -0.537252574375978
P 6.315835990626643 7.4323813249948705 13.860145625862955 0.020813080090609316 0.849765278534272 -0.3939979053179795
Ni 7.287817891585728 0.08692367143844815 1.353774327657125 -0.3875498356997906 -0.08521792872924033 0.8109148813259777
P 6.601668255219835 2.234195056524585 0.6089937644821165 -2.1568400779609758 -0.3224957835129349 0.13456614014506502
P 4.006579686787867 0.8133593325899702 4.369640211708092 0.7777013706884864 0.04363007798512486 -1.189548645483061
P 0.5546912953568951 3.3358172348985975 0.45085100156380975 0.8017046755816193 1.6230844609946626 0.3285849271298083
Ni 1.3209684420079 7.104916424960103 9.347937303220071 0.905922285341814 0.30641584723193677 -0.39239996470324034
Ni 0.004675550988735045 2.911296137483537 8.271589828225816 1.0737212193980799 0.01041888134047883 -1.1393257447717668
Ni 5.942246659440598 2.645732637001891 4.151904126908157 -0.19748180583267924 0.41185447388342616 -0.5169442018359292
Ni 4.988241221889967 4.201907836172358 8.606017939667586 -1.0651681876217463 1.2513052578655675 -0.7030403915394859
Ni 7.829663950492628 1.0667086753576938 7.665268867802365 -0.07759152253223411 1.3487636945250578 -0.9932996836162182
Ni 2.203105148203302 9.31889840079103 10.295124306250212 1.243162059933143 -0.5544367994647483 -0.34926790940045654
Ni 4.676488326269508 3.280551442643899 13.322705053368031 0.31965522874034624 -1.1592430525209843 -0.4179811556064544
Ni 5.411760017783028 0.1150205960482047 13.28273085572258 0.1298741339860344 1.1301713319660085 0.001044639214430459
Ni 3.2507422529340593 6.097918934718568 11.433710065475816 0.1700332227034233 0.8663285822095919 -0.765393756965727
Ni 2.1020211835957157 4.805441841530471 9.74721153896432 -0.9322326411015686 0.06957070911028664 -1.2353340792482919
Ni 7.235976629531195 4.349468893577851 8.278979017779669 1.805813791108516 -0.15538667643484205 0.1294660999143383
Ni 8.459183550865545 4.060035767961177 5.855585628123192 -0.1857298075030737 -0.385307062412201 0.14121578425109874
Ni 6.899212598708986 8.304309404577314 6.3210767283069496 1.2944982483132736 -1.8303665407472156 0.812541361185807
Ni 2.3971897012549412 3.8731158146779054 1.6337830347961075 -0.17197929068620058 -0.609487460581989 0.17817513508426733
Ni 5.442116761102107 1.8436501245913812 8.488592748023548 2.882387649464042 0.14230798887401297 -2.300840109825431
Ni 0.9806035501622119 5.2039773439307275 11.941037045576444 -0.7315295001181144 0.5739517295692245 0.14770447729923591
Ni 8.423954508481188 7.440074917233182 10.057719910194965 -0.774433241460176 0.19691359203403505 0.003981353245251207
Ni 5.364206378905936 4.9499867138003175 4.129668810088169 -1.695643820419628 0.05478609460194436 0.9541525811031115
Ni 1.2485057541951903 2.371538206747471 5.789938590660079 -1.0347273546333857 0.310725016130252 -1.703794988771853
Ni 1.4049204750450124 7.152702078078397 5.743919029945827 0.02276403316939305 -0.7876970484486177 1.347990306694143
Ni 7.690139866402427 0.264473961604954 3.8209256032046017 0.7381426345592578 0.19676035428562244 0.36181335016563493
Ni 2.5017631600502304 3.646010994818169 7.543483664537629 0.0814854582700016 2.4589043330924363 -0.673942188621949
Ni 3.5233125835000543 6.462153451699284 7.304992513776584 -0.10392604666170488 -1.2096544150940005 0.20869258694683415
Ni 6.548639080250339 5.601575508796521 10.340478450120692 -0.1190490183460724 -1.784227837407624 0.9980433689487908
Ni 6.391890258893184 3.1369067856299226 6.489601664490635 -0.88111679626236 -0.7474382009285708 -0.2297401516457527
P 3.5590427766454096 1.1793840714558124 11.558566209237124 -0.23342479958619156 2.556455843686365 0.3600135779527348
Ni 1.271735020024495 6.357245892396662 0.7188311623818326 0.735873636019423 0.298032508264248 -0.44970599751356105
P 6.693007621696871 0.8881672203527661 11.141742416288237 -0.11920662696985922 -0.910847233447257 -0.14342744719043685
Ni 9.34980269771935 4.963824043145699 2.1689823497210057 -1.2015803798366145 -2.1064577688536814 -1.2542586840669365
P 8.840939783341955 8.29382236087491 8.08108757505836 -1.1983011948647107 -2.168362990998911 0.32297272314935344
P 8.389477192238333 1.7980268442011043 5.514012406109315 -0.8532727774668981 0.1856400760027448 -0.05880524306366646
P 9.073650067269172 4.62807159441514 9.642472886029294 -0.15920759284282904 0.1746663506000605 1.0215558502484343
Ni 7.7425565237751455 2.3348149926497643 9.935390865548847 0.19772554641236914 -0.12867368592003 0.36686788187040686
