# total energy = -340864.6617148851 ev
CRYSTAL
PRIMVEC
9.35155043240061 0.00000000000000 0.00000000000000

0.00000000000000 9.35155043240061 0.00000000000000

0.00000000000000 0.00000000000000 13.68693932702324

PRIMCOORD
 96 1
Ni 8.404032523926904 7.796097590226553 5.125443513108394 -0.927720355053512 0.10672700644560974 -0.2652604560395496
Ni 2.031699115905042 8.337907711728668 3.3920616573599656 -0.7481141439496729 0.13688039010053846 1.1089234783308255
Ni 1.028165549702638 2.3812787693620483 3.0990373746753077 0.8323802502886051 -0.24265326016299502 1.3013772348212942
Ni 7.7917397677849785 0.16824000089571498 9.231827081044967 -0.7823972335022591 -0.6645838873355007 0.6116204477645918
Ni 7.38078588968407 7.814781987733565 11.99873760059527 0.5874788175213819 1.17950977318982 0.14103580702980872
Ni 1.4959487989997964 5.149823939905454 11.240563465179006 0.3065904251365881 1.5563555922085455 1.3719632725699726
Ni 1.2265399862973487 0.4646458041702302 1.482924894891681 0.14665752409196034 -0.11202013652374902 -0.8070379148690746
Ni 3.0404227925260603 2.842366308641679 7.888426381531094 0.7706609189019373 0.8848068435194375 -0.0772711630783379
Ni 0.39774294298671636 7.6325763816141405 10.612879927547072 0.4034449096634922 -0.4043854191998907 -0.01917554448718633
Ni 2.7188697353295708 8.550590020288206 13.139475242545105 0.069059573801823 -1.4964712571480874 1.589026342968689
Ni 0.8551843128028916 2.309524323880918 7.90400232371712 -0.6146551208258575 -0.9715193545163333 1.1767586928072442
Ni 5.932735731340386 4.109052500393282 10.91118690099835 -1.3865170020144313 0.5378652682593124 -0.7275805427726953
Ni 1.7573433330918793 2.101807688532702 5.7679501931268975 0.09693598849711693 0.6560228851393669 -0.817507961162463
Ni 4.691261319207853 4.008682310982495 6.2813746188368285 -1.342425668122172 -0.33284190263394936 -0.5434157657638964
Ni 8.861800262848682 4.179787626891297 7.454988571034738 0.4032374216383765 -0.4237106018910638 2.926426789962128
Ni 1.6379427388128396 4.350144818775794 2.129920319056014 -0.17624500794109002 0.5094628058572194 -1.3602380137132446
Ni 6.254569335045988 4.348667273827792 7.916949545112744 -0.4906225332222648 -0.8845170801931606 4.448579253926403
Ni 8.949424289195377 2.5099280468915555 1.0607949790226903 0.07354871992142817 0.9171834600779301 0.5896141186968297
Ni 5.392160014478374 6.6006795633402815 8.886422894798613 1.4364725079969518 -0.6569412831885783 0.5126044368099946
Ni 2.078718710832596 4.502518979426066 6.117158590036843 -0.4792870536047874 -0.273545064645845 -0.011056514924477732
Ni 0.21775365428929508 5.815813297891856 13.535698558607452 -0.3988369785778357 0.2741101931206956 -0.2139558922283025
Ni 6.046422528383797 6.0138417271253255 6.3996979145208694 -0.24651222889776903 2.730773552697755 -0.8247355892591538
Ni 3.6358360003696104 1.2668451681067678 13.664478757841215 0.056453455002038265 0.727040096888193 -0.6475259034119493
Ni 1.804961427238877 6.872370154316859 1.4724960459928724 -0.1974506954844277 -0.01179519286271517 0.7742357807373892
P 9.299752066676689 5.344523217230769 9.795865837619239 0.2656957438047553 0.5864727448543705 -1.3721980142885981
P 4.504192906930449 7.605877705496765 5.581642997044223 0.1450546983812147 -0.6190064558160179 -0.7557109824603242
P 2.743445609527982 1.1273387406745379 3.6785566876225033 -0.06370422302718061 0.15755180240696093 0.15417928639030223
P 4.99618731996417 8.606166283743747 0.2816743060809241 0.5201742787374525 -0.7745666817142467 -0.8176671124481466
P 9.233318653318426 8.500400249807662 13.6695295301603 1.0324750682640993 -1.4118063727088395 -0.06912076605706159
P 4.152555912406604 4.804302859280302 9.029903731109963 0.9383266698144486 -0.7451460624602845 0.15310456526888472
P 5.271132250446472 9.318707659142511 9.692063629246952 -0.5548173227326187 -1.4073033426321635 -0.2616791664461945
P 7.719442932386227 0.9811366032247801 11.879551156818186 0.1106523096419449 -1.6914804330705582 -0.7589516008848091
Ni 5.3334229270201465 6.311408057792543 13.435387283963578 0.000981390076662826 -0.028461083554170336 0.40122244809087676
Ni 5.307229234619177 7.220771512435586 2.374916909690367 -0.012534899242217122 -0.18180064765199658 -0.49744624101231744
Ni 1.036030203508142 5.848627887907924 3.8843263301974664 0.09496600925493967 -0.5416126511168866 -0.035117412528423396
Ni 7.4440584790396445 3.0827105029998867 12.249673360827572 1.768393955699161 -0.27472237278339784 1.2322672673975101
Ni 8.771324013659326 0.028724221913181226 6.998830233920244 -0.935192495060841 -0.3379784525295663 1.2952256133976017
Ni 3.049325468415287 6.1880798123859035 13.374370288541282 -1.0843535023009452 -0.48857490666461656 0.18103343046866888
Ni 3.506569520520052 8.679117727663764 1.7597709955507481 -0.9725573088625443 0.33685153801397477 -1.1994206531811342
Ni 4.962446926468024 1.4478724788879116 7.669955463333497 1.03236476793848 -0.443887591059571 0.10161102537528309
Ni 1.802567430361102 9.076128444261691 7.050853843415367 0.8498287847823557 0.9428775224099246 -1.0780057057060466
Ni 5.667983990689235 2.4636004666864832 3.5062786873056035 -1.2334957404879723 -0.0334186846697618 1.9982438934499003
Ni 5.520921510611527 4.697704537367178 2.1286335457342096 -0.13922755017647634 0.01156173669567041 1.0724423526856561
Ni 7.04698230158959 4.005989064494997 5.988459749290726 1.3186995281498257 -1.3051865812650554 -2.8555232209730304
Ni 4.440920317574873 8.880727800663593 3.8418824488335663 0.9783446049682829 -0.20704862358550793 0.17173709276840743
Ni 7.4407573817824 6.491238370134799 3.2223712310121293 -0.44576038260225165 -0.5604521524208929 0.277735962798741
Ni 3.6370610534594094 0.6849645887078601 5.633859248475605 0.5671843289384039 0.4610844145538317 1.5053968417724912
Ni 2.064289268713818 5.034126559546724 8.861540289750236 -1.5439029682674896 -0.259532809527153 -0.42764876060320545
Ni 2.758828909777749 3.880201361358456 13.06920675840725 0.2634110615356367 -0.8473450991285537 -0.11022550651717147
Ni 5.103692742256763 7.43788645583913 11.183118761972766 -0.1441830944095388 0.24566762150928656 -0.8576613934528972
Ni 7.835215125147388 0.5346449636593353 0.6340341754432529 -1.320223678103836 1.342426182342804 -0.396942075547968
Ni 2.173936196025984 0.31728313932776986 11.395348455497599 0.27118839148821033 0.5305101134458218 -1.0731010693155776
Ni 5.425769486270266 3.168567086339162 13.662275532589636 0.2234736019107506 0.500198606946474 -0.03914813095437128
Ni 8.939296560216352 8.192304073498352 2.346379718783262 0.2566783707974934 -0.5136837859171024 -0.38016459897931304
Ni 5.569895579552577 0.2707956476125025 12.105673513474361 -0.25420934043171056 0.5868859211323892 0.5749135792618616
Ni 2.2080880577354964 3.131104775822101 10.308920877092168 0.7121022446314381 -1.8634262994156618 0.2890570442385151
P 7.201862677721282 1.8923890710291922 7.97892413928615 0.775892856724838 0.6547159934024854 0.31572786866148206
P 1.3500552627100644 8.966434759198007 9.091740857493901 -1.6626714792586657 -1.104047638295763 0.30927208573380927
P 5.618523641132387 2.15598121944267 5.620774559290513 -0.6120475079996814 -0.544854812203268 1.0121594966351988
P 7.576859844904043 7.52292010275167 8.087270265951057 -0.2803960261294074 -0.07019471584753072 -0.36504856927348095
P 9.138316253782026 6.022211364647235 2.051631010222582 0.837382588599203 -1.0599457628805422 -1.5729672326232975
P 6.2999991664218955 4.935935281356724 4.238666857914142 -0.8003270785078023 0.42380881803182496 0.13062309633691696
P 0.3044013787842723 3.368288146177621 11.633433315302408 0.08245065039674832 -0.31120889774520594 -0.6306743790722492
P 1.8163609670592207 2.530080637796265 0.7666232611157551 -0.29782090647407417 -0.6626175076377492 0.3365864572780461
Ni 6.252315611422771 1.754163805988584 10.337567481137828 0.09445230284331475 0.8526279447940478 -0.22943007660450163
Ni 0.3861535666952053 1.4275702631783413 12.732466783517374 0.21849003265323014 -0.18243596724315034 0.12269047175340161
Ni 5.491192932195717 0.6485459112047046 1.934854460958791 1.3026797556828016 0.33074311112339166 -0.3982985895758624
Ni 0.3810429444541733 1.2090993449807441 10.225717328574083 -0.5054277165558974 0.8846569482051346 -0.048992370738302725
Ni 3.5909485589113244 3.425388712332681 4.174078505430821 -1.1952593227145931 -0.7198471786841796 0.2649709498235888
Ni 3.8411960450412663 5.825445394704779 4.195566497718914 0.549145212048506 0.5410243827135843 0.5070559961879397
Ni 8.018786057611168 3.2444923232557907 3.476879283460487 0.5963959175053535 1.5178219549097214 1.0606916399076314
Ni 3.110325631047036 7.309470967067218 9.24057265088909 -1.5731176421582327 0.05462591487499624 1.0370804282465946
Ni 6.288730548305805 8.743559260807315 6.493111485660653 -0.06763312576794159 -1.5196420388375955 1.3516348454252658
Ni 7.210531564852914 0.6803701720435986 5.047907004074418 0.22327588407764776 2.0619951676649326 -0.22138380926125745
Ni 4.3583554799425395 8.08043147721388 7.547429580942925 -0.5448625255127519 3.012941583125921 0.4021570440900042
Ni 3.823624482020409 2.8521480302594635 1.7851323999746793 -0.7565273077140325 0.31216457679025594 0.49573825718227527
Ni 8.61498479568024 2.2594841782052337 6.019064567970004 0.5094607489746903 0.007961420938921772 0.31508766397432186
Ni 7.09183233684666 7.654309384520193 0.5886436205786225 0.218155789242263 -0.51812562373854 1.3546435503446024
Ni 8.969053193283074 5.67423082629218 5.906721588705249 0.012670653489133018 0.9482696399597734 -0.9185222334940116
Ni 7.893026409125538 3.6860912317022825 9.833463745615704 1.2173582114961614 -0.978428680041657 -0.937767969097501
Ni 8.512762999309297 0.9839046621147078 3.078712715245008 -1.0349330428862886 -0.43141362696227636 -0.6009064037811973
Ni 4.059405119830357 5.21184342152032 11.490377039374852 -0.8325651126059016 0.10087466142989078 -0.9160264636553516
Ni 3.1353223250091187 0.6013851078675628 9.256189739896453 1.5211885573891093 1.234274784745842 -0.9436866485747811
Ni 3.449132298554054 5.978539624728445 7.1530270117247285 1.2118128561979 0.3150331565873026 -0.5566242940343704
Ni 0.4326148740696219 0.3059911423359199 4.959900499320297 1.151366735096701 0.013846933185421314 -0.9356460376584919
Ni 7.408803134394283 6.2509689881790225 10.338634493027492 0.060689090349940654 -0.5678980671759768 -0.5658599537000254
Ni 1.2285599211629716 6.860970614496515 7.530937186827127 -0.816562052309426 -0.3166264692163515 -0.549011771794435
Ni 7.522695665544378 4.587187915876757 1.062600763386356 1.1812738070687785 0.923197527482494 -1.0354688607851006
P 0.4110960216655259 3.832284017601736 4.889632015182443 0.061999324520931924 -0.33849627270624927 -0.31109525498547713
P 3.5452101263753923 5.343036320732463 2.085697772824329 -1.1362442776329658 0.9123695836290546 -0.7469669177191071
P 1.2579144375666296 7.441281068599413 5.22880806892646 -0.6280752508865054 0.9924818157006132 2.2815766336101286
P 6.935698852974257 5.19208359572837 12.58811064209759 0.6377780799965662 0.806057039013044 -0.26998845764283824
P 4.241049632931553 2.5607724258933677 11.831058692717784 0.0793964369514568 0.10678434204610641 -0.43195921505310125
P 6.7340326706726055 2.670073345844293 1.850008780207358 1.1172309697552565 -1.0125348776967464 -3.6835894172673145
P 6.871135749676757 8.676069122264723 3.5709633607570535 -0.28741385220813725 -1.284110734431363 -2.096080539384416
P 2.849398674470144 7.215600105117579 11.381784966936955 -0.666632028113781 -0.293249742163624 1.008456593862315
