# total energy = -340869.0579139523 ev
CRYSTAL
PRIMVEC
9.27227009155803 0.00000000000000 0.00000000000000

0.00000000000000 9.27227009155803 0.00000000000000

0.00000000000000 0.00000000000000 13.57090453441769

PRIMCOORD
 96 1
Ni 4.1898513874550884 1.7420926383041035 4.166661440103034 0.40791168718559423 -0.6182459235009093 -0.6375708490817664
Ni 7.207094417481099 7.899000479599292 0.8873460426427257 2.313220999988287 0.4862894530645497 -1.082390979257936
Ni 3.4789742608497685 2.7265666367675 6.286911557744185 -1.1707381976447773 -0.9026338443985292 -1.1300216937620218
Ni 8.1208302678642 6.183278177268496 2.278853223779341 -0.054243077614280766 -0.14048507673266128 0.06386311720254807
Ni 4.676098500245593 4.358847781073054 7.172684096162344 1.1362846439525978 0.8848875761587018 -0.4989904455709858
Ni 0.4670525865955875 8.406657263895552 3.0894295066854296 0.16325913720438337 -0.1843478395538825 -1.8598208414525905
Ni 0.41546723949506137 0.0947051116610982 0.5432975358483675 -0.2873176929499052 -0.6545583847786987 0.35435355145348
Ni 3.3854912343789945 3.2364580381416657 2.382507930476106 0.31460686768316143 0.09054551158974083 -1.120375428921509
Ni 9.004811403712019 1.9674922505316423 11.49869506014121 -0.7234397811314444 -0.7911389842506311 -1.4737748439918361
Ni 0.12563369558253382 1.1594602785225563 4.338279104459275 -0.5352828522441169 -1.772586910734586 -0.27337948560225817
Ni 2.8172123486082348 5.6960852929346455 10.603734629347542 -0.05009408844291373 1.0934387524316653 0.25382007541309193
Ni 5.295031797205585 7.521665450614156 1.933636410960849 -0.5484204180673393 1.6054757467739642 0.3456681078643402
Ni 8.644880425578464 0.6393397088481966 6.54094486706004 1.1710768119311186 0.8033208710288037 0.8214728593474819
Ni 5.254298714951457 7.7670560770324295 12.932081376108009 -0.15194962572883508 1.7261252768379367 -0.13983972983917853
Ni 4.722988369801505 1.4232934500360859 10.753964875646107 -0.02379093177201064 -0.24148777909998412 0.3997630899365308
Ni 0.2829627918182165 2.5176345761182293 0.20173585187680856 0.07317333885988044 0.1841642627881667 -0.06189982282859016
Ni 4.252717378277529 5.895031118758581 0.4496587352410423 -1.2538357375969051 0.09129627371283631 1.167708666789834
Ni 1.797763347581085 0.9998381499077601 12.28017588691135 0.6913377583905771 -1.2307544302974094 -0.029425761460284805
Ni 4.970177816606143 5.581424401708937 11.81391978831158 -0.030808500740424363 -1.1418207432794787 -0.28033457676385265
Ni 7.899825711632212 5.206982320974036 5.78276618210935 -0.5324924339831731 0.19835161003214227 -1.1479988470657325
Ni 4.0204099248755485 7.342858995301478 6.1744630301483046 0.8888457894755015 -1.6555196987052327 0.8441556456569784
Ni 5.025162377900696 8.856492172267217 4.49993556911927 0.24229356283073109 -1.565662728542084 -0.90182754644715
Ni 5.454143950968576 6.784139819934544 8.48144924843419 -1.9171610699349564 4.006448754767255 -0.5119619181299893
Ni 0.39245439250063424 5.893788634574185 11.22099335433961 -0.9189040423134627 1.2644040000310546 -0.09143357062164897
P 9.218676312018745 1.5985949872763612 2.2181235639724592 0.344220062563904 0.1048398167252259 -0.260838415712454
P 5.614359504865472 2.848302270028241 2.6052612368362813 -0.5080535842145186 -0.5095409673933224 0.3239065478175325
P 7.571837703761681 6.4662678586698075 9.771282279753049 0.7736660242768483 -0.3810606284310211 0.2111392487151138
P 6.408659244955969 0.5589305831236824 8.923331330798716 -1.8788719445467705 3.34475478738504 0.3520974084294517
P 2.9369173547317913 3.8281030443951027 9.248177893582131 -0.549781302970608 1.0684237184445664 0.14989968517834185
P 0.19124613278869246 4.010062071518934 12.03587197054092 -0.15083042452272735 -0.6722172355110423 0.13970166159941746
P 2.696339036460545 4.3806005265700225 -0.013234311017827398 1.0947716123104758 0.7156763351359416 0.322311949636903
P 1.3846002671891764 6.575615739166716 6.023690356052821 -0.6276253078332803 0.33764060957417336 0.31571424181472724
Ni 1.240972804380975 7.479893874116354 9.095274451833108 -0.16687847912452553 -0.39816926308684975 0.210931760689998
Ni 7.26610314396989 2.5399065687370346 4.172645763182209 -0.40905120010667617 1.8746728188637585 -0.7265934962690777
Ni 2.2885260558775666 6.640966698357951 2.0677440341263664 -1.544972032961952 0.565403068668265 -1.2904909269260936
Ni 3.35972359595782 3.5267079069786664 11.544524182005368 0.3824814200379477 -0.07164456092017985 0.1490015988441047
Ni 7.870757145079358 7.312547944564228 11.784769625782436 -1.49944370951285 -0.04886124447707715 0.6002142628101792
Ni 5.761566063906338 5.179276778116005 2.374094272648336 0.6110008119027219 -0.43866799453184446 0.424096781585889
Ni 6.46822430764673 0.47593263960600807 6.700647664424121 -0.901759412213376 -2.2698732291302717 1.5043694289492415
Ni 8.95779172237565 7.966660234028695 5.231366536706315 -0.3444206086104842 -1.185781208020829 0.8486792445589448
Ni 2.269545719120408 8.281342534402146 5.029486037416995 -1.1748514484822024 0.6712147623884569 -1.43065821530802
Ni 6.373164995270378 0.8045010915805926 13.55930130079632 1.1260125726026284 0.5929809782865336 -0.030707456386185824
Ni 3.7520889746661394 0.3082195281605833 6.311732497395011 -0.11360085074730757 1.565260093787027 1.4960261991908688
Ni 4.471005159389904 4.089738687910857 4.4042336884296445 0.3585609046666083 0.677923027646568 0.009267541344855008
Ni 7.590372971557265 3.1766889855101828 1.5757991114007017 0.2028297004081539 0.10469069274187132 0.9656322996079371
Ni 8.949335412105727 6.372432485937787 7.595418013682116 0.6469841719758664 0.61041717148511 0.12145865622882952
Ni 4.010831669931657 6.505127942377308 3.4718717020046372 -0.0810069759716863 -0.40248614529464877 1.7661671232511713
Ni 9.291185463675307 3.3083366754359957 5.4903540199007 1.2962293720717677 0.029374082286742962 -0.4856816442772216
Ni 3.1106055169863573 6.004722073246705 8.040312656580303 -1.0019900123013645 -0.4594612771281119 -0.06186408449464829
Ni 4.909027195739772 7.579385331568387 10.662320540322838 -1.086198268819168 0.7480442099436858 -0.9506628227822982
Ni 4.408120624027398 1.1846344916616312 1.1746148766641784 1.2114642146092298 0.28795866896801375 2.2358973864054588
Ni 6.28494861817824 2.9143857385520664 9.22639640404806 -0.5789522681076092 -1.3801879744726102 -0.3919448794436927
Ni 7.3974170321745225 2.9996720783138384 6.67847303064066 -1.9751165634038177 -0.7869303454859222 1.3398594500568923
Ni 1.7938319050871743 6.2355645079835025 13.040458449932482 0.017298896289763756 1.058421870036848 0.6515625353751682
Ni 6.386785959948575 0.47571659571424363 2.478793964177798 0.0068869569278203965 0.790023125478633 -0.7945004445236962
Ni 6.723944242881553 7.126184589174812 6.487991860129674 -0.7892502518683504 0.30740469350776733 -1.3457179657201985
P 0.14990571684741633 0.4221191660165981 9.355605486955245 0.5909117544623307 -0.6789923494513468 0.002982222556775509
P 5.37947436039437 2.0323146903310056 6.203437019546825 0.011189440957916214 2.058977206774215 -1.3501957989858941
P 1.6907891682125749 1.4787508971023129 5.7041085881940345 0.7115504858930262 0.10462821493505207 0.3508478522930667
P 8.183279006535164 0.29213584856167385 12.584353632564632 0.7297271568020529 -0.9493273918003262 0.021058363332195993
P 8.392934304246994 4.446201837052142 3.584686484266814 -0.9025227727419619 -1.3800103112441653 0.2992085308502202
P 9.215876086468837 4.230111583937543 7.403756483195955 -0.6461801880173323 -0.22544512381482465 0.9349425838335639
P 2.723302797715952 7.686637679037882 11.594315344854547 1.027313578667818 0.05459120498231888 -0.13009679151980175
P 5.285620443122284 5.961912002505229 5.060468400504621 1.764007653706007 -0.142076075368865 1.545005971523681
Ni 1.751123829316059 2.19661931531237 10.408978942351432 0.19764918464847897 0.96256317376431 -2.052983451084626
Ni 1.4532336099720242 0.1312916347565535 7.510016697771939 0.1732581573986242 0.4074419466380273 0.19913733915823123
Ni 8.568894172659599 5.37541310612 -0.02032203423090612 -0.1101828262046941 0.8126701734541875 0.3417937125105985
Ni 6.761265129763606 0.06364671595920326 10.955289038733458 -0.2727734765871431 -0.3008622644035593 0.37634162568879703
Ni 7.29578368034491 0.3943691162624092 4.583464813709824 -0.23421824202176436 -2.2898668986433792 0.47211830377049013
Ni 5.120193873466949 3.668796172961422 0.6500649435951461 0.12897990430653916 -0.8918287833632254 -1.590475673820706
Ni 6.7765551030477065 5.223440600282271 8.199649199278088 2.952474378978799 -2.9688872731191838 -0.9099638024010392
Ni 2.6578034822041934 0.009835096823799844 9.923547789323814 0.2806683059541876 0.043612337373311987 0.5937289121961516
Ni 7.810311216735481 4.083656078769334 10.49554763705874 0.5193206724879056 1.5446043652098882 -1.363634440989303
Ni 1.6394022476907506 2.71702547090374 7.555954305195481 -0.8130057024167352 0.8866860628200213 0.5675126588121
Ni 1.209168918168442 4.304178476959615 1.6176244670646938 -0.650334576505338 0.6539598319627512 -0.009054396892784406
Ni 7.392206016416085 3.503453053736383 12.642546399290536 -1.773197290625075 -0.6238959226978352 1.5560959107892554
Ni 3.7421212843808704 2.0293753807306056 8.669636459339058 0.5387350724587754 -0.8885249158009729 -0.6351401281530867
Ni 3.1026777261083063 8.460167534254888 0.513085698400468 -0.030548047990186098 -0.5418515066005701 -1.0644868452840055
Ni 2.337149839929614 4.661170145492772 5.676248198426455 -0.5212186608415669 0.41838610435435686 -0.38099609374167287
Ni 0.6835137305114991 8.405943299103026 11.305906948846062 -0.641028982833696 0.7556531326391953 0.15926544266395795
Ni 4.8538108276943985 4.936306214176294 9.482222043161256 -0.7128697189250819 -1.8562894312605647 1.4849216046372749
Ni 2.7677169711731033 2.3662554955625996 0.09908255034358704 0.43469872547145133 -0.13064160827967825 0.4333357836856537
Ni 0.5750133354955885 5.922087602714317 3.8715621740388757 1.3072169814315229 0.5250745442525474 1.2577240169077177
Ni 8.97942392836219 2.493211416851812 8.86174676769481 -1.2306346168900935 0.08192794512405892 0.3559584340467547
Ni 2.284742969704181 0.936647629634171 1.9233228650033565 -1.9674657317267796 0.18082362845070793 1.919345993401417
Ni 1.4044336527893535 2.8249361495455645 3.7108820794133357 1.8740729804962306 0.9203595438130666 -1.2363334670470836
Ni 7.510446003874457 8.234981184238103 8.452651432166293 1.9065221021638714 -1.084492598981971 0.23387371419815206
Ni 0.9463649686285542 4.852225269518788 9.373328503895955 0.051937055188923456 -1.5797001804717568 -2.4349591351307485
P 0.31007583662115146 7.222681103406249 0.8690277459659094 0.30720594723339995 -0.3624281009314984 0.8660671010180889
P 7.183969376019275 7.7999633633788665 3.388600226520995 -0.17986460697154832 0.7637431087361815 0.0459479274850241
P 5.533764933740302 3.4490062841037323 11.411081380601203 1.246065606733183 -0.21685609659423297 -0.6989567083884156
P 3.1560025510669876 8.213126443770776 8.111193597619103 1.2225304997257205 -0.582536643024758 -0.044591670567445785
P 2.4593027253418316 4.861284277340842 3.423220101142492 0.29388377620319706 -0.16675480906246765 0.5279168987973489
P 6.372033778326376 6.033234303597591 -0.21681534463116484 1.8223408422292615 -1.1958406491393598 1.466408633434752
P 4.432219253842667 0.5748881598501456 12.771646069411334 -1.3008864112278047 0.0825151850860966 -1.3674980377097674
P 3.3804193026710485 8.593280242845886 2.904539515004227 0.0013878814864621259 -0.1868567220186653 -0.12020678609959942
