# total energy = -381165.09511821455 ev
CRYSTAL
PRIMVEC
9.28070308476212 0.00000000000000 0.00000000000000

0.00000000000000 9.28070308476212 0.00000000000000

0.00000000000000 0.00000000000000 13.58324707239901

PRIMCOORD
 96 1
Ni 6.719488832263728 7.657378116118646 9.882205779829194 -0.8016427119954322 1.195867388612237 -0.8290496432534754
Ni 9.228489765718194 5.954684659373744 7.7756346898954485 0.8792118659301632 1.6703341380102459 -0.48228418855989835
Ni 3.775501349161734 3.8399743929082963 9.34932173457772 1.5675486327108874 -0.5050487359499238 -2.062809436036112
Ni 8.28482788459678 4.208668881021106 2.4392119030290447 0.507376612752152 -0.11767913458173929 -1.7811677104250616
Ni 4.106098551456256 6.470339079504233 1.769978553500706 -0.41418312201660284 0.7432141355448942 0.7178954542744475
Ni 6.714310199989281 0.9037279441792697 10.249605609873393 -5.7429072952104 1.0110858039550457 -1.988765007425188
Ni 6.333365183915415 3.3542502399553906 9.967970612400192 0.39965561782438913 -2.490808895110517 -0.21471205366803664
Ni 6.296465108784232 6.057626217058625 8.131651737709165 2.7013274795224964 0.29212591297182594 0.5932817973564041
Ni 1.8753330939657957 9.49759302992941 0.6709270778259847 -0.32703840857829486 -1.4156234324620847 -0.7044670966836835
Ni 1.023021172481262 2.526411532283968 3.360264135499909 -1.0194596298410377 -0.1409807854221572 -0.17886573339338874
Ni 6.607795571649092 -0.10509282464046696 3.2232772469268904 -0.5991274575039036 -0.5437433243066442 0.06475786110267556
Ni 7.489573725161168 9.405714070221485 12.221105348333484 -0.8216793189313332 -0.5762857770190397 2.2286700154190844
Ni 6.217690501713435 0.9016184403871877 5.662176390264808 -1.1002891996945954 0.3877334124655064 0.2449489981757072
Ni 1.0191604000329286 5.562927624303946 9.598669166311133 1.7649713031708572 0.04288625784056485 -0.20512158176612413
Ni 4.08353716246131 6.892499697604656 9.11334037130606 -0.6774458308998332 -0.2702157431622959 0.6887067485256333
Ni 6.297875775640353 6.704862444334466 2.438274552025964 1.4457238513918909 0.44883079399745923 -0.22345637551957
Ni 8.88374877205045 8.48535603433508 7.814863293409532 -1.0172376824890546 -0.20875300787112436 0.5607108053989182
Ni 4.845687054293064 3.3361714305098307 0.8243751493115236 -0.6268256947501205 0.11334862552718541 -0.2897733535792493
Ni 2.8112919915965464 5.89367331784648 5.088963050123354 -0.22854150335196124 1.7316379791260499 -0.19628058643572646
Ni 8.035455394965265 7.473406740533773 3.902249766184269 -0.7339674201356456 -0.9573278935072995 0.4199732463358187
Ni 3.9011527870895746 8.15885162206391 0.19714997384600927 -0.05343497989068862 -0.8467856270806579 0.2538128763242403
Ni 6.3175787081110535 6.724157025873131 13.598324550840305 -0.6038950540958762 -0.14050358867542254 0.0008044981791663564
Ni 1.7635934298361553 3.9666188660572224 12.539293322645637 0.27832628808457227 -0.4535112301922641 -0.12946250036991255
Ni 1.4874368313443296 1.1531737513644909 8.966953058663531 -0.7389178221623854 1.2764509038932597 3.2749439372394886
P 7.106187884198091 0.646659895619491 7.658017556555401 -0.11549292556369786 -0.40557969661830795 -0.012189085867024168
Ni 2.2867002544762864 0.39734494634658124 3.087594297125484 0.21541576460328063 -0.14464949252299605 -1.1091893303977025
P 2.8693056660545517 5.1929988026920295 7.779519592171583 0.032701346887763036 0.5667073893019853 0.02329907973725665
Ni 2.9945023495353524 5.318353258123844 10.825942834644916 0.2900770008625972 1.534222250644616 1.4653912479138311
P 8.753883894960248 2.9331012184820553 9.51612380961111 0.16931408514921162 -0.5149163727726229 0.33679445952379417
P 6.538403755312106 4.843636018929888 1.041510188999457 0.275190570669068 0.9294054560654187 0.49248786856577764
P 5.236887247182817 9.492303029218954 13.007303397780912 0.7594185132188985 -1.1746989820647384 0.08602988310757441
Ni 0.6793910789627149 6.243026820905621 3.434211848939989 1.1043541137925883 -0.5003811552709253 0.3486662712607157
Ni 4.762485551890887 6.264483806243472 6.8249565973054285 -3.871368393989933 0.9440453174657806 -2.6859553679418
Ni 5.793692304418855 5.422649798446843 10.097228531514146 -1.3656131619822287 0.9662835600386908 1.530963377387686
Ni 5.312070222192303 4.048650999881301 6.981666835895748 0.662143139104492 -2.0852345978088476 3.414870827475835
Ni 8.458831785158791 2.4131312714561948 11.648734696024503 -0.6948092618789453 2.1972521632294355 0.8014293104330455
Ni 6.193440024772343 4.495563252884858 12.248502911662147 -0.04050130254815605 1.359587267503123 -0.15762507884705756
Ni 8.65272423225152 0.6175676759228811 10.326826627261855 5.94497286375902 -1.9036980024515149 -1.939431194187066
Ni 0.6083565781945864 5.897877476305844 11.742187662961365 1.3624813012214663 1.3646448845316885 0.6674884625768052
Ni 6.514264646807022 1.705681843111159 1.7102934244322567 -1.0640911525074837 -2.146998666390522 -1.0305120310004574
Ni 4.541521294144823 0.3654044788990255 3.9176260349159957 -0.7602057850068843 1.3652552644221778 -0.15037611059412812
Ni 1.6550927310537942 0.6272957088083203 11.409438265640958 1.185091638152972 0.08761316843429427 0.08142658000760815
Ni 1.2253404978987172 0.5424181114441975 7.0238559836670875 -0.4516762338660543 -1.6787529582015606 -2.5475881088830903
Ni 3.0781214835725668 1.9534858939355384 7.394569952752871 -0.17359677168496554 0.32332599272371415 -0.035809039278809296
Ni 7.768598060880241 2.8128697111066825 5.732836878702005 0.533117726271998 -0.6228849649348176 1.2548862903486064
Ni 6.6227839069953855 7.7484125318535 6.394448914926085 2.280783705395188 -0.15823211630343717 -0.7186930104750784
Ni 0.49063735712153006 4.476417162594206 5.488487105534523 -1.0854631904253564 0.3892830163408134 -0.32820131853814444
Ni 2.7757654605094815 4.443563473971372 1.59082943119505 0.20943949241518767 1.4812256438429263 0.8213299060117144
Ni 2.5864576806991484 3.795324930771444 6.027660683209641 0.6702241163404136 -0.18648982559754979 0.1837102059698836
Ni 1.6284942362534993 8.416001340810096 4.971699511567636 0.3418569616483661 -0.10149455440207683 -1.0188556777084516
Ni 4.977797861509463 7.025919083944166 11.618131577879362 0.47827840983461495 -0.9415624031429268 0.5811312780367992
Ni 4.582077966258322 8.893827615509322 10.602689027468553 0.09262579115753725 0.15818737910843078 0.0670782817057361
Ni 2.202765576537045 7.354669426341529 7.50721634156569 -0.41847737851658257 -0.07539220088807017 -0.62036245562328
Ni 3.7458309416681743 1.5544063841981075 10.042502082059023 -1.660641336202514 1.6838733101472614 1.647842384665633
Ni 9.43810372369428 7.024870364505075 5.729155223821587 -0.9858555686333473 -0.8920648106334315 0.7993598294985266
Ni 2.2087145071605585 2.3511825789258496 1.2240736819391078 -0.4702228865199902 -0.07896834827510271 0.5367908042482111
P 4.200474020271399 2.388583812019077 5.439207500670571 0.7347984006773732 -1.355550121319272 0.10931919265281817
Ni 7.110048656646424 3.052116953764324 13.748012081469918 2.526316601098823 -0.7076645205750587 0.18712771629186484
P 0.9284600896061036 4.890902639312967 0.5868272033733289 -1.011514149741716 1.8408820955665586 1.2225749798104106
Ni 1.021749716170152 3.575186655592452 8.129328777748063 0.4383998284721224 0.1900816567138662 -2.1243477617602253
P 3.462184815854702 7.692802559472701 3.7758707211411657 -1.5532833810411248 0.33358392300629647 -0.8029346913339784
P 8.847127118009292 7.425815295545668 9.801304035630615 -0.022117143614013523 -0.8817361750139137 0.07131905925996104
P 3.1574343714174096 9.130828928040769 8.707350450114232 1.287732647454666 -0.6675871929381987 -0.6715600615430176
Ni 4.237912376176629 0.9370168977728418 1.3425399996037284 -0.1370310567457898 0.5045080329551053 0.2213843234818897
Ni 5.3175922404777785 8.595870645668613 7.996769712576726 -0.7346513335765478 0.26224995134799994 0.5986631162729754
Ni 5.764912844413371 2.014534358274805 12.299929143130186 -0.07005304806334386 0.521056938452722 -1.8728486211708262
Ni 5.060702381415616 1.663677381329535 8.343291673150324 3.22397953037648 0.4638316382816657 -1.169002188790277
Ni 7.481425267926466 4.6444628518297035 4.46325155731727 -1.0894738542466464 1.6589521214255494 0.7008423554469027
Ni 3.6402351029250637 8.906013178549372 5.992167562653378 0.751019490521926 -0.23818365442741563 1.204422734381416
Ni 4.006321713494648 5.487299175550421 13.059803406586143 -0.6033975456341673 -0.3849162547316855 0.6094866892510407
Ni 7.8504167385353005 4.2235922514463935 7.964808827582569 -1.2926000028492965 -2.5095851472767556 0.5693473980279937
Ni 1.7627952893780863 3.2260094858903265 10.237706820556065 -0.9189045565340949 -0.8771274725973087 1.8431490372238644
Ni 0.09471050219347121 8.103696404130151 12.934605795035042 0.7259306658740982 0.5747233176279263 0.750159713624792
Ni 5.352636175008802 7.380488342089757 4.516008641595621 0.5045342582073504 -0.8268176685991632 0.3202069874787582
Ni 2.424871360752207 7.451606369184892 12.248040732652708 -0.19327290995765425 -0.18557297021023525 -0.7578498831801981
Ni 7.414938311628728 8.449495397939986 1.1440554606662041 -0.6435679472054658 1.4413208372281887 -1.1531932467824786
Ni 0.0655746631927575 8.636807826605146 2.3643546806948863 1.953578432221726 0.5007066569311441 -0.2715429466141517
Ni 8.931071076651534 1.6581089595290543 1.2330406971784813 0.06486996120050763 0.18772626910781215 1.1020113245920244
Ni 4.887979217867714 4.43405075339555 4.986478103026112 -0.30104661250022346 1.0844602030821389 -1.4786977352147501
Ni 4.302654560310215 2.9128043210193044 3.2262656332931483 -2.047842016093002 -3.28741944399868 0.311280888633722
Ni 7.784523747229615 6.887794381183249 11.72382300786338 -0.680594403831144 -0.14447877127308664 0.5861611271512227
Ni 8.518061231709902 0.0445872814267468 5.310111993859134 0.4987775582292313 -0.2409121091021722 2.58849024641409
Ni 8.151139357870244 4.947644857459862 10.368485846891847 -0.24654231080475605 -0.41962717585030956 0.018037060007368936
Ni 2.0614668733498545 1.4715668292129604 5.229807926933805 0.9398078823456654 0.9757467623341196 -0.9678506474154945
Ni 8.750264420789936 6.6005844654174695 1.4978785502905303 -0.5372088656222361 -1.7489875261480912 -1.32097983954357
Ni 1.590331985514207 8.080670979985166 9.917780570571864 0.2939087159038616 -0.7348102277519152 -0.022934754419302438
Ni 8.38230310821419 4.797742942590928 12.964801490318447 0.40983255835739096 0.04049230368709155 0.9786649644221792
Ni 3.2929790387441042 2.2470902140688693 12.726048909130748 0.5163790733610784 -1.1557828618865256 -0.581946831959559
P 0.4195675896819985 1.249089816877766 12.918754354309675 -0.16055896466440092 -0.7726242132758951 0.5316416559471038
Ni 1.8577647231852799 7.025909803241165 1.1610289383843686 -0.2980605332887061 -0.5818678990925077 -0.3428789751549772
P 8.43249315004252 0.8682320394121072 3.5026579616411944 0.5780631806344366 2.5464375402184145 -1.5561897560546425
Ni 6.786012911373468 2.4709129283391795 3.638394739520005 0.2002611683500293 0.5906870400460343 1.7604315063189748
P 4.439238666372998 3.652439227371117 11.513730165612456 -1.5801578368344655 0.10896823707130265 -0.7094653212292233
P 1.9395277166223341 4.440482280575106 3.6950237330902906 -0.04675885342209366 -0.05671673596575393 0.3713747686018249
P 7.634111393695638 5.633757949606056 6.42104555358578 -0.4645086097440323 0.6738856243524007 -2.036245055284022
Ni 5.255068144361384 4.733539039231389 2.841900678163487 1.4979357575087557 1.2925059004735933 -1.3641085524122443
