# total energy = -340860.37383807846 ev
CRYSTAL
PRIMVEC
9.37090478357691 0.00000000000000 0.00000000000000

0.00000000000000 9.37090478357691 0.00000000000000

0.00000000000000 0.00000000000000 13.71526637633863

PRIMCOORD
 96 1
Ni 7.322903052057172 4.566891790545996 4.698918470530324 -1.520064213976679 -0.918882702157224 0.06839468652431448
Ni 1.630115772352464 2.003508851396793 5.668698431414005 -0.6771349845276338 0.9495533917682033 0.7625886834167641
Ni 7.281071332314817 2.325315098635194 12.27829100917186 0.7264184041437941 0.8170631603155606 0.3391223363260224
Ni 6.243009335348106 1.7300189901332097 7.715043563564887 0.23152115480557547 0.32139020915358196 -0.0462690582698687
Ni 6.343221792992539 5.380558097335638 9.023576116217004 -0.7349087010029924 0.2940411277166678 -0.2847303918387032
Ni 4.831001375944414 3.5642892979487004 9.056533588962045 0.07288254709233899 -1.4547443097229462 1.1151563466144148
Ni 7.889964623914059 5.136923939275268 0.8153699373114068 -1.056144129746265 1.224991045451071 2.474689878061467
Ni 5.885537423831165 6.106250348358874 13.417138026076072 -0.04005547325998908 0.8830620929141888 -0.7670161230604984
Ni 8.944641235375213 5.899959246564921 5.615510111950377 2.1393421782865283 -0.33403720849363117 -0.9745082619413281
Ni 0.7383448469005057 8.655586300972729 0.05669866046172047 1.3613471876170233 1.570270916738057 -0.43773982629062036
Ni 8.276055279179465 2.5543400158626044 0.8101334756196443 -1.3232480667524567 -0.8489944618065185 -0.2549909557927415
Ni 1.8935037980689464 -0.04481073042920438 11.579045326127313 0.17116939319039554 -0.39611238055782105 -0.5357063129347805
Ni 6.690338854528453 9.140511890853418 5.84695553392901 1.767818285701349 -2.046148430440663 0.3523653173788577
Ni 0.19806813269137338 6.630299466448419 11.902657346751546 0.3883085682426861 1.4649955551373093 -3.5821632542093274
Ni 8.83115957630713 5.120880949983396 7.646316409496247 -0.7694293604876814 -3.1467173661592063 0.09052417143350217
Ni 3.4166600612056306 7.6330612644300375 5.287687743727525 0.605692512315931 -1.4134940448239075 -0.2602889709668872
Ni 4.739269587288967 4.691374892037358 7.085868822360275 0.2908125934770411 0.9260450242336181 -1.209755202337923
Ni 0.8559562637845508 6.689345538602671 8.345821666608192 1.3578291471614357 1.4864295566413692 0.3049778292338296
Ni 3.808860546505091 3.2433358030616786 12.595140984776808 2.0211760767660416 3.5113357898738045 -2.0801921502889336
Ni 7.1134914389114705 0.5726588133896168 3.550663065046066 0.10920580700340547 -0.4683503520876257 -0.38880967624882073
Ni 1.4023090727698801 0.33979463640001006 3.8233638961120007 0.6176262876390396 -0.14217274884772932 0.042230626534436946
Ni 7.056216467794697 6.8978106903473915 11.024852818052276 0.24824206710468216 0.8802734744254581 -0.20951019775212307
Ni 9.225674675131762 0.8699573328855932 6.851749881196496 -0.21994913369725994 -1.91994814576179 -0.9402930495121999
Ni 4.666523252082895 8.536416502593802 11.044520473382754 -1.0575415243144237 -0.6965339578795359 -0.7889445477024736
P 1.8354604127454366 5.4615414580017285 2.2857726909746168 -0.17610205460532252 -1.2871801173853057 -0.009262142028216307
P 6.249306583481364 1.936403800976765 1.979634596829679 -1.1292452206073131 0.6240198498702092 -0.4265393295891105
P 8.6908209036231 4.2511016642920465 13.003293561590025 0.6379624280932303 -1.786203987297388 -2.975724350645675
P 8.136166409933525 0.6807756293679822 8.944589695397932 1.0283368777260096 1.060910697896973 0.1348376486388968
P 6.966883630809063 3.664595464642735 7.253456212487589 -0.6230878249742431 1.608190574601966 -0.2826490838296422
P 0.291979593840564 3.6034221970625167 4.995813104022516 -1.3316172646527582 -0.3984533699861718 -0.9056836869684467
P 5.2778436080668305 1.1512437870760672 5.923980624339911 -1.5638467583792681 1.5790882579193708 -1.2310238819087123
P 4.944061344289287 6.391369502678072 10.68197046846788 -0.6553978499608584 -0.8203161200352194 0.29070357870300256
Ni 1.8002258100950659 8.639309039056853 6.740614696730449 -1.3144944889295427 -0.3057026232149961 1.3356240718193062
Ni 9.362780385604522 7.695893182188213 2.0442198109059078 -1.7833114962409415 0.31561088346764354 -0.3337083643993027
Ni 7.4745524070281695 1.9432633034076352 5.556493089601503 -0.041255664215677335 1.86710966180452 -0.14195960439565875
Ni 4.365548526571031 0.9467331572245528 9.133325343839436 -0.8852189913561916 1.164025561511292 1.4687766194462963
Ni 2.196886846155584 2.0852793680795423 12.956400616078662 -3.5370185393518896 -2.6131514966061964 0.5540968996268264
Ni 4.3575832573548565 1.4576255247499703 3.4136885472427494 0.39263702041471094 0.36879132414536486 0.18854310858215273
Ni 3.3096162138452083 6.934338477882272 8.194021440067335 0.32350802682753316 0.06981702079313781 -0.38906010169672994
Ni 3.4914023991682255 7.555891862082749 12.979606725122114 -0.21330154647375527 -0.280699159192123 0.5605907348812862
Ni 5.8776658636645935 3.6545217418105147 13.6783726178327 0.35445588135929923 -0.3741150503511234 0.44471651471876966
Ni 2.2166032301918555 7.543362962150956 2.0606638749300754 1.0431924546816036 1.3369988406796458 -0.27553432716173193
Ni 2.925493448621445 4.831985320965235 10.048586316755141 0.6259959997599736 2.096248175310532 -0.5093473633252776
Ni 8.38134676731233 8.116543734946855 7.543341409069548 0.27582820425306687 -0.49231868997776507 0.41797807028266076
Ni 0.8652962447583872 7.227291708748201 4.1465233020266545 1.9001961599458435 0.9522615347279858 0.12833301475115963
Ni 3.8482558309577932 5.925129497288031 3.2731755757264596 -0.582292645334752 1.202215442317452 3.7049087475703804
Ni 6.344636799641529 8.980794186711684 8.547587558396863 0.47588574123272237 -1.412805246286999 2.05400520748092
Ni 4.42631884523796 8.923275572065945 7.36561938522777 -0.6550111560454009 -0.5859055594969909 -1.024712650709861
Ni 9.090368178411362 5.321202785317698 3.0542937260279746 0.3263195281343993 -0.6908795878072359 0.04430807788875595
Ni 6.854582705765966 8.203440136642836 1.652648113329277 0.7195926394712123 -0.3985929808878297 1.8272714467616593
Ni 6.950887496041993 2.624256337770694 9.86329260170552 1.004777859459147 -1.1023070014555727 -0.4883890159060557
Ni 7.991816989926527 7.6808247670122025 4.0159256850487575 -0.698507536666139 0.42405718659720515 0.24795796020536007
Ni 6.972328126590942 6.818336045379893 6.033606156016869 -1.4970155596873316 -0.7191113289594195 -0.13138362865202532
Ni 2.0767893281855967 4.784287414717792 7.605787245543362 0.2738677380925864 -0.9410294134575924 -0.23555341589342016
Ni 1.5556264488237943 1.2775823277495513 8.474251793268794 -0.30357195002523846 0.35296207042259214 -0.15854039157247532
Ni 3.9043219553346997 3.85358787588015 2.901135655358384 -0.44818004778733783 -2.5772347281049295 0.0721055597169984
P 4.890815862305403 4.406321334052882 4.742972031838744 0.2782535258651079 0.5652110072621169 0.026499331842109203
P 6.023130421361856 8.367337264396822 13.475510330163683 -0.5637858447798162 -0.04181976424926346 -1.695681872746415
P 5.262475323932094 2.2873723044513237 11.288226787411318 0.2299180719845137 0.21490591484639762 -1.6966288100407168
P 2.5795383793005957 5.247256974276721 12.435919938597966 0.7630093158939505 1.3952991190824355 0.5056061511152905
P 8.899464102562064 0.5608599069542226 1.997916295316543 0.056575325291883215 0.09215450794807355 -0.3862043774154897
P 1.7306280989556233 6.518017283215243 6.010647438864367 -0.13878480621210293 0.573342892340632 3.114818460568081
P 6.904379694724496 6.192968702860611 3.172464585938144 -1.4963974664873585 -1.6026490759584464 -1.3373114868240583
P 8.185907173462294 6.394546239459581 9.069014697278542 0.21350954871950326 2.6104423252051494 1.6855039037721486
Ni 8.55091329256724 4.987336183395514 10.859226758333133 0.8024574945872438 -1.7160596650718187 -1.1263036214804862
Ni 4.773885710211965 9.44456027319223 1.274652982858991 -0.8808584003946508 -0.17134628508789201 2.056912353825387
Ni 0.8248429851356781 3.7345398992657053 0.7846005708745737 1.8564503823184608 1.0066403665891823 0.32202732851694865
Ni 0.9069396093110422 6.3715312968773175 0.055258352369336954 3.2140319322454647 -3.0665002330786675 4.006248980051623
Ni 1.8654754213329734 2.954262126849274 3.271104605730254 -1.352767159257496 0.13098253655886474 0.272219403855886
Ni 6.452505286638449 4.3631964294260195 11.299610562756975 -2.315382012195348 0.8472288852656634 1.0981834662055023
Ni 1.9378375494356765 4.960029366341477 4.691882795086202 0.7587040036503773 -0.6895313013094576 -0.9226802215264432
Ni 8.821057740760029 2.717225085880888 7.867625323579427 0.14397149261936493 1.0930019220045628 1.5123529613753501
Ni 3.6802355050213174 2.4275516717510306 1.0047053236703651 0.763708398843504 -0.06014324514879965 1.7904470788444582
Ni 5.460454433026345 8.072922172357101 3.9038178006478406 0.40546296853478553 -0.6404111467440391 -0.4361444567790424
Ni 1.684373312072051 1.2956962870376276 1.7000620811564264 -0.8863068251037316 -0.6172079691546983 -1.1637990473227828
Ni 3.291670930846416 0.5109654605841071 5.599202863138629 0.6008603810346104 1.3601274562773094 -1.6757601941218236
Ni 2.362311431418083 6.925923405228007 10.51430155146741 0.14868663870684715 1.8816536210569659 0.9399400370481555
Ni 3.9331562298972504 5.132866337427498 0.7865394111108401 -1.427993266881347 -2.615030458796464 -1.5388882886617175
Ni 4.97160243396733 1.1555544033577616 13.086544681256486 0.4234344654115417 -0.26082787418949277 -1.5552302203548505
Ni 8.252290664200386 7.336697024158594 13.669142276446898 -2.647696838681234 -0.07298127745373238 -0.6083268646149846
Ni 2.7603874741275924 2.7245906171796093 10.22360670869689 0.6792857123220495 -3.8447569620499915 -0.3779663057764136
Ni 6.035003357946436 4.238179186351924 2.2086520173331214 1.051843188378066 0.6550021571843364 1.011292263538897
Ni 8.033011488131589 0.34548558698234266 13.477567243802449 -0.6426755172981835 0.3415314599881473 0.409002863367244
Ni 4.447103512439695 6.999231994731691 1.6362040493051093 2.8621625806664186 3.74994779008789 -1.8245288510195161
Ni 8.023106441588652 2.677670496043863 3.117136888872101 1.0660459622410092 1.0134519901943773 0.7787817482368589
Ni 9.199454883053107 1.294300022198557 11.044561705364579 -0.19396890758341434 0.005554611269642047 -1.062484984362628
Ni 1.3329737469693232 3.742448943052118 11.565165141700257 -2.4090534710085802 0.9446950352346374 1.5125632776139435
Ni 6.65362364889437 0.14158594013423365 11.450354688308817 1.061286850289469 0.014761988800522966 -0.134986001291303
P 2.43573247178129 8.918177799767594 9.3076597855381 1.0850063053935959 -1.5731855192816906 0.5028365587899534
P 0.5636496253608756 3.674519252995592 9.5563729740869 0.3800170176578552 -0.1295000384760673 -0.8747234911415065
P 3.1627741331187957 2.7058675490691195 7.979583273500979 0.054286272147390374 0.528167324245258 -0.478058323404009
P 2.7336054277513266 0.17240216109586787 0.08736494694399138 0.8737325879831468 -0.28337413492112484 -0.43894053146694084
P 9.100470013958462 9.119820932701286 5.03014247725373 -0.09576048013177701 0.8180566345770814 1.1400803635496042
P 8.807704201191738 8.606492129886215 11.60314260823248 -0.017854254572601508 0.362495206724008 0.5814966317960178
P 5.588770234646433 7.1087778737164875 7.629926696720849 -0.738650941654244 -0.9542489974716598 -0.10640818965361029
P 3.498158821644534 8.853434217397538 3.4587298019339747 -0.6197597890422746 -0.6446946046107414 -0.5705743284565592
