# total energy = -381167.33851340954 ev
CRYSTAL
PRIMVEC
9.18903096625215 0.00000000000000 0.00000000000000

0.00000000000000 9.18903096625215 0.00000000000000

0.00000000000000 0.00000000000000 13.44907566060011

PRIMCOORD
 96 1
Ni 1.08384620492981 7.448040420169467 6.8720737957035105 -1.8441566525527724 1.0380602756613606 1.674411393403413
Ni 9.144804180970606 -0.09005709818918697 10.64366561920852 -1.1197506508533168 -0.23791111749231927 1.8966171843453337
Ni 1.1901173482957554 5.740938999507827 10.61429288165822 0.5122557952213243 0.27640078892708525 -1.6109269996965223
Ni 6.8742681363032325 7.932963963421318 9.578902274929645 0.18384364622395433 0.13535958258063785 0.16975554356200442
Ni 8.831577681712933 8.735469606618732 8.346092688667769 -1.424200375497818 1.5102045475737798 -1.4155416713815556
Ni 8.478535111188107 4.511942861105602 11.655278689354843 -0.21400011520267662 1.3707867357633683 0.19760958965979514
Ni 2.3427802062880443 3.300644796384555 0.08083131107812697 0.4094204105206368 0.4656915743085399 0.2708801162191722
Ni 1.2688581548243147 1.4102497746230003 12.385469415392986 0.7845389624356102 -1.0155867771491929 -0.5172043974758511
Ni 3.290316325555041 5.916991644189897 1.2356012138757604 -0.5132716380803483 -2.429973508990699 -0.4710546383926662
Ni 5.5326144779990205 8.647319232359372 3.9659977197776386 -1.8446670165302876 -2.6215916569537496 0.7811008832883386
Ni 8.491611102282766 7.070499893033 12.213576645038783 0.612112814019978 -1.5848878953202834 -0.6185593409762702
Ni 4.466539858998284 5.769636343280576 3.6974740184660666 -2.2243233084146143 -2.1957740360220117 3.385747684857633
Ni 7.251652449912918 8.304173248207665 1.1911713301499771 -0.5645222087252084 -0.6494832842486362 0.16680340291221596
Ni 6.41645223446336 5.820846812971749 13.016849572323622 1.6633870172684515 0.2797805040325956 -0.39518009855153874
Ni 3.4474855115585976 7.382320470549645 10.032217389392029 0.11385744684280391 -0.09114792106043013 0.34269102751388725
Ni 7.89335005083588 1.792789134616455 7.618982125816506 1.429730561287428 0.12348237152707765 -0.4801028646378635
Ni 6.899639050858648 8.672340963737277 11.83712318026809 1.7281420501576494 2.6662177803035565 1.128689090993527
Ni 1.2507098186247692 7.77201808568206 9.395174951567137 0.9366690796063675 -1.6598597208414834 -0.5964316558392954
Ni 0.5515715850013723 5.2340904283207275 7.7377374866815405 -1.2234028750283448 1.9445098942615544 -1.8088870307172007
Ni 0.9181541926857077 3.281752148675053 6.327332417434858 -0.996180604708439 0.060785763828804996 0.4008519521253354
Ni 1.5270515475001756 3.6960855558839136 8.699736221819153 2.982213557914444 -0.7201893925149467 0.3985194473374169
Ni 4.971274953058348 8.30930991652946 8.309538723401038 -0.3854659565875684 0.5009527115036791 0.14535063235507872
Ni 5.187143669007574 7.536990240124706 11.594972916792628 -0.5273288875043628 -0.39193793746515726 -1.5460130726319568
Ni 3.678608018946428 7.503312441556943 2.748479599981415 -1.1109993870232477 3.213883065372426 -0.3241631439130288
P 3.282101331852563 1.8634987280622788 11.867934920070974 -0.1679624562173236 0.6908543909962553 0.16516381042626394
Ni 5.1866015161793335 0.2862475042795126 1.989898443805492 0.28213563452833346 -0.4691995874617984 -2.0908830543438763
P 3.1993173516896753 0.45113271960294654 3.2935710803306764 0.19294560852522252 0.2791058465630742 -0.4183776197139246
Ni 4.967829066438182 0.6713891978485174 5.835150458606287 0.738658912074044 0.5232002100479699 1.0251790488233183
P 7.547778162503575 8.177925151475739 3.585859453581116 0.290318427449442 -1.1699977199343268 -0.5345680855652793
P 8.812519631445664 2.1471181694794774 5.080402047255087 -0.9427170855726603 0.11546361498765921 -0.2991846195908202
P 2.4341283633309203 7.712849915156048 0.5945293859630202 -0.8180448075025395 0.7798880939271601 0.2668766514867339
Ni 8.315944396902154 5.885243542129428 9.61056124338954 -1.035373729968133 1.5884992668206255 0.34423317519002655
Ni 7.053904503070277 0.8280603383725723 4.72257566719837 1.3354831753660679 2.2633667954703216 -0.10131611984268357
Ni 2.249272626963197 4.114425380603155 4.558173794904859 1.2434636503339618 -1.211564744742836 -0.507112560457488
Ni 5.086395133264882 1.9284559881101704 3.6233957262603678 -1.2928355158988705 -0.8734698212400634 1.77958519642929
Ni 7.748586056664925 4.928141641604847 1.3061205943801506 0.21380933934810917 -0.7752002015331875 0.9158045774525324
Ni 6.629940991386923 6.671208929550041 5.26964370811296 0.8297734087933774 0.595560823198568 -0.4663788301835516
Ni 5.944356578469516 2.5865100641901915 10.304950585798798 3.2237021083453765 -1.3919093766745965 -3.689914331044078
Ni 5.67917952224345 1.5228797274320267 8.092349543698965 -1.0285549072740867 -1.4852062257572292 0.3791991497422501
Ni 3.2751728024882816 8.608091259075394 6.676914398889939 -0.6508547106748662 -0.806824770417004 -0.29167776969081377
Ni 8.307885616726459 5.735738007969122 3.820923136359318 0.5383933728486405 2.710223239350229 -3.772178062241
Ni 8.424071724527497 3.672028672759656 9.259029349558993 -1.2689669368113887 -0.019717790143901525 -0.9539443217470474
Ni 1.48412039472839 3.5022613252727695 11.036217347365533 0.8846047548109605 -0.7714394489391747 0.7449997666904072
Ni 1.3453017036060957 0.5342263701101004 1.6010186524309302 2.8889503902832248 -1.3279974085119841 -0.321140297926305
Ni 4.310978753417472 5.754437686027894 12.419495478235163 -1.751340342650984 -0.8360787821861149 1.8948693484162913
Ni 6.112129906232199 4.793356935085894 10.717702560774777 1.434259559506033 1.6479079477962457 0.12674201611495592
Ni 8.571298379002998 0.7092718969959836 2.463265861687953 -2.9856657781291034 1.9885680609230332 0.33649106935076245
Ni 6.963199578196499 3.4466952548937058 13.148744328597127 -0.005118809283804087 -1.2726438714423438 -0.7982761095160446
Ni 8.588904562374305 3.4734169570042264 3.058804203253357 0.3402325386710657 -1.2177875857240963 0.7201174016264308
Ni 8.072802636983182 4.642270887595806 5.548859765881135 -0.5906003938694989 -2.3478771566095755 3.3519366498454595
Ni 0.3545550850253052 7.917443690084087 2.965951801837891 0.45372566019591537 -0.764687732037638 0.03362257315045177
Ni 8.64363443093354 8.627149309342663 5.546129704774864 0.8665237289395336 -1.1315175615812576 -0.2506666173857747
Ni 1.5555191654982472 5.78279503565412 3.284412373145822 0.3618210634751188 1.352941222941515 -2.1228290111228536
Ni 2.9900279819272217 1.6376966696159858 5.186730162613153 0.4697968547261651 0.9010526159543385 -0.1615133581578702
Ni 0.7167912810527369 1.7533498136197723 9.357126849861904 0.305424429852945 -0.9600501775344692 -2.093322259912988
Ni 1.915324862829588 7.6793467081770395 11.92089773797139 -3.0615603725748883 -1.6393934825673315 -0.7367511535283698
P 7.520018099891511 1.267562501455132 9.766005648276817 -0.4601765580275817 -1.8987522284104654 -1.842106454891963
Ni 6.1616495942217435 4.178849676853795 3.311243424725089 1.4600898903055757 -0.33108352518194595 2.0315463642567724
P 7.212029348296492 1.3272820138403698 0.23226286613333083 1.2826578040349201 -1.5597810729503265 -0.05350594233794011
Ni 9.316115285663328 2.3785622929518566 0.6065532330096556 -1.7119104187901355 1.021833272279537 0.8839768914189743
P 2.4664278072506174 6.028353510722702 8.512148586538961 0.5651667842877428 -0.1653209048294185 1.010746418337756
P 5.5089986683621435 4.394075160633922 1.1192506224200522 1.3500497603263328 1.2092080715852014 -1.218152682372999
P 2.9572323303342207 0.887383803522266 8.118870924933967 -0.30322279421593584 1.1093525954484444 1.2051930368885373
Ni 1.9153616189535363 7.891723592351162 4.875666761249847 0.5711829085748357 -0.04849409094564552 -2.432157661126211
Ni 6.169570538932633 6.304336867389612 2.586606549015556 1.9084874534203582 2.561840505037046 -1.9889976922612842
Ni 5.112831975414802 3.6586310655804475 8.208105604849807 0.5509231298845351 1.3528103537906058 0.30987423809418246
Ni 1.1310410680796152 0.8318002739843268 4.117743539692602 -0.9279607531990922 -0.15286853799867867 -0.7309317186331153
Ni 2.730281643014539 6.107167829499158 6.339155024702876 1.4680518254651298 -0.6549329945092979 -0.29001323750419733
Ni 3.47995954706705 8.949472949277574 12.525124308335108 0.5614775083616137 0.33289152492496216 0.7421736100955217
Ni 2.3526767926611636 0.5011467774595975 10.328621529621596 0.40518400384178604 -0.9279437839182277 -0.14844084124462825
Ni 3.4544416080158413 1.3738520228830513 1.0460324235147473 -0.7012239071560374 0.8039626183778605 0.3549006822062017
Ni 1.2905718350468591 5.346463088262114 12.760550038934202 0.5262253700275389 -0.04795981570873031 1.5817776318260757
Ni 3.649304199128529 4.749267964409733 10.715927239988067 -1.8811401717556568 0.13370096393129233 -2.959095226729427
Ni 5.063339854518219 7.409492435178533 0.5288011662153097 -0.6547761572164595 1.3053326199246165 0.5993079489458258
Ni 9.083449021069661 8.977049231269897 13.410275177327506 -0.2444985409018499 0.3435505473007051 -0.6269431941645912
Ni 6.345926421637279 2.3809146848845573 1.9056267595257903 1.3649788708323394 -0.050930725411596156 -1.8149491777508808
Ni 3.1198046665581987 3.7987178429789634 6.612358699496184 1.4568001638107102 -1.0324056484787447 1.9507854428576206
Ni 5.076847730069273 6.023979531972837 9.022930981891642 0.02907120633434348 -0.13137668667348987 -0.69059573801823
Ni 4.044450909636301 3.750098680026156 2.3532115942646135 -1.7314798562816307 -0.35497575841851126 0.16952748671159837
Ni 4.932929126749132 3.237130214201639 11.859515929880581 -3.03666489488479 1.6422525492826814 4.483228725679472
Ni 5.136879669508073 1.1186542543089888 12.93753996477696 2.7864315083816917 0.30473023199939775 0.6557392924606772
Ni 2.0321633918307116 2.632501164280685 2.7163639366814603 -0.7668929672190727 -0.6340037005557985 -0.28421128611043955
Ni 0.14128227032993915 6.446564689008125 1.1020211893192182 1.2455351881510097 0.7052764799588563 -0.060837185892030694
Ni 6.825400869513773 8.877293110873813 6.917101885346555 -0.482701221492659 -0.49026514988284603 0.4691921312626307
Ni 8.001661159080964 6.732123015963603 7.328911984646355 -1.0751268414963546 0.1580703939145923 -0.21140252967882947
Ni 1.0720015439874233 0.9135642717076454 6.504538285505811 0.5103655201771468 -0.40213544682344937 1.5545882158954776
Ni 8.649405142393446 2.2800191246460724 11.10943370846464 -0.9722271792166352 0.23091668845235713 3.2911282603088354
Ni 4.979471568698852 5.325263993774848 6.5185919894975 1.2718853960097645 -0.7584751754690228 -0.20129526604149847
P 1.012263653540211 4.259887741129131 1.7254225106437426 -0.2952390046795109 0.9293365505006963 -1.0589692578998857
Ni 3.533908347992382 2.546988041914625 9.640229867737627 -0.4075609887143949 -0.11417446386259046 -0.7342885509204903
P 0.838744424701287 5.6139282132039705 5.280859839335829 -0.5810675146783993 0.7011837979467215 1.1996348260744694
Ni 6.313810758337324 2.8071754543146885 5.8733327201639325 -0.08551591958563337 0.5829549615090992 0.4389824404484698
P 4.507311589488098 3.580864296336522 4.84492210137317 -0.6777916442750263 0.8665327278005979 0.41901756729076867
P 4.608188771664609 7.181567710574218 5.503805946951327 -1.1723279107294002 1.0640351024585673 -0.048048261657478546
P 7.057019584574907 4.775713995590641 7.572139202553506 -0.4553822219627318 -0.49917530788828224 0.7220444434458145
Ni 4.743616710352659 0.6736019165102138 10.538803154292898 0.6519947378165803 -2.0565583129200777 -0.32817355062400255
