# total energy = -340896.9457691472 ev
CRYSTAL
PRIMVEC
9.02707424777557 0.00000000000000 0.00000000000000
0.00000000000000 9.02707424777557 0.00000000000000
0.00000000000000 0.00000000000000 13.21203563227392
PRIMCOORD
 96 1
Ni 6.414043129523368 2.018643356499682 11.42872817562196 -0.3790119734321085 -0.13191353301356637 0.34359836981950503
Ni 4.412135968564134 0.3565540843124367 6.094157020553595 0.3905189456304436 -0.14972870681811634 -0.5928920181171531
Ni 2.639471356552938 1.4969687393031013 4.641494064061751 0.7252446955506671 -0.16891942081395425 0.6600091234806246
Ni 3.4652410218460967 4.399443902258919 5.1346070185345045 0.5707165104613784 0.13357703675891833 -1.246575456490066
Ni 5.02233910230072 4.535048610677798 2.5751047067786086 0.22840497777409696 -0.14438672577991263 0.8854493621994427
Ni 7.282899019905284 6.052156752489387 2.4763981640941304 -0.20145338888591757 -0.22282722657600335 0.009918801775608724
Ni 5.007137509371855 4.59438356930097 11.424433996431782 0.46663619760999636 0.29044595416624175 0.30364522646533515
Ni 5.610362714762828 7.725830468979253 12.244122121845976 -0.4752123693147816 0.3523987417199544 0.8560120307749323
Ni 1.8011450310673511 6.500387094110414 0.3793799440986155 0.6366347104207423 -0.41037120446968034 -0.2273559676842923
Ni 2.8509937588742793 1.6555383244506205 0.2405083375319001 0.1476376286170425 -0.8611385533682202 0.34577737974869477
Ni 0.4239240416683772 9.15959163483348 4.754575319679676 0.8563997531316542 -0.2068583619515728 -0.02240356450618077
Ni 8.5178208226692 2.2224566374663617 1.2485662253957313 1.0511986128155313 1.0578004344027654 1.5286776666773028
Ni 6.839949516682944 0.8078554365714661 4.831165530608978 -0.4229055894912652 -0.13924734767081823 -0.1838521308643866
Ni 0.6359230735067275 7.342938090314949 2.341159052179775 0.10336760305507357 0.006985173068581518 0.4071611821728149
Ni 7.571494581624868 3.798899737901124 3.8445306952028546 0.7970268104899757 -0.09010302473568353 -0.45100337616874586
Ni 7.595461463588129 3.8538926738409334 12.710453552624339 0.30560954928055756 0.044709427092232676 -0.46166702653017916
Ni 8.204590375496606 9.118247635062579 6.793985460343759 -0.9386447152754996 -0.7918462947303008 1.0915502771597008
Ni 6.967429858334616 0.6214571871240052 0.4545953316294227 -1.3555336662590396 -0.29334333031869475 -0.6173000146478723
Ni 1.7983827463665005 6.4450150210548 9.301088314573422 0.8840745933391032 0.4475953789284614 -0.5325813941525538
Ni 0.28880769796294886 4.747509828714461 1.4052320005974681 -0.4723556165922768 -0.3000873339107477 0.4680785864834777
Ni 6.1988105997116705 2.006709564426073 6.955370589929825 0.7830325530934127 -0.25493799106761905 0.906178110106362
Ni 3.3666743988114978 4.289286515969771 0.36603792845202354 -0.33204588909521526 0.04767056660308564 0.12397165245867035
Ni 6.102780584523277 5.5798150957181285 4.847773541695987 -1.1034619409956221 0.6746687823753283 -0.5023873870676767
Ni 5.3974862513136195 2.8589827195287 9.18994878261286 -0.04004853128145361 0.2959959374501934 0.41899545580358166
P 0.2498242780916314 5.474342760931403 12.469268184528504 -0.6487713457832762 0.31681878773281563 -0.6550206691270977
P 3.8331484573619967 6.249317079781143 12.685972127432489 0.8693524566375802 -0.481041574402049 -1.1968492929095322
P 2.4719920491840477 8.351072708309358 1.3803010271111642 0.03277308066596292 0.8544505998250833 0.8465010059607034
P 6.4887692496333065 7.9191994251129785 5.9378062902409425 -0.29771523413414536 -0.6615692688788928 -0.20650894903195402
P 4.8612148551586225 0.972134646141495 12.635991023080628 -0.33643219108836897 0.27675791515618786 -0.15668328375907856
P 4.13213418146942 6.168615036560215 8.11299536185569 -1.3971670255291098 -0.0066149342133563485 -0.7250138104867836
P 4.8013924345294186 1.0005609027525355 3.8340141537764136 0.2513335615458123 0.2898224616496299 0.022204046900864985
P 0.12326560071432831 5.561634568307955 3.5586748504986576 0.5855042102935142 -0.653009809344656 0.3599852958179607
Ni 1.4898192965479586 0.9494496087126145 2.526299830193156 -0.08824257448817706 0.43312701010895727 -0.4565068224854783
Ni 1.5549406097242198 6.8039224636074715 4.691738758979836 1.035839613860958 -0.2992949199164394 -0.16456062962462628
Ni 5.993679365913866 5.57908390270908 9.099855874116457 0.5088346853549172 0.4194767663153744 0.8167335448902838
Ni 8.562676354298372 2.363143588651839 10.425220835855184 0.6466715258314539 0.3567469913863211 -0.960577510792849
Ni 2.158915062272613 5.341716986993833 6.83393838798263 0.7148240144379754 -0.30731136246301266 0.9202777827325378
Ni 0.44368611247590023 9.13251041227612 9.290716206333952 0.33674560856372976 0.3862606845747219 0.07881125387194815
Ni 1.4428604566334993 1.1361746382456008 11.539589673697598 0.14169683765257535 -0.2882872559520261 -1.0309660878187406
Ni 3.9862747167754873 6.607601654214995 1.714764055476145 0.27113105588771375 2.1387865628933747 -0.8911268722001944
Ni 5.579977583053473 7.921952682739643 7.915607552294453 -0.06134446454575242 -0.16592768517548198 0.30515343557974545
Ni 5.424224445051919 2.8681542269014586 4.873523270810942 -1.0812144424513315 0.50438153467957 -0.6457533848925588
Ni 0.6981575283583743 7.299355376145972 6.8806562050163285 -0.6718469966558172 0.005916365484434972 0.6661939121350979
Ni 5.101714165616337 4.435209170183003 7.1102679612985655 0.3477188197457818 0.7795291679258446 -0.2296841015968367
Ni 8.314269326853909 7.152331418882074 9.156720122534981 -0.9684188612141384 -0.6664926743224393 -0.1638746593011952
Ni 4.763144721204242 0.37002067358279245 10.54580720095117 -1.2102164582450579 -0.5095409673933224 -0.6251251671192459
Ni 8.088132091425779 7.246465748491452 4.617566901224906 -0.08495079111078273 -0.39716833262616114 0.190839103705181
Ni 7.289958191918569 5.986204948488035 7.009698230502141 0.23965124011187758 1.3031068159178911 -0.18896014151491328
Ni 2.529584782489364 5.060848600777283 2.678898908474196 -1.2993645752666396 -0.46078848057996774 0.37283027010142883
Ni 2.3812880077652685 5.165174497142414 11.36001228150492 -0.28519678995216047 0.7773745834766871 0.698407520753165
Ni 1.1688616738723323 3.2284247576561835 3.715078840549007 -0.7219642250271824 0.7825355588523362 -0.5875415524385171
Ni 3.8555356013427464 2.4275607900416083 2.4167987121973145 -1.0638762082831998 0.6841060165288283 0.5823430389567132
Ni 1.1349830644530772 3.407485801205437 8.152525822422668 0.05711114319069519 0.6031365786632968 0.5829896714017766
Ni 3.7392578587556353 2.633450298071019 7.076723353624185 -1.4293829481400222 -0.12052071779559244 -0.3487480323412446
Ni 3.9025937390732497 6.927078836724152 5.986320495037612 0.3068089689052974 -0.06971186267384122 -0.4261739758298919
Ni 0.661086945507025 7.377800650820455 11.340841484056565 0.34436584411314886 -0.09706917164087153 0.16677486366712568
P 0.3217574214484868 5.459195330447654 8.043024704426825 -1.046402734088785 0.5666053165064822 -0.41881110770691743
P 8.584205926231471 1.7583566994267246 8.170058205906301 -1.2392701810779043 -0.04511797538456101 0.5316851075905294
P 1.9346644853493138 3.3377065177493104 10.287603992600292 -1.3121452719710756 -0.9919567964350788 0.1803127502525604
P 4.0569025452050775 6.256773443058602 3.7907175978591274 0.14407587940771316 -0.9536946676300866 1.9073479404992764
P 6.934941418339972 3.960222580675308 10.465002249084526 -0.2934721425870752 0.5416165077716284 -0.2881329897623489
P 6.30457180087234 7.63037818653875 10.099874249710428 -0.03388045479752875 -0.16069806134542647 -0.05862526584237645
P 2.17306048752174 8.662651200905952 6.016827492248478 1.0114845820553613 -0.624135292402151 -1.5399061884032705
P 6.88698057319089 3.948099220043797 1.576896259558889 0.2471138670375099 0.7409762473533109 -0.07544310873066362
Ni 5.292031970675266 2.979458051612202 0.2845568487288621 0.4244045426342949 -0.41897797230208483 0.14595561292892928
Ni 1.4525916426057766 1.341007978595274 7.158544754044151 0.569986060053257 -1.1222639041934737 -1.0317271343544812
Ni 6.772363812253964 0.6067006289525007 9.276910199074212 0.9291897405101869 0.6844636569785632 -1.2613438730484923
Ni 2.667563611419105 1.5164491653960277 9.185099438360256 0.3575157512315456 -0.10184422443201172 0.9235076025237451
Ni 6.34568109671441 2.0845500251301066 2.5386533812164043 0.3411095419593803 -0.43467095755730945 0.33526105359840325
Ni 4.11491052392294 6.751899435074787 10.328693428879154 -0.07901282835979295 1.020144057502572 0.08957877680109734
Ni 8.093223361266563 7.174790779456309 0.1032670205631377 -0.665078567583732 -0.5289767075204309 0.7128468361069465
Ni 7.623057229374078 3.9189327433495222 8.207950252508557 0.5792052646586799 -1.2028821293671736 0.5510743107504187
Ni 3.0256315360724977 8.344645431489079 12.365778195232979 0.49948306893668815 0.10889778884468342 -0.1267409876736914
Ni 0.1355749190740663 4.836444563592826 10.233976852984792 -0.2728554947779881 -0.5427267101166717 0.20129500893118235
Ni 8.543349388466602 2.2957564798549455 5.9657225171604855 0.13846778919231637 1.1095156033888698 -0.6971358531295929
Ni 3.6534103832488087 2.6576970193340403 11.330972183849246 0.4361603976186424 -0.47480099280897575 0.3565924680863278
Ni 1.0637684762014101 3.4003363584502946 12.529911166201199 -0.07268637192113288 -0.3894118286091939 0.0545976327402221
Ni 3.033033736904842 8.324821976577091 8.008131451869087 0.17662553120896032 -0.339207439840661 0.6123853509550744
Ni 5.8120636603700335 7.834588658769604 3.6615175985750636 -0.552570435679971 0.006378392722518048 -0.13189836350491477
Ni 3.3346463396003285 8.437795810012206 3.650432351474918 -0.5713726559881386 -1.0293162109201432 -0.30668504173292344
Ni 3.5592941077878026 4.4233295405545086 9.327617982898028 0.06884900045291369 -0.07662067397853256 -0.960573654138107
Ni 7.209373500662056 6.049448630233652 11.361016092154378 0.3080114738538308 -0.724736645565997 -0.2227920024626937
Ni 0.5637741830768318 -0.1604399949188142 0.346234333103246 0.4472202549772298 0.9947911805600803 -0.08581236778012964
Ni 4.748114642684908 0.35755789496189605 1.567409707297046 -0.6746821521117671 -1.1715501520231113 -0.03845007644608217
Ni 5.789053648270465 5.622675643952241 0.4633669396157512 0.5720342008315374 0.2925925681955993 -0.7034772219665884
Ni 7.747856529992571 8.811083381742835 11.34652222184168 0.5467471441299745 -0.06918890029083569 0.13321373988222862
Ni 0.03092946428275905 4.708612166047908 5.742095711063424 0.4150071605797949 0.38565596111118744 -0.34733906780885987
Ni 7.875616710944002 8.934754298088105 2.6292084759111183 0.09549488517521619 -0.4734213388526299 -0.2178133183011797
P 8.557819788386418 1.6992022822872683 3.611536494223203 -0.49372328363477547 0.5351632959471171 -0.3379576265939599
P 1.8367839199528346 3.097956454449016 1.4794706587013733 -0.02577428075062658 0.024546064770480307 0.9490540835342816
P 4.646487841501328 1.0178658039666877 8.292336244704703 0.41519459400025266 -0.42021210181950214 -0.3036495973407093
P 8.495803788730067 1.5347741259931735 12.470972496134783 0.6231317908383011 0.2972645197499719 -0.9721932406549062
P 6.286752356429598 7.7512958452573555 1.313302985211678 0.3207338065165057 -1.1404668003547456 0.711428101382549
P 1.8065973838755658 3.098615430864579 5.814458543151523 -0.04434998687028491 1.2305950219014097 1.235574220283556
P 6.947723755387044 3.979973818993808 6.052063773625275 0.17057778235298365 -0.3820571880163356 -0.2884163253307226
P 2.3302669844672055 8.438156892979636 10.205623715674657 0.2693654793468587 0.3656054702182155 0.3218391237655425
