# total energy = -381163.16038052225 ev
CRYSTAL
PRIMVEC
9.30310619986958 0.00000000000000 0.00000000000000

0.00000000000000 9.30310619986958 0.00000000000000

0.00000000000000 0.00000000000000 13.61603629589325

PRIMCOORD
 96 1
Ni 7.169745831828802 0.5728545824454057 12.289970841891659 0.005022135804939738 0.5503855122135102 1.4205008151590441
Ni 7.353240299446474 4.052665658890129 13.511315190881964 -0.63549056951397 0.7521849715849369 0.17579095112280693
Ni 0.554374892196179 0.23652403384735596 0.5275959008639203 1.339864849373531 0.7528876540789163 -0.600461860044611
Ni 5.704078655024201 4.493911988189777 5.695778423630544 -1.0305781083517025 0.0532575737725599 -0.6614988206522737
Ni 5.828758884947748 6.138040652132374 3.9360558736359352 2.4339314651971824 0.5154889574466412 -0.37255413362190676
Ni -0.0553990673908174 2.461536791237225 4.037930468905358 -0.6791682129075787 0.25635903978486174 -1.3838391980719522
Ni 7.7909142359472385 2.0389804023879887 0.7895081116595944 0.9581388194443693 -1.4975858303685048 -0.30022437370924426
Ni 3.6327513522150676 7.951095119309695 6.660243542304854 -0.25975803816408166 0.22334838918679598 0.8095817643368508
Ni 2.200547448581262 0.4773023781815078 11.276338806701458 -0.5211196733698574 0.24337214060689058 1.4646368862463097
Ni 1.5589959386754437 4.070174104847159 9.526541740761873 -0.4197937833351609 1.7140536903853836 0.7716911599386646
Ni 5.949717872372459 7.721708428575109 2.0410168523454773 3.1063934697291793 1.4969237713044736 1.6370262678867356
Ni 2.697528687407247 2.3004814158875413 13.441587479249375 0.3735368092501502 -1.3458763456749336 -0.20414224857199037
Ni 6.372023077353023 4.63797058842602 11.514414598670829 -0.43084207072952246 1.5165392315425559 -0.6721773834120424
Ni 5.618313318532245 1.3967311595136378 2.12035746366319 0.018108536675252685 -1.2639838817745006 -2.1867551203528532
Ni 6.159074975357052 7.193152447146488 12.489758769790491 0.0412741761584386 0.42152490709365464 -1.0314252868433464
Ni 1.0568421727760748 2.9371860074386236 1.5218374717033025 0.5377541966027448 -0.9153718607904882 -0.19231414558881074
Ni 7.414138432939949 6.767516730129464 10.323828179554663 -0.795999654777042 -1.0550850923541313 -0.7646543076965412
Ni 8.839988315006991 3.899341164831781 10.754449431209506 0.4443426763191186 1.1746174780945253 0.7278924175861593
Ni 1.5649778359923248 7.307273651479585 4.461838599092297 0.014372723781904278 -0.8490703093497763 0.6948560559564808
Ni 3.114670668420675 7.73553284445829 11.704222154187779 0.759305384679802 1.2648652559381892 0.219319470533061
Ni 2.065754742167124 4.153697392733566 12.081399851384944 -1.7440337816872413 -2.150454486149606 -1.357947417906855
Ni 6.448327154791685 0.6008485594535349 4.173246940201208 0.7487209242957363 0.18695648082132318 0.1914898499153025
Ni 8.97765568125148 6.088241124391682 5.738573642677799 1.6783109855681355 -0.2636666291898685 0.03044160431930886
Ni 8.062546332149875 6.825903024936224 8.010368930452426 2.5485013647259787 -0.06499208860066871 0.8504437926585354
P 7.390089903291212 2.434111234020793 2.8031059189630128 0.4305163119589876 0.19480631588304514 1.586730347845661
Ni 1.9059459830545507 0.6492135482109248 7.2185145753973154 -2.0991902886579914 -0.9207997166742786 -1.2842567730909236
P 4.634686591920796 1.0239556921925992 9.644687468857464 0.25649530825240985 0.45734448789542526 0.31055300932876195
Ni 2.8523323753588836 -0.03007322125435462 9.063705692794597 0.6367051586473615 0.2386369399147503 0.3366947007211363
P 0.249151139956536 5.901369629206314 9.198477002064367 -0.17462958382485408 -0.9858324287048956 1.9525880432839986
P 8.433777483833897 7.108410452341714 2.626302245358249 -1.1380923865852979 -0.13712413068022838 -0.07455684947096837
P 5.094762408264562 4.394071051945969 13.354785776721492 -0.4634937953262728 0.2583542158380196 0.04325675380610615
Ni 6.846174493448641 6.4178315725137125 6.297975003179282 -2.891922585537671 1.4528067263806013 -1.9810326717779365
Ni 2.4670814425604926 2.7112600722279567 7.914933945327242 0.04625311743026873 -0.5640686661275576 -0.08799060637837104
Ni 4.114428981264584 7.085478295442628 2.518013158331456 -4.248881157168695 -1.2766846171706205 1.5443169158764565
Ni 8.579929282975737 -0.00574466810758027 8.290845489764177 0.3525820613753541 0.2287819014975415 -2.26133665241417
Ni 7.557471390888919 4.490841963128236 7.218174081708672 -0.04689666455153859 -0.6405759544566774 0.004219951618618539
Ni 1.5092708357847284 2.796067188776462 5.591684107210565 -1.4956235644358111 0.05019564701778452 2.34239916421414
Ni 6.310138814597357 8.121379176056495 8.628945489170423 -1.7037173414563818 1.6740763786614976 -0.4469479751524496
Ni 8.575835916227016 4.252487077971452 2.177544588074699 -0.49166537266448224 0.5376937756784547 0.2602267502703841
Ni 8.15276785653419 7.89557418122704 0.21104468645781613 1.3350831117141717 0.9464930076753246 -0.8198507503630267
Ni 0.5182667459193349 1.8312699492091307 9.503312814773507 -0.10342185333177673 -0.6056850561167633 0.45884909746540975
Ni 7.012932672927793 3.406127684035869 9.200506009536857 0.2572005618495506 1.526075196057449 0.6763451416364867
Ni 3.6633678748742526 3.235815717970327 5.851613826064984 1.0122726251742953 -0.21887955478216495 -0.4161716132015413
Ni 3.005117289254901 4.872046044709141 7.792947894972852 1.3079883123799088 0.6755154466463399 0.2483258850677401
Ni 3.27168849565912 0.6360533741137863 5.356589960793388 1.8536507080861366 0.5070477686578235 0.18646000080087888
Ni 3.805100698548723 9.18542195306782 0.7158730954032243 0.24135768128002302 0.6469828864242857 0.12395442606748976
Ni 6.435377230895731 2.10606510153578 6.084366380639768 0.044259484039007646 0.4802483890767923 0.21840004404258517
Ni 5.531533943459356 2.1003622974063116 13.307919518380508 -0.00934184622621617 1.7059626858471328 0.9198337532165837
Ni 8.98252120581871 0.36945146745895213 2.763020694765536 -1.4792224973699688 0.20011950056584246 -0.43969437891382984
Ni 8.338950921857272 8.108029218591916 4.687062149781308 -0.7687816996013535 -1.991188529265016 -1.5177257956514894
Ni 5.3916245286093165 2.9011829862623717 3.8002081949733766 -0.8677457742720927 -0.8157025325226082 2.5952579041552273
Ni 4.132495613596439 4.438921327163207 9.726928788703018 0.04138601914595453 -0.6103742340623165 -0.618870701569102
Ni 2.8225903446869256 2.3132266714460594 10.214070132051454 1.3920271331993832 0.5617618723712519 0.7539024684966757
Ni 0.7741570560412654 8.560625337513017 9.912228989243255 -0.07797256002073669 -1.3915933880960742 0.6333843218042446
Ni 7.644483343617986 4.4067977012919926 4.614066256924113 1.0688852314620172 -0.3298378257003029 -0.8661905139698309
Ni 4.493381711133693 0.47790242853444526 12.236418441090887 0.21625960066081468 -1.108751985749968 -2.292185519474226
P 7.796421674845518 2.06327081279915 10.754613165879455 -0.13432445644790414 -1.1429438011403283 -0.1917024801467408
Ni 4.158209399263406 3.319850676700323 1.4625804061518155 -0.9542749656135887 -1.029686963996001 0.26141305726900144
P 4.143305823055562 5.968556662522823 6.085646488059368 2.4583214640057722 -0.3413707660405669 -0.5223913409934293
Ni 0.5900411409262862 4.439926062637893 7.316604667045421 0.6297372119699607 0.5478655740051339 0.1388151452294061
P 4.963551397755554 7.758306848551175 10.546518494412592 1.6169562366097376 -0.014428773830820314 1.0391853904047392
P 6.418101362594878 -0.720835372275424 6.374252101609827 0.263209744158108 1.210433202241554 -0.3600089499670445
P 2.342438425061933 5.8680086902042365 2.65925291737483 -0.49118509059395404 -0.7856861886661759 -0.1987573301109932
Ni 1.4036154581364872 0.22400856501314098 4.270832803490721 -0.7735294986989839 1.097826854197032 -0.01984068887501099
Ni 5.84594172218613 5.82001396507548 8.75602405988447 0.13634457220172647 -0.8361746843340309 -0.2008152410812864
Ni 0.9670951068103634 4.725122087748793 3.9988937047819286 0.547245938143264 0.00240423856611844 -0.11912435166869804
Ni 8.393197334384075 5.989190952178877 12.063944433133523 0.6442857992080969 -0.3038519431595025 1.857406832694459
Ni 2.1487942685286807 7.392908744484082 0.3235685474482868 -0.7331629219564793 0.9067607220827093 -0.9796954625692225
Ni 4.038422603225829 4.949299038985006 3.9235831990904573 -2.466665979315726 -0.7847189396569001 -0.13496826067949014
Ni 1.4428187478617394 6.269716817953736 11.402872215389426 -1.971549929098482 -0.11054020954411284 -1.0508211748714549
Ni 2.7779447378071236 4.827586499954282 0.43316006934967355 0.021052706905241164 1.4411179771887634 1.3512756623136342
Ni 1.6931002152272971 6.8877407721606545 8.028137863384375 -1.4626509661645326 1.3160420359223206 -0.8477127668806174
Ni 2.6602697468876375 2.283549762517831 3.78457711585701 0.6508567675573952 0.38686592225888855 -2.2629615896121025
Ni 4.245928388067251 6.969319710841418 0.21854671133547235 2.0637306622988008 -1.8140688320284561 -0.7920632958371133
Ni 5.209739498372391 3.714134925664642 7.651204837881511 -0.3810881392348469 -1.2615978980408273 1.5948689177923951
Ni 1.1178798528632556 7.747487335985806 2.3021587659438922 0.16268449564783596 0.7407811006233693 -0.4634595996542276
Ni 0.40754210567705207 6.013183663190131 0.5005917743604817 -0.5476629710760246 -1.2075347976478363 0.7576375100590758
Ni 8.70974482754768 2.44922878167232 7.555225621040871 -0.12979545822929903 -0.8498763501908396 -0.6624478148291042
Ni 8.521384835362777 0.7795314605202113 5.509253003997568 0.39249560974084013 1.7103636431283058 2.099817380719029
Ni 5.338224698750999 2.8078728306040235 10.790164056092097 -0.49155070146348895 -2.3128615597663393 0.5610226802123821
Ni 3.677220200076175 5.59656265612654 11.474547067159536 2.035210700482237 0.06170699009149373 1.6642845893820561
Ni 7.177886049795008 6.105814692092442 1.1045205922924293 -0.05225072977460034 -1.5377423479827323 0.20646421183694763
Ni 2.1706472651031037 5.750519761409692 5.98085722960273 -2.153743184203207 -0.6326137621868072 -1.625706471998542
Ni 3.681508932056085 7.143594800168222 9.028058050276984 0.8836786434522651 -1.3932080408813619 0.11237314898779358
Ni 0.46223971885683857 1.8894329694659595 12.106575917510828 -0.7508575110227649 0.7003623304866905 0.5891325510747208
Ni 6.487949084298056 1.4052341986234813 8.43460359966864 0.3288266108269692 -1.348647737772484 0.17600486690582592
Ni 7.798440448901136 8.933093802327903 10.389240180199227 0.021382065220201887 1.1505583802627926 -0.137609297846763
Ni 3.912086420390299 9.363948561949545 3.109793980125948 -0.20362417128499125 0.726688112865413 0.3989627055224226
P 2.283307881755406 0.8437740607095159 1.9897251063627517 -1.4893716699888286 1.0673690519278067 -0.4423343876398382
Ni 5.011136786209438 8.192194420809372 4.720271448151559 -0.12564929727140942 -0.9218368996895414 0.8507721225322314
P 0.12143437615393687 4.006764132666969 13.246387843351608 1.4233179728928649 -0.70409608649751 -0.2346666424130926
Ni 6.018644586557175 4.20892993452256 2.184707049574336 1.7620492444280555 1.6083900922072818 -0.9530804310848554
P 0.8068174711429368 8.242821925006055 12.292693861090182 -0.1808539674680111 0.14152174552729174 -0.07113136872918717
P 0.5482627513918386 8.358878175438546 6.4072297526345245 -0.1125361569282191 -0.3195847805137271 -0.30063677865631455
P 6.299682123175623 8.928953920047945 0.5047465416104338 -1.0078215313814771 2.665962726869957 -2.2574126347694157
Ni 4.4128075079276154 1.20761761572272 7.393493909867024 -0.35035522892736437 -0.2924349595718125 -0.18465328660944327
