# total energy = -381165.3437634591 ev
CRYSTAL
PRIMVEC
9.35187382203759 0.00000000000000 0.00000000000000
0.00000000000000 9.35187382203759 0.00000000000000
0.00000000000000 0.00000000000000 13.68741264044824
PRIMCOORD
 96 1
Ni 7.229942856064511 0.4395483477219324 1.2488043157015003 0.3382345344044304 2.508290853945364 -0.30346859167815476
Ni 5.89142788699475 4.461002703878698 4.709058346381106 0.7424734007241278 -0.2741485025577989 -0.4987575036245733
Ni 1.4564982067995143 4.660085389737209 8.382103039287665 -0.9643174374512554 -1.324612551200151 0.406515578169016
Ni 7.279180470732167 1.14073219364597 6.6428705721869585 -1.0089458747939075 -1.1195501048067362 0.058781331804266514
Ni 3.649802481371227 1.520652059908749 10.230136139399765 0.4100673000760164 -0.6544041185890214 -0.5661754280579152
Ni 3.539076297579195 2.4773113248740968 3.703800199717105 2.1680901969534982 0.9763041774994865 1.2232087567396677
Ni 0.1834154919643571 1.2737532441745056 6.1338219052009 -1.1852263639586234 -0.9391399097443632 -1.7998747999162616
Ni 9.153997336923691 8.217294970287076 9.899064849861588 -0.7451221512008845 1.7610367440031411 2.4729351001538897
Ni 9.19739938244555 1.346632395381542 13.12075351939961 0.0916801394148163 -0.42609787117631776 0.12746783853738694
Ni 3.9929694842638472 7.120825194537026 12.801439405390433 0.5566268651375317 -0.07149877937093493 -0.976829453875337
Ni 6.620574770263092 5.787940053393177 6.549865253738466 0.8266878278895182 -0.9987265110587445 0.7216996585118861
Ni 4.16151830271687 9.048480146744172 0.673730485692628 0.0981328370186955 0.3838937270044421 1.5892870528292435
Ni 9.133787938006918 5.4668154166490215 6.66923256876562 0.5266143779358415 0.6076725188604374 1.7256298252587567
Ni 8.171713938209175 0.5698779290194423 4.234036471601747 -1.299891394304387 0.5921438270972189 0.03590005633071881
Ni 2.040990308742251 8.515816128464902 13.235659055517372 1.184294081952341 1.447224090086501 3.0740700750061247
Ni 6.2609765254006575 8.538644051998377 13.442038073182857 -0.380492414632377 -1.0958558465135901 -1.6299840163279733
Ni 7.874791950422263 4.874037554669144 11.371816613031926 0.1383034957003102 0.9758681184033322 0.9994068249552208
Ni 1.6156483922532983 1.9346595055568285 3.086511076950157 -1.0703908694732662 -0.9503491481966214 -0.858164815451877
Ni 0.9275440767896944 9.000028089461528 3.9007076397690263 0.768621262764089 -0.44515257381492374 0.21591610127846686
Ni 1.5940081566709703 2.524519582963808 11.288186547898597 0.5498062426712725 -1.33859112486743 0.5582975679717352
Ni 3.968065444784271 0.2490506818567556 12.180003661855462 0.6798948066609581 0.2461255349823116 -1.1563791007096278
Ni 9.335797760311959 2.407003938915609 8.038261766306244 1.4932386091434027 -0.8797793083978591 3.1253137036724494
Ni 4.935862791244239 3.9764727791786147 2.369605796264905 -1.019160353433064 0.659995753744186 0.8874414529288072
Ni 8.916244653600648 3.1012870372872694 10.601461633795576 0.7464521828662176 0.3646783304182558 -0.6052716227284285
P 0.033298281250836954 4.991758939937227 1.9864268020416929 1.5639406036446548 -1.8466349388899361 0.7168865533939589
Ni 4.773635839365829 6.644543622379559 5.723624412870125 -1.6320223869142407 0.629528181282948 -0.2600560290204747
P 8.029612218384855 7.886678181807371 1.1286561192261515 0.46804670480427785 -0.9739467330109033 -0.010070239751808463
Ni 7.083389644391797 8.419491830064738 11.158293699099659 -0.6175949201804718 -0.30655674368517527 -0.22772672076014971
P 6.11906184304896 1.0894278149058443 11.096261786117315 -1.5030414541664372 -0.06309487157795585 1.4051353884465674
P 6.836331846805825 2.3732623788546583 3.8041149425956515 -0.12040630370491522 0.569167935027336 0.14953844518418116
P 0.9839199765999569 0.20548965448316728 11.672022978838074 -0.22469204769888398 0.21241940097911802 -1.3612942228919007
Ni 0.8862116009023935 3.446838767955816 0.48468236024026906 -0.40696834943571847 0.8131818229832835 0.04290039890795192
Ni 9.347852325422426 0.3198761616144056 1.9289529922671411 1.1809637320275275 0.08988448096697423 -0.6977410908137596
Ni 4.0762946783168035 0.07644221506047892 5.531671595467951 0.09599290785755725 -0.16753385332033727 0.5552790928603856
Ni 3.803781080707022 0.9172252194251566 7.855165173232708 -0.8781250606238876 0.2985333591600665 -0.480919704112204
Ni 8.032081113023462 4.259684920222357 8.598021903244218 -0.46599573581252 1.0501115503989398 0.36051442884855334
Ni 3.7267777532286783 3.780831582816342 6.371435245606841 -0.7963084442667125 -0.6185323443930768 -0.05198282082519435
Ni 6.269252933564166 3.921296724755221 0.5882038605869142 -0.4631685507763701 0.6354370905682153 -0.833193747328836
Ni 1.3717702317018952 3.9219420040357655 5.2652741232128975 -0.020834677357164117 0.3956421257896219 -0.2607617968382477
Ni 0.9834523829184028 5.029082267598882 11.580344691257833 0.36050131622243076 -0.17639490325539298 -0.046698946718435705
Ni 7.633214350784106 6.7982510173800526 8.323999848417742 0.5920813492903997 -0.008189734899643959 1.540495228137521
Ni 8.218866085057098 3.267871962277765 6.527047617265985 -1.8355588835814323 1.5245523316550194 -3.172233765262756
Ni 1.684038644117414 5.901209946812863 13.827571869186375 1.0928196307904274 -1.2363113555598966 -2.144409822617423
Ni 5.698358455881025 1.734370427999907 13.393187626083526 0.12347054445253575 -0.3166673497566159 -0.6882601479065179
Ni 5.813891502719434 3.206271170669816 7.632128598255537 0.4363743134016614 0.6983730679708037 0.5415211198443447
Ni 3.2146691531905294 7.759034458616708 7.90624604219305 0.8750693045166994 0.17193121105708453 -1.3569130631050697
Ni 9.289786542047027 7.835336395572721 12.802863695744445 -2.574154546517709 -0.2095924730532842 0.6779040014831744
Ni 7.726686327726789 3.0900741408036003 12.744089975535175 0.03290934913351106 -0.6229577271542819 -0.08604736660907117
Ni 2.3918819592541465 7.016598562918596 4.1323666422340555 0.6557040683473675 0.5952420064065684 0.4885857052978941
Ni 3.4951318433867327 6.761760006471563 2.15393288658485 1.0244521979596228 0.38109970919907266 -0.5191008431676156
Ni 3.9856376153370774 5.211883341465678 0.446387372908344 -0.6646502217970618 -2.6139454532624016 -0.46569851628707537
Ni 5.245652957147521 2.3330306184937357 5.687051105473682 0.6130021586034669 -2.0284456138442613 -1.8398284574910637
Ni 2.5504803841636963 5.792933953912176 6.624967345307611 -0.9007268571838035 0.9855660624173865 -1.1367255881447584
Ni 7.9960483439228955 1.236027785946714 9.96877465109505 1.1353567328216898 -1.2095297165906782 0.6999697230339622
Ni 3.676483376840709 4.972082597817427 4.390648558552054 -0.35255532190247674 0.43876389667976046 -0.12240482219218274
Ni 3.777305926457424 3.14133176017557 12.423544219768782 -0.5505526339189938 -2.244539121240857 2.346509072617456
P 6.5529139645422 6.444871768482289 12.34374655244947 0.1849556483412105 0.9801888572658732 0.8089927246026003
Ni 1.882476050695381 8.65663664160176 5.984971873364392 -0.04334391420327374 -0.9822619377448181 0.33707111022394853
P 5.0258091118280035 6.4976350395088645 8.497980235075698 0.9323264863669556 1.51060101168125 -0.21264051585098864
Ni 5.959088692715642 1.0780465846968152 8.893396155945183 -0.9665764086887613 -1.0226588535046257 -0.9705590474855931
P 2.0458345792831527 2.476114285049318 8.750595851160623 0.9051828360726283 -0.49311213241333784 0.747586553580977
P 5.902248004785914 6.293558453131354 3.209027167828897 -0.6599476741150698 0.5233151383592793 0.8322326689671473
P 0.6578669024522206 6.381325787159075 4.964246662901942 -1.1626626197254943 0.4661512875537779 0.7506731629261008
Ni 6.238279528098017 5.906970700969611 10.256265274325013 -0.9167787684403436 1.2301319662220622 -2.3595651344704653
Ni 9.05656951743506 2.8723531707983385 3.614982650280613 -1.1138628246139721 0.6317280171477443 0.8679419494432988
Ni 3.8846934913631586 4.807311936311361 8.410203549174346 1.2999091349162 -0.5768905004825742 -1.7769235904367269
Ni 2.262171471991014 8.728945328517302 9.74064691611312 -0.2747552829038623 1.0943874894981798 1.1818265942484547
Ni 1.1999482574779925 0.29395650865849376 7.961187364588305 -0.3052382819840679 0.3888600698707819 0.24544959196120955
Ni 1.9619856803068554 1.3946542664771573 0.6594838414030348 0.14533829105990453 -1.2389950730396468 -0.09122119750052676
Ni 5.74431356290417 6.512093036142519 0.9357194847179879 1.5118698510913446 0.05230318027909057 0.200714453837364
Ni 2.322790316867699 4.63851996914393 2.6058509575586175 -1.3305461430757666 -0.7623539416981387 -1.1588262766985398
Ni 6.053767061356734 8.417873955926561 4.926647454968169 1.0174667677807252 0.026574150944102617 0.11332060050272742
Ni 1.7860769373061691 7.365975209902256 11.48093333937205 0.29955897221110345 -2.001360327591695 -1.1546569758121985
Ni 8.332884128367272 4.952686811906559 4.6489024192491595 0.6128692325700283 0.35549486414677484 0.10455185317116188
Ni 0.7177852919939375 7.103299783352374 8.37254916518615 2.036980133677834 -1.1925192980756107 -2.7727357560621537
Ni 8.481298362892572 5.3718751955462585 0.14364384378608394 -0.8651697860148003 0.5974886363489 -1.0662048564163769
Ni 8.033418430952707 2.669052789932208 1.494747369950647 0.1143860656527643 -0.4434931838346297 -0.3195701252257077
Ni 5.904146435133025 8.52028632406056 2.5402746844700945 -0.7555361474453569 -1.1331275863808548 0.33907991312386115
Ni 5.472052465882428 1.5672524462124398 2.1866326479232976 -0.7084111689330961 0.7172616773451905 0.4346789279771094
Ni 2.2170112742265102 1.7041545242978753 5.732302016412407 2.3423117467066565 0.31318016253896386 -0.5320733441678837
Ni 4.553969679645301 8.449978938102072 9.86282072841696 1.0266990850122706 -0.1694902057157597 0.15274075417156274
Ni 2.6205820289023007 6.258227074553118 9.626521326256187 0.30264018223958844 0.18500347086001043 1.2939991971896683
Ni 3.4220563028334436 3.772976008966232 10.256320450379436 -0.826193661861919 0.4613518092826055 -0.11376925800437179
Ni 8.332145330350416 7.856696074946115 6.244813682204055 0.4735843467930553 0.6229649262431336 -0.5041025699865705
Ni 6.465212093629897 3.0482899694199177 9.912574566509052 -0.630747912622662 1.1930224629642743 1.6871067294828945
Ni 7.370912999179468 4.786008368179752 2.648761094527482 -0.773563951481345 -0.3208075971772346 -0.9214509771050324
Ni 3.637158748222002 9.475785956695653 3.1584251147984657 0.22880761252915433 -0.27737086614983847 0.6024081851377044
Ni 7.99919057346294 7.623834421532129 3.533912192960111 0.5319067366830323 -0.7902483541155616 -0.30484773141386856
P 3.2291739091923404 5.13485195836644 11.94430652035653 -0.8436051724701472 1.6500201090432423 0.32380601768392625
Ni 0.7506851834280902 7.001504638878027 1.6945426685798473 -1.221238520387174 2.0184489076428656 1.732761808317848
P 2.3185726218600804 8.61201885250786 1.7810746201009027 -1.293978885474694 0.26274771692002497 0.31706304253313783
Ni 5.500482161720924 4.556008388096878 11.935423175594364 -0.09457957244979841 -0.14999455888499327 0.7080352736509161
P 7.902978497546349 9.2185346168518 8.372466868698197 0.019554525093159872 -1.0405326484612532 -1.4113183773288274
P 3.497423052426348 2.662927312703848 1.1684296377791508 1.405009404391664 1.2759868197726476 0.5990667794692973
P 9.091760617908829 5.7472219956034385 9.831613526110035 0.6269761042850557 0.38156250776810413 -0.5925675448981987
Ni 5.997674523317492 8.243255771486965 7.523710456875657 -1.1205965437933798 0.8045529436636918 -0.7082121655484126
