# total energy = -381166.8208411857 ev
CRYSTAL
PRIMVEC
9.24675777819161 0.00000000000000 0.00000000000000
0.00000000000000 9.24675777819161 0.00000000000000
0.00000000000000 0.00000000000000 13.53356468498737
PRIMCOORD
 96 1
Ni 0.5791318428304781 1.5319473634233738 6.587259927598701 0.2906791532229704 -1.5751711822531518 -0.8722086951394526
Ni 0.21237398671300262 7.979203054781887 6.946575992982066 -0.8091356779383677 0.572973167706039 1.0704569468245113
Ni 6.992000691020486 3.526944620723592 8.661116310045191 1.3545952136051704 0.1154985819906527 0.8906054524790856
Ni 2.6944775031657406 7.663185857802534 6.266013689043629 -0.08297309855912162 -0.94541545834043 -0.607215890938993
Ni 6.767480163168905 8.788654992000271 3.1407611756719453 0.7084409937297671 -0.655157194704962 -1.5769177326306132
Ni 7.451851206674167 4.8163865122374245 4.055454162916688 -1.1489283008585374 -0.8365472371821011 2.345684262723315
Ni 4.942336601190367 6.160828119564493 0.8529949200301761 -0.8944726487439756 0.777906287610441 -0.6197117094131586
Ni 0.7279658081611271 0.39604603699623264 11.350398059963545 0.9189040423134627 -0.5445642775460428 -0.6594349961447095
Ni 7.0757393302949785 7.070089561236154 5.21472574518552 -0.8838763612853681 0.21434644279850182 0.24010118316510265
Ni 8.430185929637839 2.431971293982488 4.57610396091993 0.9208200283892528 0.6926361654870264 1.6496053901033267
Ni 4.484585099573271 7.155104253096763 4.505160985186522 0.1560137684958797 1.0349014183174048 -0.1950343727334512
Ni 4.186229210126414 9.015246793614827 0.22293470887680522 0.007584497215477261 -0.7735251278236097 -1.816503666722194
Ni 0.012828027193628732 4.847085748367207 12.463574554248352 0.004203496558386309 -0.6022965992605046 0.5790170599072738
Ni 4.964750742268256 8.932331115790802 11.026431425242997 0.6312024836615775 -0.32013113993550024 1.9712074581573984
Ni 1.3229336485204806 6.114982694042968 7.562420238585458 0.9523291547411277 -1.5014214020645111 0.4167866210777209
Ni 1.6901501438283288 2.8860980665143803 0.009094186365554572 1.0219883098001628 2.7241725024414696 1.3705825901723623
Ni 9.23204627864461 1.4407188502738453 8.926752546767581 -1.1345226669561685 -1.6954085644803705 -1.662703875158498
Ni 6.498834106759696 6.650406961771563 2.7014208936506363 -0.06286861449976269 -1.2954019910744659 -0.4925043236260099
Ni 6.447671795462681 8.478398525174189 0.7624062825252803 0.0055587250347001035 -1.568153613284738 1.1018532017476055
Ni 3.736846024382045 3.9607192791826975 8.863618458055738 -0.4779840185226477 -0.02818880372939016 2.267015447966502
Ni 5.331375445072398 -0.06012704305238292 6.405301301548859 -0.1602828281848788 1.7795990803863608 -0.9172973599479749
Ni 8.76660147447933 7.285992110752507 1.8552214159794291 -0.5872805854676466 0.4233925564300127 -0.6006130409104946
Ni 1.587566612013929 7.205721005679422 2.982987444832178 1.361950625528977 0.7618322648667137 0.3856752443848971
Ni 9.118644040121824 7.035710115473945 9.416058609617473 0.3908207931415786 -0.866456623147024 -0.036946495317362174
P 0.6698675037855135 6.59840319550834 11.504084723824588 0.7508384848593714 1.6661689508889628 -0.2900777721935456
Ni 7.667892457558576 8.480802682220498 10.644730808406928 0.27093539493713986 1.0979422967289736 1.4229850150334784
P 5.925045040626744 7.380836106229369 12.578149281669107 -0.9022628342123559 0.003462247516987585 -1.6207406433528344
Ni 7.777817915122087 1.821047248241944 10.785913081599807 0.5146098972757976 -2.746855545861282 -2.2110685002872374
P 2.113494459409605 2.2730287729479 3.8823733490982333 -1.122064129477842 -1.2250126427176258 -0.06181986152027418
P 3.519713656068926 6.189234159742412 2.6188667640593453 -0.0491810897103411 -0.10777395965288537 0.31838278978582585
P 0.5394262645349099 8.193607629523232 4.941429494243279 2.3598297009857614 0.9454781932575651 -1.1661696044374885
Ni 8.271123200750933 4.850155671980185 2.066765043835668 0.5046615278138341 0.041363907658767476 -1.88937978605663
Ni 7.630406101151908 1.6422426913017012 7.0450058811610745 -1.3840443721042228 1.0009101489736245 -0.188457747957198
Ni 2.0286462091906636 2.686340356239774 7.92169654290998 0.6158159739031781 -0.417390573210307 0.6661026379728722
Ni 2.0812972485048147 0.6302765852875386 2.239954044721207 1.6200898971427131 1.1647195022545231 -0.20176192126527187
Ni 4.483706657575581 1.7267580582373074 3.339217867114184 0.7486520187310138 -1.3258189128034263 0.8435833180932762
Ni 2.9650191449383847 -0.1642483107006332 4.268865635862752 -0.9046891842656613 0.5227538665391706 1.5797294910477955
Ni 5.016375391458791 4.951694320155228 3.6370910758002055 0.5857914025166299 0.12924112838772583 -0.26975602991705805
Ni 9.14298150683676 6.40832684072406 4.2167472098019365 -0.8873944017409556 0.0397561968520154 -2.5263932199730297
Ni 6.431452982157972 0.8295516148013093 8.962075161832571 -0.02085241796897699 -0.4703074758139965 0.5410354384571779
Ni 2.31588749567728 7.506055701310547 9.472047728522844 -1.4757813328989036 0.8810057246057923 1.186707319379524
Ni 5.5760076712921345 3.104404773077042 5.044799000476664 0.945025679101179 -0.5205229203261229 -0.6866822618964368
Ni 7.313048124281346 3.5483970989829583 11.77762508917461 -1.0129611666008878 2.147226723240928 2.45849295658663
Ni 3.3636653702477783 2.0299130150189106 5.64334811015923 1.7251816819777448 -0.24606305717549237 -0.292917812745502
Ni 5.784281645565395 4.071504685228157 1.551136235356062 0.0977829098784445 0.11291770863735393 -0.5740625441154759
Ni 1.5317161944766133 4.803228375787821 10.08237073500181 -0.910702994559909 2.6397140775860732 -0.9794059563532616
Ni 4.201948698506122 8.947227642720044 8.915086837038263 -0.45122937613662295 -0.7755850956764321 -0.7795913886223477
Ni 3.1299905521044846 3.4634471344274425 11.439448961634591 0.18149082972106162 -0.766503445090138 1.247409008134955
Ni 5.953728483540776 7.513397627059659 9.512025161499803 0.44352840794793935 -0.32020004550022274 -1.746637794968992
Ni 4.207792649480226 8.451240797308776 2.4457859502408903 0.9618810600956208 -0.3950199188245907 -0.11377774264480406
Ni 3.4559480137945346 5.589369236414886 10.786305144133513 1.6560966542546252 2.668042235106805 -2.7389766573338377
Ni 7.297596791879879 5.889056658995084 11.153782398013307 0.5500859786952204 0.7927528657049702 -0.6550744051831686
Ni 8.69911863554103 8.151719816370246 12.965168633632238 0.3512054927428016 -0.3638373225741992 -0.22334607519395083
Ni 6.856905558533702 2.6195880111732377 3.0479486928992148 0.39272469503251073 0.2441635261599343 0.12411614845633465
Ni 9.361972473481831 0.5111034451778244 3.368341455702848 0.2897831237712622 -0.3930959623290004 0.5925960841432891
Ni 2.4374083876102928 5.302738235947718 12.616435482631568 -1.8564984619475768 1.1041841638736274 1.4532381574910649
P 8.638006812775448 4.207265584281611 10.062868397977315 -0.5928434242674048 -0.07008158730843414 0.5404795659537079
Ni 3.8188740134505093 1.8047452141163998 1.1329756522369416 -0.3270317237100755 1.3270311879439727 0.06848390380401108
P 8.086132562795383 8.74464042453709 8.464892710628659 -0.41555403422220044 0.23968260757044524 0.32268090294054746
Ni 9.214320243807023 2.129260181578665 12.65437030679495 -2.7383662774433484 -0.4922335864631264 0.12623036658586
P 2.768470059644813 1.4129508363889847 12.741323119105198 0.4162598020399735 -1.9267170890545078 -1.5263114804379714
P 0.9717047975705824 8.816469239674484 0.9121917392407951 -1.4316102948086442 -1.76528857730096 -0.4638496360037947
P 1.9494939618198988 0.45767752755413227 9.290562536475967 -0.013126767189945135 -0.3111834438239092 -0.16368234078473098
Ni 7.220654519640145 6.069312956920982 0.09939617437646747 0.6912012328127128 -0.7213211921265448 0.5197081377343115
Ni 0.7214412958077613 4.123508451491379 3.5934186383782287 0.49414005945721995 0.6469934279472469 0.5553801372146242
Ni 3.710400296872654 6.33349282927878 8.252957020238714 1.3578805692246616 -0.4169491147975142 -1.246481097004047
Ni 4.541526634539295 1.8256891206928931 7.977251064195442 -0.12180241272149346 -0.8867349137800857 -0.07845387053252939
Ni 0.32470730002596976 2.6137902939884867 1.9146336846484286 -0.40571442242395933 -0.015434075166883096 -0.29662277240091495
Ni 1.1102489707430319 2.711630239015363 10.22175266443732 0.08128748332658259 -1.1826076953888538 2.1340714168058925
Ni 6.970196835962045 0.8908012142591607 12.839699376088559 0.9197908157937901 -0.12279023055605949 -2.2560106122155665
Ni 9.065623130492856 5.194763844294865 5.924534619592298 1.1680133425144466 0.029194876396401333 0.6558074266944512
Ni 6.1586088976755935 1.532770324873841 1.2636009019691665 -2.8171605620344318 0.33161677197759665 -0.25050026701123956
Ni 5.452480232901242 5.3432112951465305 9.568961148411105 1.278154773958244 -0.8514845752182238 0.03541128961975837
Ni 9.220876195137148 3.96675741207208 7.911803436664422 0.7354602026310882 -0.46928057721137884 0.6385571242544358
Ni 2.8786451796708246 7.611940325684686 12.066905285771654 -0.5844161194356581 0.3176939912489174 -0.9557770040804121
Ni 2.507267643321289 5.360595199942914 4.864044302301551 0.24900208519915823 1.089611151155459 -0.30079310172852064
Ni 5.201708159455548 4.838393795969015 11.938797003531755 0.5873515479148981 0.015384452875870279 1.4592175150029514
Ni 3.7107146866402485 4.021082114560776 0.36656090017483567 1.0697437228075706 0.07794402077564641 0.6305810480274947
Ni 3.4450275927495726 1.8109128016159675 10.027694655714038 -0.07561408709088914 -1.7378032273964972 0.11747318921852028
Ni 2.89651916263434 0.4511160281692848 7.141729742512991 -1.5606141103745832 -0.42371960075212833 0.6213906397774781
Ni 8.025778974175173 0.16978619398922562 5.222318258072919 0.9344119081410747 -1.187365521788813 2.129363726917578
Ni 3.300519260750704 3.6431671203968565 2.9052638215523925 -0.7255020629771117 1.501841263210749 -1.7111689126384206
Ni 8.197010436419546 0.7297004999376173 1.421727858959584 1.6336930897484445 -0.583670242408569 -0.7634518027480077
Ni 5.314869982273704 3.6243962019199105 7.188379635969244 1.1285242832808886 0.561436370711033 0.2648264538259245
Ni 5.549164333194316 2.874040294251357 10.21830177440008 -0.8534959492212979 0.07316819665355785 0.870919544014384
Ni 4.790957928093779 1.6866086355639593 12.276729941339783 0.6196057799629135 1.2738108951672513 -0.23545802796613644
Ni 7.31846672439341 6.166838512180265 7.62850496773375 -0.02801576848663562 -0.2725456768470532 0.16362603362549885
Ni 1.3877256809184886 5.1903254005170645 1.186764967444941 -0.27148998188902923 -0.6071906941280123 1.1034066622776544
P 7.610636532824958 3.200478587350669 0.7370572204993207 0.9186024519126438 -0.5322314670123027 -0.7333917501378336
Ni 2.653366417673869 7.199202041380778 0.8221384890165965 -0.44087117283075045 0.47618887429543794 -0.06803550341268283
P 6.344394756808001 0.919183212866617 4.459431144138377 -3.0551997204641834 3.4739640340935654 1.5083086161026475
Ni 4.818790669283732 5.3503682857382335 5.906440563791467 0.5563545853127515 1.7591678091152023 0.17045359807029356
P 5.443982462418329 7.249005079270841 6.982873216326598 -0.13361148954127955 -1.6603168629835598 0.4885864766288424
P 7.497863073837359 4.070422814557318 6.526453247842843 -2.022925455356981 -1.517213117681129 -0.4276302486604442
P 3.232204213604068 4.3785710205889465 6.918493589329612 -1.5868720156298477 0.4762572656395282 -1.2202995535126726
Ni 1.6075858428033805 3.408872769476244 5.728041014845949 -1.7087543896596569 1.0659392614598158 0.12317358203740723
