# total energy = -381178.60418755736 ev
CRYSTAL
PRIMVEC
9.10205393973368 0.00000000000000 0.00000000000000
0.00000000000000 9.10205393973368 0.00000000000000
0.00000000000000 0.00000000000000 13.32177599051436
PRIMCOORD
 96 1
Ni 7.470574398316315 0.011318403942100205 7.716558313375143 1.5222126277782493 0.9169608025441627 1.7493976171023162
Ni 1.061882008444856 7.327481009998054 3.8131853064823846 -0.18124837469295235 1.8523245330755456 -1.088097799834726
Ni 1.758744352000251 0.3478541015646463 1.991019663780271 0.36707357012330977 -0.8318945689014382 0.2063665099168188
Ni 8.383319254697389 8.71426993208763 1.9940169701076806 0.4978277927214524 -0.027744517103119957 -0.4973806778817047
Ni 0.4884662700078637 2.6986133288054983 11.920751468852727 -0.9291694287952127 -0.713849566339848 -0.4877184722015923
Ni 3.3801387116512522 3.5151130679499283 11.82520720976127 1.3373323127596646 -2.281305382226613 0.368035934036579
Ni 5.456726783521337 8.069061744038 8.00616109081542 -1.386674096417586 -0.08842486570231223 1.5275654074497305
Ni 4.3679846142134835 1.361794682262469 2.8815136393596905 0.6418026277749269 0.07982401140717867 -0.2230822800096029
Ni 3.29281360717155 4.355023289554416 9.579502067457234 -2.245885865076738 -0.601887536747544 -1.7378016847346007
Ni 6.394866370098199 0.830080913669567 1.1780051010487322 0.8860558854351902 0.7203212901071208 -0.496495447063274
Ni 8.637494108001087 6.448604895931862 2.193137140593375 -0.6676488994140696 -0.31134542332307025 0.10824884240677486
Ni 3.8688097778703723 7.457995359918259 5.99169544656514 0.21545638803322897 1.0278267708588105 -0.4047754555494577
Ni 9.06571843471117 1.6722384323655743 0.8408495535601168 -0.30412396587396656 -0.76807130379789 0.29907509059614945
Ni 6.750893205800048 4.662836546099607 3.520079148521549 -0.29577019459263254 0.572271256543008 -0.0996598151861832
Ni 1.199769021970289 1.488003760719374 8.427728175351598 -0.5348017988426402 -2.9217404402300517 0.4949041913167541
Ni 5.560699544462722 7.103934567844471 4.03972177332031 0.4718177418109358 -0.2400001388108641 1.5116412800203063
Ni 1.5838210814258387 4.748514178835424 11.44091394587913 0.2067416338680504 1.7500882154114379 0.1855338894421837
Ni 0.09518563817041181 7.058387890461062 11.811326577665007 1.7010451939408575 1.5792037004513124 1.0223459502498975
Ni 8.420218980938865 1.2733500251612322 10.162516831867157 -0.6132867797234212 2.5053384561852594 -1.9690315335520021
Ni 5.009142388307156 6.737640615418305 13.199029345959476 -0.0013855674936169686 0.6223835998183668 -0.33569891246677025
Ni 3.512619105199518 3.5559357793936917 3.1693305938378127 -0.2966579965142246 1.1637028880645506 -1.0087065050895918
Ni 5.810023003073102 4.386725743056897 12.549552294661883 -1.7846986063964556 1.3228683148155347 -1.5125167406467241
Ni 4.237415651970277 9.118073448362123 0.9791716452587967 -0.5070218005158945 -0.4682356808866323 -0.5930804799788754
Ni 4.01254941201082 3.087134496693353 5.368156518077197 -0.9146329257419344 -0.42904872627452556 1.9112017670277277
P 0.8469133418240712 8.472965382904663 0.13712335120879277 -0.10302358945209354 0.16616191267347513 -0.13214364674650145
Ni 7.747668223173055 6.456824050543616 5.778720129733917 -0.9101504644905487 -0.7193512128843675 -0.6251465072754846
P 3.5920436269516425 5.730361827921304 11.738216150657262 0.22553665508736642 -0.1082652974670071 -0.6886535266901946
Ni 1.2559560002851942 0.19382277515453045 11.051025649505466 -0.32304085738312754 -0.6436293965710206 0.5466823523303102
P 4.359874684247733 3.3396982864685008 7.825370636339859 1.060367423798993 0.7572101927136701 -0.5535027176862531
P 6.7125098447836935 6.634541651644947 9.186563672843926 -0.955450988199561 0.3464674638371839 0.15606287656626025
P 7.58610676762639 7.948850919057447 4.077982256609911 1.2787641254074686 -1.187990814077638 -0.4204612417158307
Ni 2.9980982060929313 0.5352690308203119 7.022694186352541 0.09976960129117012 0.31128551661941223 0.037418549857774264
Ni 8.887263567249315 5.411607902668108 10.312213760241704 -1.670740629420045 -0.09405121075015416 -0.9472406844746267
Ni 8.63548255410386 4.855053718957889 12.675229813174903 -1.7462649850106056 -0.3366957291624008 -0.9030966429675609
Ni 4.562431790261 0.5435691937111853 5.162440999383666 0.0860764200747937 1.0314180877544947 -0.39233517290357595
Ni 5.105078035713457 2.0131649607574564 12.63983374622674 0.05330822450483722 -0.8747602579167127 1.2973871398252945
Ni 6.1448693595041295 7.500046848629561 1.8265218856668815 -0.5053158735683814 1.6565275711444567 1.564361236121841
Ni 3.431292254196168 6.822317022232424 8.14051104622111 0.3670136634196518 -0.18368706604143203 1.7780587324824348
Ni 0.9506367064904138 3.571691434579679 8.986763578936861 -0.7967123645733505 2.5645712737046478 1.0006833776747992
Ni 7.968529559445723 0.3723604713062713 12.138255967671556 -0.16389548523680159 0.10579600999090812 0.8303292812968474
Ni 5.915606827543036 2.620636033612919 4.507928691905314 0.4611713178406832 -0.08042976331197761 -1.3760572401336881
Ni 8.444730811912791 6.290129036634791 8.08081613635873 0.4152275041207171 1.0928988207677952 -0.6228343142025402
Ni 9.122533454740596 0.940870202726945 3.7833178270327603 0.7088544271181018 -0.1586290946315397 0.727028012703335
Ni 3.547652910405102 5.171941723175192 6.6530279229810185 -0.481495631220332 -1.7256858753076731 -0.8659773695177603
Ni 8.599210869576904 4.144283437144729 1.5634834523400094 0.5360359283600574 0.2663634592957413 1.0908236834063214
Ni 2.390062805899785 1.6379145873590124 4.220005243397338 0.3049150943166942 -2.0382386886752832 1.665011440245752
Ni 2.954590388768252 6.080108246477959 4.409801269935878 -0.12198084728088668 -0.6137819741922848 -1.03488779147065
Ni 8.375673529477153 8.160946977488342 9.78932079201896 0.00826069734689545 -1.0142837420670532 -0.288913062461483
Ni 5.626944292263771 3.5156773952876126 1.573488429913919 -0.3116351866493472 -0.6145317078741158 -0.04628474199915254
Ni 6.912136089462536 6.973975443208117 11.363034952867952 -1.3378002535350186 -0.89232192094956 -1.596791845846721
Ni 6.198116374430777 8.272711096511301 5.947440350620721 0.7018800526827976 -0.18978752251221506 -0.6245962911989694
Ni 6.81520831818837 5.522680265599712 0.961995159469382 -0.26615391438809644 -0.8236513550560396 0.1561559505006988
Ni 3.6234093044622795 8.284006745318816 3.499431139399993 -1.1176883690076493 0.2044718639972672 -0.40661405142009327
Ni 6.450953225820934 3.7862450475456506 6.504450547228005 -0.22004426451422746 -1.3404335773928076 -0.025235120417704926
Ni 8.207868065000628 3.059901151623177 4.611252476408361 0.759061644100112 0.34649008954500327 -0.5227163284330159
Ni 5.206520425689096 5.163595139809768 9.986669702828632 2.420432402269483 1.3986595509142365 0.9389105673423764
P 1.954502223799808 8.683241030568837 5.283908817998641 0.9977664611383203 0.305652486703351 0.03378352420834827
Ni 5.989051299926476 0.43714160885087566 9.848735358623264 -0.08459032244757045 -0.5280169147103229 0.7258386203809242
P 4.745037194270983 4.990128197848734 4.590217629998876 1.2420798826125576 -0.4435294363892039 0.22619794282044917
Ni 0.598951550467199 1.876989133352743 6.119651209152716 -0.4909418642348964 -0.5157234420549505 -0.6268313511770752
P 1.9677548141815513 2.1814710381948306 10.46929063386455 -0.8665435264338753 0.9513727043651294 0.5577000435970525
P 7.520435449216858 2.5566576972164397 2.326834478739195 -0.7098221903480099 -1.5104961106722696 0.9928636245200642
P 8.193122737790173 2.409441078511551 7.8298734223713495 0.4110756867358727 -1.6554361378524909 -0.6650104333499579
Ni 7.495213658043911 4.143973967314386 8.824317403757568 -1.2454624259315454 -0.1448775493734021 1.0529577615984833
Ni 7.3035244043079794 2.834124706280358 13.094079934641746 1.0293426932827048 -1.365197671711365 0.517531956018599
Ni 8.767262089506936 4.352447408319503 6.8411582736680066 1.4365498982021068 -0.6571418292351586 -1.392752441401182
Ni 2.286417718896411 1.3637698279443633 13.131061579367724 0.033480134035316536 -0.32379059106495856 0.3029996224615362
Ni 3.0554229411370386 8.000987483416393 12.534738702047672 -2.426012210350106 -0.6581615287489245 1.2167365187517625
Ni 3.6039218072045096 0.819251290018332 11.259045808229668 1.1253425431187973 -1.074443699386401 -0.24078921037106274
Ni 7.462027569766551 7.551136676797642 0.066459556271523 1.1491159913893112 0.6143121356641421 0.8816883524951137
Ni 1.5898466410636916 5.121543651098467 2.692597781426862 0.5589601412563986 -0.05807916353091933 -1.149071511304621
Ni 1.0673796489603593 5.9270208030503895 0.4352902511011184 1.316978688803977 1.403693513793718 0.7043722229770321
Ni 5.485234416128219 2.6966472851774372 10.359292313285312 1.3615783297912227 1.4097728872185786 0.4877369841443535
Ni 4.720279607843551 5.738016655195374 2.4938498849429624 -0.8153654608981634 -1.0079377452443672 -1.3033610980205423
Ni 7.385215337464674 1.1547411616553958 5.750916996093756 -0.4017901476688887 1.760312721352923 0.2770937012290518
Ni 1.5230648720864588 3.4808347332125344 0.5821054692319444 1.2656787529784201 1.032592824788886 -0.4926321074531258
Ni 2.3155078829486446 3.0076189544028926 7.1064085060764475 0.8607652291892014 1.0588977812320022 0.02711022595323073
Ni 5.345818257558739 1.4428302675431428 7.2483113457532715 0.4985127346036189 0.32211166070063885 0.47529901549131687
Ni 1.7748003749627477 3.8972172878850846 4.875597054460357 -0.8171631762285346 0.07986154951333342 0.35826162825863456
Ni 1.0077794004578486 6.248687385530341 5.901986514186414 1.0423925844881274 -0.03411905317089608 1.4309850025198192
Ni 1.1837038969539586 8.060114425119556 7.733330667974345 -0.2208099390356584 1.2082084266760935 -1.0511970701536348
Ni 5.789233912117126 5.7804231240061865 7.283747461738302 0.07229427868903679 1.137362964618441 0.8368909936747653
Ni 6.780848064966474 0.7032228587743252 3.5508395394522507 -1.4191425013589365 0.20698048935173385 -0.6536548991278226
Ni 3.6696477379370434 1.8485816233380306 9.291126246873729 0.05634958243432231 -0.355185303326156 -2.915358447963108
Ni 4.388764603115627 7.537729351500726 10.760344278685904 0.7852383024954799 -0.11304009314783113 -1.6347027619598813
Ni 1.5151551873050473 7.048521264105423 9.705659264207288 0.6208849037856532 0.007039166234968522 2.5761332675106345
Ni 8.953280763704525 8.552499129302792 5.818725476743421 0.06630875052956323 -0.48161724439986087 -0.19999068829746203
Ni 2.903436846223336 6.985180071477297 1.589127578810836 -0.24959549580878304 0.94434819341818 0.2867901025812093
P 7.441384111671912 3.800708211087265 11.168004335169702 -0.28193663114365 -0.5027409137523534 -1.3775914173900274
Ni 3.4324755211945384 4.968519922047732 0.4354677411508739 0.25559927880070177 -0.768035051243316 0.91234464392839
P 1.5160016783115737 5.8325778924728 7.986911157162708 0.09780347870373479 -2.2404970899609995 -0.14051258753648702
Ni 8.988933508570796 5.267686227450989 4.173512862620616 -0.759907279929859 -0.9142184639123353 0.1405580960624418
P 3.6289888634622853 2.5915640736683527 1.1570640057937343 -0.40775639255465257 -0.2711518818233201 -0.8029233784800688
P 5.738280614756549 8.79826368486423 12.08030592152908 0.10888467621856088 0.7579694394771979 0.7065998267559702
P 3.287834783724563 8.701308607428562 9.087475984195045 -0.24199325798149293 0.55019293658673 0.34246528465632636
Ni 1.1829575285396021 2.6826938366505058 2.710515174398333 -0.5937913900029709 0.8350742521810006 -0.0702556509924532
