# total energy = -340857.34224936727 ev
CRYSTAL
PRIMVEC
9.36572219970992 0.00000000000000 0.00000000000000
0.00000000000000 9.36572219970992 0.00000000000000
0.00000000000000 0.00000000000000 13.70768114098351
PRIMCOORD
 96 1
Ni 6.729505542768036 3.0533378254185917 13.622172268530564 -1.9503995202731117 2.101029141638943 -4.040655225445635
Ni 3.030860092141888 2.7541030011724774 7.298037660252355 -0.14209253042909722 0.7644329357143546 -0.8184032192832228
Ni 5.436155501470923 0.9334009863261855 3.825032125407733 -0.6671411065397156 0.42688205764051 0.26861471722376323
Ni 4.324959391214892 0.7371581993817069 8.302262237844554 2.5594192971900633 2.526539772853223 0.5023292801362316
Ni 2.833730371305199 7.2524687388949385 11.038151719057364 -0.06673298255117541 1.6727324630390932 1.1966202076178616
Ni 0.7250848468954576 1.0503376474093553 1.406559144945231 -0.2502346720546787 0.5400807878533925 1.4323271183700106
Ni 3.8644842935972266 2.049126359837471 1.6860173101967253 0.6192720507725786 -0.630192040119192 2.4258882831777315
Ni 9.386701416351327 5.955887523439298 13.350925031930606 0.3334491972006451 1.991289059398622 1.557544213200008
Ni 5.815710759292456 9.096467051138093 13.175891859477137 0.7331559799779438 0.30308446886585866 0.8569741375778853
Ni 3.5882048544599465 8.356031785559088 9.33547934507482 3.3445303300790594 -0.3549631600130209 -1.5744875259225657
Ni 6.423639787205296 7.955066486791495 8.031467365626789 0.3549377060917242 1.0951076554936559 2.323658907492159
Ni 8.596590360230806 8.582532411210668 4.771931927138798 0.17537417530036248 -0.24266457301690467 0.9884156160510397
Ni 0.8645985179106362 1.7228152327151285 12.640785067947498 -2.096262830598551 0.1394134409350373 0.03552878903422913
Ni 9.166747430516587 9.121258117797858 11.34873967175265 -0.1329617717724226 2.876633263478768 -0.24453247946357884
Ni 0.17440192277728186 5.82871038170415 6.199586424764217 1.6997131053929952 0.7475132771408803 1.0405832991935304
Ni 6.748255718609688 6.132187878106241 6.878610649886829 -0.5542367676388004 0.302363274429118 -2.631833389286416
Ni 7.77747366246114 1.256261781390554 0.5204316414166125 0.7292062513015763 -1.7217137780338028 0.13478571235503883
Ni 1.7144610085139536 8.852377599197492 5.343020886783341 -0.898849951876065 -0.79213657227721 -1.995761236237363
Ni 8.750431713065444 2.824495769217354 2.7547501725764025 0.6636654892862892 -0.7935110840272334 1.1572141950164134
Ni 7.342192357557779 1.797431941471585 5.312562621621189 0.297256806440488 -0.030162382515993215 -0.7637302532203749
Ni 6.3343376260413935 2.6353737408604907 1.96451642549508 -1.069306635270152 -2.1793886526854527 3.19441595778675
Ni 3.3539681422723002 4.956536867679264 8.754547947971739 -0.33822990641874007 -0.9750451082814047 -0.8992883249650642
Ni 0.9595088735270765 5.047159595673173 2.304425644677608 -1.503273110561269 1.1612104606600002 -0.39984382257579526
Ni 7.594420622088987 0.48060578091139333 3.2021694534491836 0.2705808398111985 2.6036805810012837 0.8438376001959274
P 2.572698327907283 6.623354447368805 5.367488836027253 -0.5491182154653124 1.245118155218249 0.00513654989561696
P 3.7965547104905895 1.1100253949812013 6.01867251534223 1.3232681213571147 0.24150500549116474 -1.6802143732384351
P 4.928205558028419 4.651720073002769 6.6851813258908175 0.36903197940126126 -0.2536359844267438 1.2796125894506931
P 8.66870642116023 4.436926600099471 10.133184128753987 -2.1923616679063533 -0.2667462965564567 -3.2260796074386184
P 0.3902668343001026 9.122728536183041 13.533511659337268 -0.2186748949705266 -1.8206367150539613 -0.9535239463801773
P 1.4039592204628926 4.625711462457184 7.529999438517955 -0.20148089968974334 -1.1946525423685297 0.5085757752665758
P 9.13112958899521 1.1522648020970065 6.325888808046012 0.7794983146879092 -1.573905942387483 0.5407850130092686
P 6.5770034882078034 7.671360029950702 5.197445720361212 -0.7847446506885131 0.4022262067650428 0.786964026937335
Ni 1.8880172065766994 3.1704561815124146 1.6618368886243116 0.8180985435586106 -2.319097513373722 0.5708044421894943
Ni 7.678936899209392 7.892241222283108 12.441900210770786 -0.470786472332944 -1.7708244195175245 0.5136264503166058
Ni 6.76289434240614 6.775303924319321 3.158867036863834 -1.334357546402057 2.3191404507965157 -3.85705531980137
Ni 3.0044300240973643 4.47096163456928 5.180996702463765 -0.2134676397379743 1.160764888482149 0.9092508354944148
Ni 2.971294098958624 2.173962071022962 12.2341188540776 -2.3873019382641014 0.8808936245079604 0.18209863850838962
Ni 4.661647738533313 4.222919847860858 2.728034450004821 0.4970047825995247 1.1255713713001518 -0.345317923613773
Ni 5.82871038170415 0.22425285232391062 6.407353732874105 0.57262709722053 0.4926737593243386 -0.8339699633732284
Ni 2.1077276836342764 6.804506246134637 7.758080998076664 -0.14064782756277067 -0.706829426268273 -2.4402160126543135
Ni 4.125975257382876 8.064102224627902 0.9676991975897753 -0.016631437909093938 0.7271483403312832 2.439698449587947
Ni 4.51835218889433 6.6110572541220085 7.242603823703125 -1.2410141603522047 1.146423789269129 0.07946868495028894
Ni 2.072418910945455 7.484204803255551 13.397216050469538 -1.5787319030212166 2.7205570171760693 -1.3076016184644512
Ni 6.741240792682916 2.784335552429644 7.547791500978685 -1.921622962361052 -0.5563322167152485 0.20276310883627657
Ni 8.867962160936006 3.5273089287244774 0.5068607099508028 1.948138492153077 -1.817165211565593 -0.4611744031644767
Ni 9.287668269823053 4.17749609519752 11.98687409032828 0.22807870478292974 -1.1699876926319979 0.4424693705558057
Ni 7.963486271048059 4.130227295261053 6.059521112711539 0.11807019937257086 -2.4587742352724753 -1.7497020357166124
Ni 2.705757143183168 5.906576996063529 0.9134566809042106 0.45538890683095123 -1.7040163607540395 1.5956507902637422
Ni 0.5708529434451376 6.5592929075302004 3.9160107508451896 0.6886177883562528 1.0674238164251424 0.817212027188599
Ni 6.316392902308825 2.7179044848747864 10.18129771683277 1.6889101012402203 -1.6474914290841176 -0.18709943415709068
Ni 2.8387129355148684 0.5246799330059094 0.31165751817037163 -1.5207584118302262 0.19086095808205195 0.37859751160250926
Ni 5.52535463969064 5.70010965019481 4.62035239621513 -1.6560948544824123 -1.2774461779269937 1.4462504133193221
Ni 2.426415112886937 0.23378715752211232 7.299326383626886 -2.589474978924863 -0.6891404936289421 1.462223648819127
Ni 4.196920603037471 8.34189891076136 5.320608713562028 -0.3394943749534605 -0.8916824875933482 -0.6269010280727462
Ni 0.3690160106314193 2.4254785406670742 10.044577840749442 0.05979048979507122 -0.1367628906860677 1.4673236890498536
Ni 0.8753269526891627 2.9765670005564506 5.779158218695657 0.18058245897417932 0.4032096537242346 0.7941975685712966
P 1.409307047838308 4.177580386697308 13.651575953373152 1.5971433156488686 0.9800788140505701 -1.2953001753892788
P 7.608169502276571 7.652890825775011 10.034516245391458 0.44729044609353286 -0.12596862828404112 0.5481782201495463
P 3.4190411801083567 2.557394737834727 9.372202341815635 0.18570898156746726 -0.4108607425115892 1.6650646620811904
P 7.578171094074371 1.6830202790931648 12.058715735597284 0.1850554071438684 -0.4080718669125423 -0.7422355736817089
P 1.420686400309639 3.5501238280003315 3.8203989026360725 -0.03735375805810986 0.3890847842870783 -0.7201695950206048
P 1.649191290511726 8.09800613898693 9.204172856422298 -3.9329236889949106 1.9384058382463456 1.125259496486688
P 6.841013831264884 0.7272960939065534 8.26825436396912 0.42102328486688784 0.910289046950942 1.1468251384726056
P 7.095836400845109 3.6294046664117037 4.0420527670498645 -0.8976595311123895 0.5378277301531575 -0.3878971917368803
Ni 5.095374333551702 3.1257535894583706 5.292261482183447 1.499575607105024 -1.0195524466651602 0.11011752018439745
Ni 4.455283415608779 4.767358644989209 13.47430811960309 -0.1609618565297744 -2.9654507366338088 -0.2971233661864173
Ni 3.4914944070369303 6.730039388933359 3.3574362692024518 0.40232056625106194 -0.2713951081823777 -0.25542572933731494
Ni 9.187136607742996 0.2587252660203948 8.634961724078579 0.12333144777151019 1.4960120581234815 1.4279883817853405
Ni 7.446685720127854 4.578142959410361 1.6496370988883808 -1.7573744646602056 3.4873787648375743 1.644977404413012
Ni 1.9082658979701297 0.43120815231917814 10.62831895451211 1.0227403574748386 0.5064003648818117 -0.3486832405415802
Ni 3.432462260018988 2.6610451854069255 3.8802608526408133 -1.6684916854848681 -2.510558052712986 -0.3048870692922362
Ni 8.958669180429704 2.686988235897121 7.900395020029231 1.162756207880565 0.20740060760828796 -0.1959090620289207
Ni 4.883961886362108 1.2723614578499929 11.795446221166117 1.5479324011418567 -1.3836522788721266 -1.4023205447055915
Ni 3.3850717056939383 0.06738168835801767 3.1360024992603273 -0.10022622921261448 0.5544008040204903 0.038069553178211854
Ni 6.513831691978068 4.944773520597789 11.169443222554365 0.030711570151243883 0.568916224027846 -0.024926588038350617
Ni 5.4938858131032555 7.526959325092281 10.833564073633907 -0.06696052518094919 -0.31608808021437823 0.27875206276808123
Ni 8.993322352564622 8.056235017981056 7.142853262854435 0.11067853489419002 -1.2446867241077855 -1.193151275232655
Ni 1.3303540097038875 4.920872197546895 9.940605212333612 -0.03242572462887319 0.07021451334187262 -0.5176733666924698
Ni 7.8986099133781735 5.828635455926561 4.6879719739169925 0.6927194692294522 0.12746629587549016 -0.39566372305617664
Ni 4.5153832549573645 3.4523925168576652 11.350947172474868 -0.3101804564806916 2.9388886698745647 -1.3138905367969567
Ni 5.580837177995304 4.47320940789695 8.9301842729348 0.3428368090631322 0.9718003760918618 -0.8511883841340436
Ni 5.245694174839656 6.801977501141008 13.251228792270668 2.0863108615921617 0.17680370865803743 -2.3407246047251946
Ni 1.7342414137974527 8.075940497486966 2.5030089255995236 -1.468942455600199 0.05783208051711975 -1.3776253559517564
Ni 6.74571760789386 0.2856826242247012 10.533873138716721 0.3099104906487566 -0.15825679889378552 -0.5088583395040011
Ni 2.416346961523413 5.382948833660525 12.020690903470863 -0.3638010700196251 -2.4730176325653668 1.443712734499133
Ni 7.959440279058253 4.908640564355489 8.048889482060673 1.7754107533366261 -0.6423782977727388 4.403855942877099
Ni 0.46731956740042196 7.112245146137104 10.772674703903977 -0.7105991777233505 -1.7267863074607033 -0.15585924519588643
Ni 8.197498205902939 8.560345015322122 1.6475260651048103 1.1421876397005943 -1.64534481505476 -2.489845759866299
P 8.560888227209643 6.525660599114934 1.9824733246665065 1.4878909716782438 -1.1849384004045593 0.40297568333655764
P 7.35398380180585 5.201478600339941 13.115234759657731 -0.12704000697134893 0.5009689094535953 0.6411899338915924
P 4.201078983693661 5.676124035644127 10.629100055743475 1.3319841610738739 -0.9334112347907022 0.19719744182304103
P 4.608469167889512 2.4143988913060994 13.62465324834098 1.0027420599760408 1.3886497320867182 -1.8898664958850613
P 0.7156760423747174 0.5598304249895741 3.520420440047388 0.03278979283651127 -1.1079803976912659 0.1050143946298772
P 3.681169013003512 8.838666181898704 12.419967562526042 0.6495555322474684 -0.9298263456529212 -1.149100050549711
P 4.925761104534578 6.027600858314179 1.474083192280668 -0.007045336882555608 -0.044532278084420084 1.9147128655047798
P 6.028902693699789 9.344284060513749 1.7511146989104978 -0.4298010310595179 0.29333201746478516 -0.27962212407786036
