# total energy = -381175.2893456193 ev
CRYSTAL
PRIMVEC
9.17559613340114 0.00000000000000 0.00000000000000
0.00000000000000 9.17559613340114 0.00000000000000
0.00000000000000 0.00000000000000 13.42941242470462
PRIMCOORD
 96 1
Ni 6.183480181519897 9.38287295512043 6.329416204536551 -0.01737628649491846 -1.2018259201885173 0.021807068572762444
Ni 8.232932181229208 1.5217634601685601 3.9547737337412414 0.44254521809906355 -0.1509931753528367 0.6765719129353122
Ni 5.4917319812768595 3.1155369995983935 2.8373393446358155 1.7778548440017445 -0.32451718481833786 2.471968365365246
Ni 3.0275613828862262 2.927850178588029 12.324440650081495 0.0023738995488152667 0.8506075719299093 0.48974450149268556
Ni 3.8280587497200664 5.053019198438015 11.112905933776275 -1.2460985168536474 -0.39308079282034886 1.5386730873271177
Ni 1.7477492198685973 4.753399278942907 6.303618098159003 -0.05026686657535214 0.02300211732212813 0.1765838793377475
Ni 5.907542475910282 7.5615354534379415 2.887068323556855 1.7740467831095639 0.36366582999334146 -0.6195551292306363
Ni 8.013103246603626 3.689094344723637 7.8579925449104495 -0.4922279300361716 -0.7740771436723379 0.3671141935532581
Ni 3.632416686772964 7.09241474467251 2.592158237609761 -1.0417577791176058 -0.030126129961419085 -0.5169915101340968
Ni 3.329612835383913 5.166291933973236 8.451089322220566 -1.0250540932096797 -1.2019251647705431 0.4512941679362873
Ni 0.6038579165758682 2.67018108508458 12.818588715140637 -0.5668009774570562 -0.7755473004599611 -0.6083191513055007
Ni 6.711177896656884 2.8649147640043044 9.678685002177536 -0.6098906095576787 0.23604398237659346 1.440809187699093
Ni 0.4525376536878446 1.829879981778339 1.924931818307822 -0.3631315547564262 -0.4758916547699933 -1.3104483438846268
Ni 5.380376945354993 8.079305173447418 8.190544596856709 0.2936665179860684 -1.0195354773842957 0.8485401478779192
Ni 4.083589929300493 2.544796562517646 7.085385320395999 0.20440372976349314 0.049657772236443506 0.538544296604208
Ni 5.957650406955875 6.854491534269247 6.167283419043852 -0.12858858240539145 -0.5168439288126389 0.227091401168996
Ni 6.765405670412507 2.3888114265031666 5.98950440684928 -0.9222870998530827 0.23089586251675073 0.39657157958242667
Ni 1.6072983682819122 5.033053101028162 12.960403977887639 0.8652800863404195 -0.6016458530503831 -0.4830886867390648
Ni 6.274896646820619 5.29300691799441 11.569102815243095 0.517879826276321 -1.180395261118567 0.5207540625003225
Ni 7.035186550947667 8.244053003867418 0.6309378537476055 -0.40511355561516676 0.9877527856560603 -0.5204285608401037
Ni 2.682834232294225 6.923446139983884 5.1484334710188255 -0.013984487204550108 -0.5695039782105159 -0.14814902103582228
Ni 5.370806798480692 2.978554523388971 12.092729318330102 0.935598215139692 -0.9571535727129645 -0.4765249174786181
Ni 7.803092199950718 1.537288569000119 11.516271567234615 -1.3256294225004397 0.08398225654992635 0.7841399272249786
Ni 8.808453103948988 0.213773041109727 5.752152836091528 0.5193124449577895 -0.4537274599681283 1.084305165561513
P 7.737569267228401 3.6900119043472515 12.11431032067752 0.21214249316864753 -0.4592427333594027 0.39638774570639473
Ni 9.032511988439433 4.246401708914666 0.9830265851998666 -0.24640501389594335 0.1281131854308697 0.27974733680181496
P 1.9785429919963748 9.431228347284918 5.588381289111054 -0.8224241675171579 -1.4241445825592183 0.29017084612798416
Ni 7.611524101732464 6.528161454130719 4.325667849679483 -0.30475542881037837 2.6118284069193987 -0.27001365445381886
P 8.6975751990314 6.582646144580953 11.376861228261108 0.26686431019155976 -2.2091517428804988 0.2948690229346019
P 1.7849195602212244 4.069404457519411 10.092834713892218 1.2167583731286333 0.7729067775133206 -0.029573342781742614
P 2.1648259467826088 8.428638473349963 9.918614915477644 -2.7258761153961375 2.61274680496861 -1.0902999496923673
Ni 8.351765328083534 8.58467866294186 2.5684154647891098 -0.12450747035748234 -0.19844571240784534 -0.770656548026563
Ni 5.727260361062488 0.35122622540606335 10.147143232894717 0.6895845231448963 0.9528893981199718 -0.006626761287898264
Ni 3.3601400440615703 2.32942696766283 3.0750533514448937 -0.789173375883828 0.0018949030298677043 0.024568947588615754
Ni 5.542610662406289 7.419111848660484 11.858090971379381 -0.28567347247826286 1.1337870743417247 1.6420833706946687
Ni 2.135152068554913 1.860682458343081 10.431940894229955 -0.013316514603248035 -0.14217094907551645 -0.7501810537810306
Ni 9.153565629582907 2.8526286406441046 10.214249873527393 -0.7103469525032282 0.8135086101950828 0.23384774605622305
Ni 2.6751817850332795 4.5533896321873994 4.130296466821347 -0.627622479619803 -0.521554961135063 -0.28300158207305454
Ni 7.016624319761944 7.635463232312569 10.138400724800919 0.15984111266176987 -1.505340534613259 -1.7694442513405462
Ni 3.057134329555325 7.032149428593503 12.75956669235163 0.5062486697952959 0.30783663883886336 0.5227618369589707
Ni 7.899830511068403 1.3498861914730753 8.130609602242204 1.0369127923204788 -0.7160386035713668 -0.8896356323666484
Ni 7.8428592340381735 4.89038175515233 9.684164668249762 0.6713569443932761 1.7550743557721193 3.223776413226738
Ni 2.3741855261027496 1.1157708535078128 0.4163692884442047 0.35432398376712526 -0.1297355515256411 1.0764471029696752
Ni 2.0934398080653938 7.429590379562163 7.895473937975481 -1.0560068328374523 -0.30314360423856823 0.8481814789869199
Ni 1.7143408739727901 8.156325128253627 1.7111358382075044 0.17826975168060266 1.0864695202026835 -0.5553893931860048
Ni 1.7832496017062458 0.679730004292935 3.524468549733578 0.21539416733672578 0.12410277871989593 -0.01563899208883758
Ni 6.504442537860281 4.009790608773172 0.5608996101174804 -0.423009204948665 0.5856623331379333 0.1099534838027074
Ni 8.128431315695742 5.275307192854886 6.204925385043018 -0.6178175777142392 0.5673367953558681 1.7395916867554877
Ni 1.9416479195308323 2.268464306269877 6.201393698051725 0.8357455672164122 -0.16238676190175902 -1.2553076941567414
Ni 1.3274610342719346 0.6031091879229987 7.9633192141051685 0.5770146847652643 -0.6934607182708509 -0.8307931083071434
Ni 0.8127165083415155 7.799697229343344 3.878723639457193 0.39851019136603627 -1.3506909934547577 0.6738951374340975
Ni 8.200505624130669 8.445365585288458 11.93431631955154 0.11210678270028435 2.027165204469941 1.4994683921031982
Ni 0.5622805373510203 6.979720071700166 6.028705306648965 -1.0627917169697696 0.33178775033782215 1.0416994150758447
Ni 4.50227238555583 8.13093625346821 4.505997677627706 0.4037539562634788 1.8141675623898499 1.4998178050228168
Ni 6.126123529447749 0.7848575630493293 2.5624393989605077 -1.051041775522693 0.40120856413380585 -0.1309424273495487
Ni 4.639612710018461 5.682180656754303 4.1807503178450425 1.725315379342132 1.7378448792677104 0.8974337882548286
P 3.827783481832982 5.1358840080466495 0.0739112628014024 -0.6064054792225556 -0.585172023765076 -1.1071949256754932
Ni 5.609803553643585 4.320127624672098 7.183822951936619 0.11816661574111906 0.8670736879057325 -0.4710142720730339
P 5.932958877484406 0.4937039662013131 12.301758576185742 0.9296653945950247 0.3201090284483132 1.079534226535431
Ni 7.746928375389269 3.0860741600841286 2.6112957786794904 0.0577451772302683 1.424215802116786 -1.137192757589164
P 3.7778131847309315 6.5784895994859784 6.987645951728949 1.9981281938076427 0.18820346585454684 -0.8241894869476967
P 9.328828693289529 0.20993121896565273 0.3420065863079839 0.058265054289480304 0.12629130173078248 0.1432523550651533
P 6.966837534584617 9.089547494643316 4.278744768087456 -0.45947104732012484 -1.8339074640209385 1.5773957007082964
Ni 3.8090193875300637 0.5916974988841041 11.709117826008564 1.0782692437800787 0.8184731532892098 -1.0679249244312767
Ni 1.194332308481694 2.9036541313133126 8.244947624500442 0.2303415326751775 1.02229529951762 -0.04775669855898872
Ni 4.27334125946399 3.0375260803986808 9.818337576891677 -0.433776213657182 -0.17382508564568774 -0.5054487996018199
Ni 3.7909618141373285 7.428048879394491 10.384037858959909 2.7092709027392887 -0.7236233578971603 -0.8792231787840729
Ni 4.452173630106474 8.807792461019984 0.2976967145240118 0.2869358841304542 0.15575640106943497 1.949156134784314
Ni 5.390892178641615 6.541209151978517 0.8790964417522893 -0.692883248500826 -1.0190598232994579 -1.339532662845093
Ni 3.6602646213496666 -0.24662718099287098 6.824733240556179 0.10307244041215798 0.3847751011681309 -1.1895669003155063
Ni 7.006843134174213 1.6944481813328258 0.6393876603214723 0.871869309522163 -0.5153866275408221 -1.3859225629635423
Ni 1.7378762783185042 6.426505023430458 10.806621778734856 -0.5021935258893158 -1.8270950690847951 0.6083672309346168
Ni 9.184404808532593 0.4078525000178141 9.864212805393535 0.2268378903972932 0.030216118572064087 0.9050054299544995
Ni 1.683061266403769 9.214592520149514 11.933926356711503 -2.4376685636421116 -1.2374069026169205 0.055027778299105226
Ni 1.5298379848563683 5.692044422708159 2.0914431983244084 -0.12128176433133304 0.3054838223359707 0.1165391074400251
Ni 7.945038673723895 7.99688079245812 7.727377932488913 -0.5391089108584264 -0.3076736308984379 -0.5120884164055245
Ni 4.665937495619964 2.3372904536372068 1.0145878835733375 -1.4628882789863191 -0.9244915637035692 -2.0046104590978766
Ni 4.085158956256874 4.713035831100102 2.121819927223793 -0.8368508844654491 0.24540228366304187 -0.8118764739082985
Ni 2.243699372028519 3.366471205464511 1.2848890204150887 -0.43108041199257374 0.6563581569915986 -0.35551748985459414
Ni 5.366274053940036 5.400710066614291 9.483877918487922 1.3176176079395565 0.6876034881591255 -1.3015669822345972
Ni 0.5139939621583025 5.398039968109574 8.219511954174221 0.9446922070211602 -0.20762660757616502 -0.1050341921242191
Ni 6.957606884771054 4.216498440781066 4.541115437102307 -0.5418527921521508 -0.9867086606622619 1.3684393185771142
Ni 0.5786892561001199 7.088028809671632 -0.014616724804180407 0.21729498390386445 0.589330783128456 -0.3531014242139338
Ni 0.16347425766242246 5.1249375217369275 4.3599258557867575 1.8225802119335772 -0.10861933837231616 -1.6263415344793797
Ni 0.8449393672036126 2.999346424460078 3.992766207516627 1.1283823583863857 -0.228748991377077 -0.8689282246159681
Ni 6.476649656860996 5.25836904220296 2.69692152519558 0.11361884846943658 0.863689601924848 -2.3433533005972933
Ni 3.8080008963478513 0.705686848485368 8.967463434042525 -1.0790506020307933 0.03503950810263643 0.0753412930454767
Ni 8.965420028760734 2.986601521288071 6.0180689554920255 0.5065515457476953 -0.33630646414378207 -0.8918570654979995
P 8.479627261634228 6.030247724376261 2.247197109313738 0.6141807522926003 0.5989091708455105 -0.1223199757878603
Ni 0.0856220762775954 7.292525322986616 9.453017635666894 0.2940658103070161 0.518167789830385 -0.6258844138827737
P 4.65192636016737 3.7682430378566316 4.913217979064849 0.29538915710413 -2.468315341993691 1.2296133747144309
Ni 7.6675594679466075 6.06322481724897 -0.07295791835246683 -0.30219538139268604 -0.13460162136869078 0.175463135469743
P 7.06551189650813 5.886539536125744 8.0485696787352 -0.7502923825479143 1.4756628050431684 -0.9862078097664436
P 3.999734155298356 0.10240699447237708 2.5242863522509893 -0.8796237566566012 0.576889986261942 -0.3399445751170016
P 5.839202635143467 1.7191305352080584 8.162074556855195 -1.8109999632951455 -0.531106095158608 -0.6011683991933324
Ni 4.482342990530922 1.4823175719493689 5.01310535481078 0.14055321096643536 0.11008538139488137 -0.47657351132836623
