# total energy = -340866.33341359923 ev
CRYSTAL
PRIMVEC
9.31396491317518 0.00000000000000 0.00000000000000

0.00000000000000 9.31396491317518 0.00000000000000

0.00000000000000 0.00000000000000 13.63192912043440

PRIMCOORD
 96 1
Ni 1.9571341437961634 3.3125768369911435 11.80272905055856 -1.0550478113582926 -1.1897180811813897 -0.23926043243136214
Ni 7.598071826130062 2.1686263462202904 8.449941964027387 -0.012222767318437014 -1.2098873570404132 1.8301294850357448
Ni 5.24712461575104 1.8260959707259625 12.464735875469787 0.5456369417849313 -1.9414027160911402 -0.8388632869097874
Ni 6.91204242278521 7.575867333657294 1.3298656140089629 0.534663473492563 0.558456976367735 0.15860492626182363
Ni 8.004328349904034 4.519033346631434 9.29802504377059 -1.5453988360867255 1.709405907200727 0.6973765083854893
Ni 1.9244793826344515 6.197288751493206 6.3460448801133 -0.8038320063372673 -3.524182049708853 -0.07381740020178254
Ni 1.3414438038549765 4.404294612247199 2.8260078561306887 2.395143031575075 -0.0807434378976545 0.17737192245668162
Ni 6.948413455967323 8.503799035031804 8.507059854165492 0.7807252451164748 0.7814916909688541 1.2830239291250871
Ni 0.6969844889348127 8.167276166938874 7.641364066676482 1.3935731375302645 -1.6167400068338735 0.011196125826135557
Ni 0.836923086924047 4.661248277657726 0.13288885790843014 -0.041775027054257084 -1.8399009626002119 -0.03164513770910679
Ni 4.23110143375261 1.6337439663016404 7.217016097357585 0.1512734255974169 1.2610605374801185 0.12142266078457153
Ni 6.355588900011305 5.245448102057627 4.844528480207688 1.2098061101805164 -0.19855215607872256 -1.0870552175028247
Ni 8.69747362248093 5.698823974581485 1.6000069224111804 -0.36540261017879005 0.9915125098088086 1.8487504425710417
Ni 5.095502580111705 8.529049194047605 2.7763197158438944 -0.36584046904715706 0.18263239952467258 0.3999605506593177
Ni 3.971577114012182 3.058678152088615 10.500606943986103 0.9631871805015539 0.5019675259214387 -0.8183705662730745
Ni 2.857123950280445 8.588360522934593 9.886310904599938 0.38674739440315326 -2.184595650807689 -1.0598727435507618
Ni 2.98213598801932 5.1168222459129495 12.939986526106706 1.4486037440428472 0.6026827789553297 -1.2201792258847244
Ni 3.19882538289303 4.708507335882063 1.5066688853233703 1.4760566980474772 -0.7288393548804608 0.3093358490922092
Ni 7.662720056941083 4.053009109687267 0.3263883428162442 0.05423819251827433 -1.3950024137776231 -0.06753645228907725
Ni 3.0819164946723205 9.294685055934712 1.5350783412547602 0.2627325474113733 -0.06403255290087681 0.47196429469112905
Ni 1.742614902758928 0.4225978753022735 6.3215072394171985 -0.23811937684838344 2.050253453747972 -0.882060648232868
Ni 0.3354294086062252 4.266243023559552 7.755517884061016 0.6808988224454402 0.006534458684408101 -1.4129158037229343
Ni 0.43346820381106804 3.0413914331165284 9.744512307807513 0.6509295297768596 -0.45103268674478453 2.015058136793762
Ni 6.685573364699922 3.91433348534707 2.9915132879444806 1.579336626484751 -0.8360900950400247 -1.5471620986347354
P 5.632862474710622 5.248018756387527 9.94428754230767 0.6038940256546116 0.36876741288596493 1.2712040536720237
P 2.23835068793637 4.423751485055761 9.826194849140112 0.24715449046745822 -0.8508952783736572 -0.08702232892783078
P 5.797980445581937 1.7600040753456123 10.019821935367926 0.6227247852078696 0.42622282678995627 0.31104768957699336
P 3.194913517608398 7.434416147758003 7.811245199230084 -0.020718463494273996 0.05647145272416726 0.42955934736235696
P 5.212513921947012 -0.09706734865915925 0.4598080967275886 -0.3405287297552458 -0.5457752671350085 0.0036116286106582956
P 6.9193911411413405 1.7012329564265019 1.8073488220476128 0.3018925054402865 1.0727426575348944 1.1400381974577591
P 4.5503003270135975 3.5801670503898833 13.291240361185764 -1.0782553598230078 1.7739948468257063 0.6887337451088268
P 6.039118998484596 6.644321813876983 3.2440586537378255 -0.4213554713953259 -0.22022809839025945 -0.3804132246550093
Ni 0.6971307181847382 2.933423951260691 5.529710312740868 0.745949017977554 0.29948518155037457 0.27820056113998537
Ni 8.324514523451144 4.3093201115153175 11.634142559134872 2.4687280040510777 0.41482872602040166 0.3977861687158182
Ni 3.9976655298746904 4.883768214598529 8.033459638120089 -1.678398403075619 1.2336291807420432 0.45932963664625404
Ni 2.626901364314902 3.2129080979177043 7.111763636288582 -1.431775616741915 0.6387828671119967 0.6839062418131964
Ni 5.523134653476702 7.381224093851974 5.456629218051976 -0.3018541960031834 1.195611306737373 0.03288260966063369
Ni 7.24903098912631 6.935895487056501 10.56001513810871 0.7844685142089909 -1.276728068814046 -1.5697942342119546
Ni 0.7671931568289895 6.483935337207081 3.8537871247059337 0.43898398311036657 1.2815206051066834 0.5522482764538619
Ni 3.2423122853071864 2.29375946550369 4.962649115270136 -0.7699932034109513 -2.0836338289806307 -0.6201441689648868
Ni 0.6505264316973287 7.745502577535862 10.172063349677327 -0.862611795479637 -0.8858987910320355 1.1496968035934458
Ni 8.03991701002922 0.3994629177296619 0.19688883675799854 0.33819005431974014 0.6776687455439169 0.15818943599095983
Ni 7.238124336154158 0.27059303570294274 4.797593547964077 -0.6970258099142899 0.378035211341136 0.3228526526317214
Ni 7.549136254212311 3.8560839484659106 6.900686836701823 -0.8362276490591533 0.6668827106720063 -1.6749754934369991
Ni 1.6480874723452903 8.824665128021243 13.287763458064923 -0.5246546831063094 -1.0402282298469567 0.363173206627639
Ni 9.356716062591017 6.857266994835402 13.166303766563093 -0.924863345220691 0.09009196899209 -1.2795987054936222
Ni 7.888425369899372 7.814230325000857 3.6878048178860157 0.5951797857100652 -2.4545799946854694 -0.3620041260202024
Ni 1.8109887195553132 6.811740334094259 1.3828369269453589 0.11485657753127962 -0.32166583141247185 0.28690271689967367
Ni 7.825323257272277 7.347656564123848 6.695444304768142 -1.2878195507415175 -1.2252841512114576 -0.9888884419224001
Ni 4.57639805684107 3.7418015983648827 3.6571329998650133 -1.6689614260324352 1.1932644037717515 -0.879659237880227
Ni 5.8368010515494255 8.944321635906157 10.438786432937972 -0.6625141492906654 0.45845983244679106 0.9292663593843932
Ni 8.85512179345159 5.561117002597483 5.855444815216681 0.623843472193345 -1.1814100755363266 -1.3937777973419028
Ni 4.134236198133157 6.924616275485812 0.38615419319344685 -0.22493013185161906 1.1647069038490327 0.9257578320105023
Ni 1.5120290721598122 5.9908819739391 8.549114268768276 1.7514395872330095 0.9245350153469949 1.991456695324738
Ni 2.1726499790844835 1.2017157014739155 8.615938241794751 0.6106593694029032 0.20375272644305553 -0.2647971432498859
Ni 1.6289565883104482 0.7110010748082468 3.678248689833558 0.2849826170588253 -0.2566585733031515 -0.11632442032605773
P 9.338646970562003 8.059904778840696 1.295538064739823 -0.9569553406592294 1.3940091966264188 1.038274705665012
P 2.9802266252018215 1.1542051661955663 10.604877713147964 0.35977523668968364 1.43394562781004 2.174741897942061
P 2.19848691789298 7.200728766826072 12.072163429020055 1.2040815489919134 0.06433774284612145 -0.5237807651417883
P 8.748756313569459 6.56141821173768 8.49353690843512 -0.9092048127478278 -0.5711258300846551 1.0033866355385752
P 8.313673068233737 9.04886157865546 11.253130605997724 -0.2993445422074522 -0.30603969483944066 -0.834059180652925
P 2.6490686009278153 7.749936024858444 3.193592797376587 0.771588058701897 0.9519368043987153 -0.02533590766162733
P 7.143857696759497 6.064927995398201 13.1802765768012 -0.038449819335766036 -2.194065023750705 0.2684869333966473
P -0.012653952799287424 2.412568402576935 13.064350311884128 0.027299202035585245 1.2305808808340226 -0.78183133369646
Ni 1.0295284311953738 1.327715019498912 0.9196674202624759 -0.7678010808556389 0.4746670383342728 2.0674286799756785
Ni 6.193088153294709 4.064809903295906 11.887682656386309 -2.247117937711627 0.5437690353382572 -0.2543656635039167
Ni 5.86771410126298 5.370050325338112 1.3546305154501712 -0.8827437903428217 0.09902192449186817 -0.3002493134099087
Ni 8.598438233025002 0.4973172964282292 2.7029117009847865 -0.06237907645785386 0.248841648361894 -0.5952615467905942
Ni 2.775477733411202 1.6465413541613643 13.155221079653133 1.1997970626839465 -0.2777022813473282 -0.7678766712885808
Ni 0.9507043457100437 0.7862010965263144 11.39971471798835 -0.24010118316510265 1.1441025973351198 0.3622080145008923
Ni 5.62758145657637 6.740861060722716 8.267233638926179 -1.0381757181933025 -0.11069910371948033 0.7209352695420358
Ni 3.6576778668153724 6.232877411618392 10.249179253988368 -1.4213343668039327 -0.13697294981434474 -0.8648144595579107
Ni 1.1660990994538396 5.453484823480329 11.448558081652964 -0.6860983643685088 0.7097836238005905 -1.326385583940174
Ni 5.82342619786197 3.666703098864916 8.507441726728993 -0.8112306127941835 -1.3414481347002511 0.7005461643627225
Ni 7.856450528179989 2.631725998165948 4.730947471668404 -0.3244184544569445 0.48893331844529986 -0.8335763274792354
Ni 6.956982303733659 8.00210231227778 12.580007368649929 -1.211880476211042 1.9161935638153644 -0.021438629489750175
Ni 4.46924088993705 2.0794637596255767 1.23361882566308 0.8616509742282643 -0.30296311279664595 0.8813119429923015
Ni 8.23237146806814 0.17314195168729102 6.9862821747155515 2.364846951694695 1.4921734011036818 0.16959587805568854
Ni 7.613244275055455 1.969428577547863 11.527786393217704 0.6887869669442653 -0.8364657332118884 -0.42595208962707287
Ni 4.862001478479043 8.942654436177708 7.511043068908464 -0.05293695720834754 -2.3636796708594714 0.23346490879550758
Ni 5.087660221612515 6.4641897314846535 11.948876337592402 1.6045452645398945 -0.23507544781573708 0.37650026275384835
Ni 9.282241598743598 0.39978704371038853 9.193332351995888 -1.2794930331536933 0.7663990583017898 0.8175560407915791
Ni 3.610502634275706 5.965613186993371 4.349171773404256 0.673468334309324 0.9404501439153546 -1.703599584931595
Ni 5.559095872200424 1.6666129486575108 3.8036351489639624 0.23807926763906737 -0.18053335090379877 -1.1699306141418173
Ni 2.765549046760208 7.855025491540588 5.475482545930909 1.5414123406351519 3.4098031831449407 -1.593565111379307
Ni 8.957463640469527 3.023219887472917 2.4255427557709637 -1.2254934390087864 -1.9427222062335123 -1.2862236670093072
Ni 3.9773517722894955 8.79988066725361 12.218529594230539 -0.013611163025531397 -0.12864900332968165 0.0254048132263498
Ni 5.037849136988204 3.4983624961162625 5.982549700882834 0.17389450543104246 -0.5530396620069056 0.2511499847800965
P 0.3786275781065161 2.10452763934211 7.857512320185818 0.6690583781670865 -0.5100024804107732 -2.439782010440689
P 5.769498340723833 5.28769624713165 6.792081348245992 0.5525172138445323 0.48083922858325573 0.49490007755169607
P 8.772348586821774 4.723251342419139 3.719008463306428 -1.573446486252561 -0.13036032959383356 1.4256085686992543
P 2.8443079344907947 2.396520440944981 2.6906563858859327 -0.6128872302921574 0.19754094120538881 0.0554574096373561
P 2.7797435293644437 4.363350422268053 5.274643656631929 -0.9361872548739426 -0.9464349007438798 0.6496015549940554
P 6.996874015671939 1.6338836757760915 6.437037660823323 -2.220439399979176 2.4332683776918866 -0.6283601291167759
P 9.403472166707328 8.420699839628268 5.322096445327504 0.3122152275225333 0.043762489797931084 -0.2021848677353034
P 4.751742761242207 0.4524081515641602 5.405905364861251 -0.3176574815840271 -0.9581275065904596 0.05811490186486121
