# total energy = -340896.27058464417 ev
CRYSTAL
PRIMVEC
9.01400692786173 0.00000000000000 0.00000000000000
0.00000000000000 9.01400692786173 0.00000000000000
0.00000000000000 0.00000000000000 13.19291028871520
PRIMCOORD
 96 1
Ni 6.386144301267267 1.7713244254207707 11.455865038418567 0.17939306665176846 0.6362788697432205 -0.39916299445868675
Ni 4.7812454812495515 0.25302226621368334 5.92915759881583 -1.0407015699389495 -0.2834062737106409 0.034966745883172036
Ni 2.8099272895352425 1.4957482130835438 4.846626775929181 -0.5494090072328538 0.2598680813793847 1.2632138363776955
Ni 3.5107032111541434 4.512601040052169 5.208455314021714 -0.21473776469964953 -0.642070793834649 -1.1515377134569265
Ni 4.880462652818172 4.499729038507699 2.4157006086197845 0.4292117342149511 0.049065904288715496 0.3104205975159557
Ni 7.195656185512884 6.12618936251307 2.6651262861666303 0.2507445218115617 -0.3932723400058646 -0.6537397455321451
Ni 5.035233147579071 4.677953978659852 11.437685589738674 -0.23879557697980164 -0.06256908098147289 0.1567316204985107
Ni 5.72491282697021 7.843456789851075 12.364513869573319 -1.104533576793246 -0.0881862673289449 -0.3237615375992359
Ni 1.8358376712567495 6.611737846542806 0.4102418665905711 -0.24678013784717495 -0.5509025610592447 0.10787937488249807
Ni 2.650911197626273 1.4813889004362455 0.3836983211087763 0.2439537241419734 1.3212338645359052 1.1772999100226949
Ni 0.6415376724942841 0.0339287211578347 4.709367791952906 -0.11603054323472277 -0.05231217914015507 -0.061886195981835354
Ni 8.55194870119131 2.2410803697404833 1.417446241223352 -0.14348401145998516 0.9401038163195293 -0.6721989806785971
Ni 6.864373411869754 0.840136971953838 4.7256209474044715 -0.45950832831596344 -0.6612031437887258 -0.4351741224459731
Ni 0.683831391854688 7.564437226960635 2.590533578056823 0.9431852834583304 -1.5288902969087412 0.16102896232228397
Ni 7.800360823895812 3.817386760557175 3.7651505918245363 -1.070854439373246 -0.16467812903909704 -0.36630558160903365
Ni 7.525893334380692 3.879998050982871 12.660035374499799 0.4697418331185136 -0.575854345908576 -1.3465206641271519
Ni 7.9398345493142966 8.974948992842137 6.799599661240613 -0.2809012479006001 -0.14871800616541483 0.2517534226920503
Ni 6.757314054486225 0.6177010332196352 0.42270643503293404 0.20373395738997815 0.6691601938522733 -0.10510001236514803
Ni 1.851774435073713 6.338667528063676 9.361583175927827 0.7217973604320149 0.4284820551377782 -0.9763466007016476
Ni 8.934088500544457 4.84338804332769 1.2539492865918636 1.2121800097293318 -0.1465719063566895 1.1700316584960557
Ni 6.21374240943285 2.15446477951582 6.685651799949322 0.6189912863073662 -0.4912696798879603 1.0509841828118804
Ni 3.373212567206096 4.267672450439873 0.38963945291407087 -0.2660225310165548 0.46052391406467136 0.3104995303830072
Ni 5.855020999444223 5.4586480835373505 4.628560827635285 0.8421080190993303 0.38259969078336686 0.18433755514123737
Ni 5.342115005129146 3.1105444124400745 8.866889080716705 0.04009352558677611 -1.283481842598112 1.2323402867272906
P 0.04057294548446593 5.544731847367671 12.356229096030237 1.7920650740638555 -0.6538140504135062 -0.24907818985273233
P 3.9422217391211634 6.249609142027702 12.664467561586225 -0.32986533650412864 0.033841631139793334 0.01173348638684431
P 2.3626252358648836 8.571373885594907 1.5524760613467217 0.817305872453986 -0.6760000995922423 -0.27790976937244394
P 6.380068860762383 7.749963512526669 5.7769506875558045 0.5871062646733114 -0.8184302158664162 -0.29125790854457584
P 4.633019155341095 1.0204937246867114 12.51264374561026 0.013010553327055011 -0.21661492711770436 0.72957726148775
P 4.011674660619866 6.072141378436987 8.195369920591425 0.5997352662912316 -0.17455502183317678 0.44303938412666277
P 4.680243536357539 1.0691513327658804 3.7779081154841228 0.9419385555354229 -0.6076164688115213 -0.34414035836590406
P 0.185887747234055 5.532040125956876 3.5553441778550097 0.730515457031303 0.33262901529219485 -0.48054663704350137
Ni 1.3229947749884583 1.1699098994774308 2.6242153154315218 1.463345678238712 -0.04172360499103137 -0.23871304456832435
Ni 1.8665033219950473 6.3884699149916875 4.752244717545753 0.48008023893004415 1.361509167116184 0.44420846473409953
Ni 6.099589028789168 5.4946410122257765 9.206672062662662 -0.987404401177706 1.0303209980355739 -0.44225005545614804
Ni 8.546432129100824 2.2487963594618186 10.323228056578662 0.1786675013396536 0.8547251936427086 -0.29281856816347634
Ni 2.2758473935199115 5.332352835890586 7.1191840570095035 -0.19460808382931 -0.3735316670438277 -0.16621642006049436
Ni 0.5324276285901899 0.157236726989587 9.074953988594922 -0.34157722562441817 -0.49148385278129547 0.1769849714309081
Ni 1.2823956888846093 1.030859832373085 11.489389030676298 1.208279389123345 -0.34536831723573425 -1.006677647585021
Ni 4.1142089866481255 6.880959184167952 1.62866515004023 -0.3269584472699788 -0.2572545550159376 -0.16900118189448313
Ni 5.675263678155822 7.811871710431029 7.9531347161762485 -0.307885746909244 0.25102477205614193 0.22998183534291364
Ni 5.275213047521959 2.980616520099737 4.615447250711688 0.2650264856518726 0.27505661619436494 0.13807929550464607
Ni 0.7643481051570904 7.473224493327232 7.077851230761594 -0.2197791837782989 -0.6258095947807802 -0.29752188717641664
Ni 5.245574993545615 4.5015228258377755 6.923309691770463 -0.009506911049170725 1.1893460425539517 0.337919831377489
Ni 8.044829699167234 7.270580609068656 9.040230232047575 0.5274067919301497 -0.14485569499653117 -0.19932605813026963
Ni 4.658862312503557 0.36875219662636244 10.306921718487663 -0.4152766121910977 -0.8887244334062888 -0.08906609883073693
Ni 8.292976289165649 7.159005234336541 4.673377567466486 -1.1265440196260663 0.13172455693121185 0.9205827155674662
Ni 7.348164164596148 5.952768887923383 7.075489561010437 0.0661097471448797 0.9729406603438921 -1.1572920994422005
Ni 2.342460902913216 5.189318577831999 2.67011283466411 -0.7923558873768676 0.17345818922457223 -0.7893826636811566
Ni 2.4713251424648646 5.1703981778026975 11.389281275247319 -1.3345650344271727 -0.8531614487000145 0.5244646785826903
Ni 1.1513951297488993 3.2979095553696047 3.86958597186241 0.05437497520645474 0.2887755084423543 -0.6255208598957679
Ni 3.4104854848436212 2.630106870200055 2.9103424225921404 0.6399100387379044 0.6961768316504332 -0.9412176182089984
Ni 1.199106267126269 3.0946166626297944 8.257983013818457 -0.5454669918659703 1.0263771828964774 -0.523784364686214
Ni 3.6927771321602814 2.8233311174740576 7.044604869909723 -1.2901844514292682 -0.7288092729734739 -0.24388019059156063
Ni 4.26897046740234 6.709215314821452 6.007180136468824 -0.30170712890235785 1.178771352361899 0.3163282212496423
Ni 0.8755827504365568 7.284038521047573 11.206031026368946 0.0060539195035637676 -0.12143680185195858 1.3107712744416846
P 0.306580789726836 5.577470719643243 8.114946051557865 -0.999320950109634 -0.816104395946717 -0.46187245767276586
P 8.526574272376406 1.7159153263354334 7.995826854632076 -0.9338652916089852 0.36062010118848215 -0.23777356347319048
P 1.8507828943384947 3.0363951934591107 10.447966585271134 -1.0496587791322374 0.5514718032991535 0.2233602162613379
P 3.9160811197381347 6.193352726314087 3.7786076024027855 0.0835081451269852 -0.585513723375211 -0.11741456806644295
P 6.704888591613226 3.8180447830450923 10.465526771691852 1.5286097895538449 -0.4755856934938003 -0.47101504340398237
P 6.259614689446724 7.7223896660809155 10.154371373572985 -0.4566921990234071 0.5898288058107971 0.06372376341120639
P 2.385628980921949 8.38472986320008 5.919473851435421 0.753528887207341 -0.4587292840580938 -1.2138496841222708
P 6.944516945295447 3.9953593085221826 1.6214746769085606 -1.0922799562368737 -0.20653363162230234 0.29228095049245145
Ni 5.405510514136332 3.00074479702467 0.2805339160133187 -0.3908804427349204 -0.638351693111849 0.27921614688869334
Ni 1.343195163966861 0.9870697879031698 6.832476447818449 0.6041997298204884 1.0337917301929935 0.9877712975988214
Ni 6.837277307778242 0.9426307349520207 9.159178162846374 -0.7473189017418872 -0.7462878893742114 -0.780177857253437
Ni 2.7572404204684138 1.4577271328912624 9.142897965374756 0.1561497798531117 0.24834645389303037 -0.049446427556585806
Ni 6.2317073247536685 1.9764832175441283 2.475794286978694 0.3596327975745484 0.48178230922281545 0.31209387145332057
Ni 4.055383579029627 6.720176346948957 10.474207260128352 0.6629980309056195 1.3470670235489253 -0.7048165096033022
Ni 8.130913462997555 7.077275235734499 0.3409070285794264 -0.40318162869977664 0.7114057327850458 0.2247936062737548
Ni 7.57945456209585 3.8153225530265837 8.142571277841716 1.3128291854119776 -0.837096681927668 0.3328627285695558
Ni 2.8946138823295726 8.500595905113684 12.474134106255717 1.2995208983388458 -1.405495085778831 -1.16038230833175
Ni 9.030862876301768 4.679053687475276 10.162313614862084 0.21003110325259955 0.05264205167574805 0.4444982280603765
Ni 8.658106657906458 2.366059572411413 5.77924655505817 -0.18143812210625526 0.40297105535086725 0.17427939957428693
Ni 3.6331134219201893 2.7637755753141713 11.632413373327534 -0.01906601549251555 -0.47899446206503316 -0.6538379616729062
Ni 1.0048724511036808 3.1816649251752804 12.62061441906952 -0.17114779592384072 0.8147543096767258 -0.05958968663817479
Ni 3.06836787516656 8.216122868179543 7.999204402936496 1.0468326225373519 -0.10770865363258869 -0.21848823288101726
Ni 5.496398743529118 7.753397849073198 3.567046161331923 0.747950621788615 0.7046946393134573 0.7902678944995875
Ni 3.144653413731585 8.43812883879493 3.7374460422818676 -0.2998924442911222 -0.8660038518803215 -0.48125034797874544
Ni 3.27689790578966 4.184184720534489 9.194745630419321 0.29170348072242663 0.49951135107146233 0.2593890848604371
Ni 7.290699871986903 6.110793439097135 11.235873698297011 -0.3167498821680932 -0.1910054540797162 0.6656010157461053
Ni 0.5145970219689592 8.980501620959359 0.49438942178520945 -0.26548568467647826 -0.07573775715294698 -0.41520050753752363
Ni 4.614973113960121 0.21063209698176277 1.5714866014428621 -0.7836313630196762 0.8978490214153763 0.010158942810872826
Ni 5.947820198253976 5.5884587937907995 0.37376218154122015 -0.035734477287132 0.7554353602014344 0.2266867095314096
Ni 8.102618496017095 8.68316559648743 11.12993478194428 -1.2823407870151335 0.36080316373356575 0.15083710939094666
Ni 9.330939158805572 4.867644735313804 5.739417265125117 -1.2945995497778284 -0.4143582141418864 0.5193438124163572
Ni 7.940636795909155 8.961491080863219 2.5260599938502537 -1.0864515224805549 -0.4869566543349033 -0.12621082620183424
P 8.526952860657126 1.6573693529241327 3.5969411144987555 -0.6181785605980837 0.8588471862308821 0.9437452697268585
P 1.8272383088804012 3.316442353111504 1.6362242960452673 -0.8665952056074173 -0.7106182038867439 -1.3002924863975476
P 4.635642231286082 1.107469875178727 8.022753495397932 1.0577292148451978 -0.4573012933623157 0.5631160724063012
P 8.404605747937865 1.3787734483478316 12.418578078861433 -0.12495921318292029 1.391098964958159 0.5470855013059998
P 6.315050830552113 7.8010909584372 1.449702864141341 -0.019459137165876165 -1.2860778854600625 0.11479795637920229
P 1.8403266465852832 3.2271135468750156 5.901030292359691 0.1545598096581725 -0.23724597310449466 1.2678292236625197
P 7.076175526919075 4.054653444488239 5.899908949928225 0.0875198373895396 -0.037416235864929114 -0.5075277936180357
P 2.327569763871573 8.49873901973682 10.027693030642158 0.8110022988334613 -0.39521609399579677 1.8875838704984718
