# total energy = -340896.77003109123 ev
CRYSTAL
PRIMVEC
9.00624656179119 0.00000000000000 0.00000000000000

0.00000000000000 9.00624656179119 0.00000000000000

0.00000000000000 0.00000000000000 13.18155220854335

PRIMCOORD
 96 1
Ni 6.180473479680101 2.0339796706479096 11.284265524808823 0.515320293079261 -0.11442720330334488 0.8998987048555535
Ni 4.553648191764514 0.09754305117724085 5.965904164704737 0.5349007863143497 1.013359173370255 -0.5382427062033892
Ni 2.897282415984789 1.5469218707416086 4.926604956670947 -0.2314579056678078 0.05924850124867215 -0.5986052664518465
Ni 3.441673979837161 4.108793662020213 4.617325955604335 0.44647952015646325 0.7877862657283141 0.6111568778646119
Ni 5.097103106001683 4.405378358926914 2.5555737232409843 0.40472377637591583 -0.006346253933001974 -0.33161677197759665
Ni 7.342927702119193 6.165658204516531 2.487187493835501 -0.28182581659739847 -0.6198670040441002 -0.08283965830505088
Ni 4.991342755700282 4.6494656461506665 11.22816471598123 -0.2785042084233333 -0.37179848640280483 0.8633743846772743
Ni 5.577145040040251 7.827364684352181 12.36909400976322 -0.2628402766338312 0.4864804860294331 -0.19855112763745802
Ni 1.8842148009245023 6.478814394615311 0.32742028298878695 -1.0514107288263375 0.2706191492483017 0.8949701572056845
Ni 2.6372991040414604 1.5066729560267185 0.6072659705222292 0.552534440235713 0.43277631163775787 -1.334675848973424
Ni 0.40048075422399215 9.03551660051769 4.837695293196927 0.8472204006252313 -0.2769929139851294 0.5036204881438294
Ni 8.539821810409649 2.273843028356943 1.3766813000550544 0.9916984005673695 0.1628523886842679 -0.28762442555704654
Ni 6.850907460501569 0.6372594725752608 4.956249916992166 -0.0821356902594908 0.4603063987372266 -0.7126380625302501
Ni 0.6785215899989059 7.349637355612725 2.3242771070125516 1.0340609246939805 -0.4472688488269781 0.17526618896758847
Ni 7.800147808033453 4.010553527379348 3.6896609717088324 -0.44330292220069456 -1.1337706192814927 -0.19995160752941046
Ni 7.435403839128029 3.911241649428779 12.443845854053572 1.537079774698069 -0.724392889073333 0.6541038137397832
Ni 7.7149036868035505 8.58705957225337 7.125670022623266 -0.4409292797621954 0.3121589203633011 0.1556242463669449
Ni 6.749118864818487 0.7410321443182412 0.48677770564636985 0.14829017459937685 -0.3160286877313525 -0.6008868633971717
Ni 1.9144847947389454 6.441744684844336 9.332789374641715 0.4802887553964245 0.576984088637645 -0.9795352828422743
Ni 0.06287981041763709 4.801698227360286 1.5103952376225263 0.46165237124215974 -0.7862929690122393 -1.358075458844287
Ni 6.366551534485279 2.0122926295574075 6.907291065462985 0.09216067859566063 -0.2766635556701687 0.8391792754883096
Ni 3.39712007939085 4.318612182072305 0.33030768555258055 0.41040565725204153 -0.3638933726231152 0.3919129977644928
Ni 6.112890607444581 5.555539055166448 4.5975806612161225 -0.5059666197785028 0.06047851700103132 1.078046843356627
Ni 5.167054621014112 2.92718315370093 9.153863180023398 0.35329142873755287 -0.22245673061046206 -0.21975810073237634
P 0.19762316193720372 5.497241622866272 12.34813467337376 -0.003853569418135299 -0.26075845440413803 0.24909207380980325
P 3.9071257948696596 6.187705495459035 12.539056287439102 1.3675962538505286 0.9246987946183687 0.28414289476634935
P 2.2589286844840726 8.598101230217223 1.4930347972545641 0.7337175089083686 -0.9855766039403477 0.7943294661634707
P 6.333201404436222 7.701601461018388 5.676108376259008 -0.5524092275117582 -1.632788061435672 1.415608777174065
P 4.658994254736112 0.9863731010269602 12.623629443319654 0.14071261936243507 0.1333716056163316 0.2552472947779217
P 3.96852137589705 6.0455238851202635 8.183503184917916 -0.2917091371493815 0.37156451601512785 0.576686354891568
P 4.797654422771568 1.0666277618066395 3.836081822181034 0.662896986551381 -1.6908016618359785 0.35371926030359085
P 0.3294926202624267 5.593554420798928 3.4951413622466236 0.4019418427554045 -0.3597117304415999 0.527901215068065
Ni 1.4728635074163587 1.2606673383410563 2.862664206456685 -0.31788656687569766 -1.5783104992130816 -0.8554852117371847
Ni 2.0095637369284947 6.310712807425016 4.723147548380575 0.30718666395969035 0.9340874349221204 -0.12928432292083541
Ni 5.9750860328076305 5.647699973554783 9.169443085497843 -0.04509509256642556 -0.3032479910269164 -0.3193659796347016
Ni 8.49159336147292 2.386367069629675 10.08964729495839 0.6482812935207352 -0.3478779710314654 0.09233062851462163
Ni 2.3412998131442615 5.21510294502484 6.866401806636161 -0.12880686906378463 0.00113925581076578 1.3478607230948143
Ni 0.6286981348424404 9.03956941135271 9.161864329236357 0.07506309968342556 0.0332343365730976 -0.3271939603195526
Ni 1.3375716754971196 1.0838206859934207 11.449126664580364 0.8148640957817127 0.5348344518527887 -1.3961514397804018
Ni 3.94733868459935 6.8077405219854645 1.6231363294310888 0.8495336221394401 0.6010521853304422 -0.7339874747403037
Ni 5.4776890621488805 7.80585776818768 7.988099162069042 0.12633912424958244 0.21738163008039982 0.2916520586592009
Ni 5.424065871678427 2.837003609498604 4.869673771934488 0.0468958932205902 0.7365081842796283 -0.3158839346233721
Ni 0.5857338368680873 7.360823113517378 6.823799559763071 1.3377254344330252 -0.3930543104577876 -0.2776151209501606
Ni 5.1081087389803335 4.71557149399298 6.876327590683438 0.42523012385938375 -0.9086419982658223 -0.18586247642619605
Ni 8.262357374397936 7.071173226261709 9.1626280589226 -0.7916604039717398 0.4416255344982717 0.13681585541119018
Ni 4.511796165208217 0.3958578479981803 10.448831708022796 -0.23403852191079047 -0.4893212979123379 -0.23720406412296566
Ni 8.136188869980641 7.0431187690370765 4.629980632280525 0.2831928721482542 0.3630881031130005 0.5416525032158865
Ni 7.20069205430262 5.986514959362385 7.10529158912016 0.8493991534441049 0.6795934733704554 -1.3746978978923163
Ni 2.414124320726406 5.167414870866114 2.5729990085823067 -0.22818463423317473 0.15506168899525552 -0.44106889066385324
Ni 2.286478791915903 5.320160808114836 11.523774036413636 -0.8805568099938319 -1.1066400816132878 -1.8132957013078579
Ni 1.2167168563968485 3.3591497449898706 3.7793748929774464 -0.8611056432477557 0.5715840006679963 0.4967016495368092
Ni 3.6575266849102808 2.44461947069835 2.748116461640334 0.13645101587260372 1.30268052701375 -0.5666176578016564
Ni 0.9576341690835245 3.1922459885574823 8.130525742307174 0.09708382692889087 0.7262517966589427 0.05136627028711799
Ni 3.676277689706969 2.864544710684134 7.066049572741615 -0.057397049862230175 -0.5169259470034839 -0.06673118277896249
Ni 4.07858671192987 6.794294196259501 6.119430042883042 0.3780827767496198 -0.4101315776550485 -1.3058771795741768
Ni 0.5872378800001945 7.394371380985036 11.1837693254698 0.6014501920998093 -0.26784467182695804 0.9123289601991063
P 0.3358321170330267 5.569786936813116 8.03662121463515 -0.3512769694106853 -0.9476327777067227 -0.8070762243061778
P 8.52324131097127 1.4053616913975397 7.865326913131491 -0.20902348792369163 1.2739947290432834 0.4243880875740627
P 1.7341707375657933 3.3396151967650787 10.403737432798485 -0.9154209688608685 -1.5561653305746104 0.47406205776042226
P 4.163947914361673 6.057691323871621 3.6840068502816656 -0.4902152704815171 0.016037513078836895 0.5519744539671849
P 6.886752320775738 3.9042708147925462 10.35202626841753 -0.7763677394787275 0.8120304829876596 -1.0825843262156645
P 6.37520653717962 7.872819209428497 10.071602379871626 -0.48278735344856205 -0.9793663613645779 0.6983360440852813
P 2.371794963116206 8.27366021350449 5.707401479653136 -0.4169989941988431 0.8863988705969057 0.04033649483551763
P 6.986874760893311 3.880863580658736 1.4134709155660983 -0.4438037730965131 0.7891800607520473 1.3595749262079488
Ni 5.311577855390896 2.8515757160120727 0.5262511825548264 -0.6382964143938813 -0.2438763339368187 -0.34999553159510044
Ni 1.577876339274855 1.1674797078745158 6.831181079230586 -0.5160512577080144 -0.48335273903372883 0.7292985539050666
Ni 6.67347540214443 0.8562913825922956 9.180357755388865 0.29047140808753846 -0.2763851051978014 -0.569686012314335
Ni 2.758676285427134 1.6079481956706971 9.074101160916333 -0.2050986989479887 0.0033239221669104048 0.876337886816478
Ni 6.5194775966600025 1.944889882247889 2.658956424519173 -0.6302866567155274 0.21056486426888252 0.26412659954542256
Ni 4.18847192303669 6.8782324117758975 10.293618959912495 -0.16455265920482626 0.5615266164319942 0.34828651932379373
Ni 8.174483429248422 7.04393833745038 0.2411368409358593 -0.08994310211905156 0.7428716646038109 -0.04993853670165593
Ni 7.436214401295033 3.875639957804711 8.215046661959184 0.8729414595404192 -0.5227327834932481 -0.1523779715155053
Ni 2.919996169153496 8.384410024256113 12.478038968756316 1.178631484349925 -0.008779288854526815 -0.22577628190199828
Ni 0.04356681585182584 4.895020951521328 10.157795759461552 0.03610625880425394 -0.680728101195531 0.22130179107041242
Ni 8.693126134928972 2.4070994486123727 5.826681106275529 0.2521884533469399 0.03103167249482398 -0.00821133216619876
Ni 3.6520688996524546 2.623195322335594 11.485323669084863 -0.6848279822965173 -0.05853939099678951 0.07559891758223755
Ni 1.2359181735085392 3.15164583023689 12.69512643019717 -0.9158310598150936 1.0529279368018123 -0.2899073080539523
Ni 3.0313764171461224 8.435646559457057 7.8347317938256165 -0.32410812230537733 -0.5622845776439412 0.9174513690273361
Ni 5.719605844014324 7.773534350216828 3.527791706958168 -0.16371885044962126 0.4785751151394274 -0.1550748016213781
Ni 3.332374174739844 8.220352241654538 3.5886379069612553 -1.0112961201936388 0.43043069422371677 0.7153878573612454
Ni 3.2780124720727875 4.260350774757329 9.407989729997809 0.6354291201484152 0.9293830874679154 -1.0767157832500296
Ni 7.094274248021319 6.015298922537321 11.298474679596403 0.5434964984031607 1.031902997810713 0.05256774679438689
Ni 0.5502573320675898 0.042398705706710324 0.22806967817912754 -0.723197068993019 -0.3098336146642341 0.726428431446123
Ni 4.457200300137359 0.35603492873328213 1.6734767431251767 1.0605761973756895 -0.7050304253863212 -0.2564523708296164
Ni 5.966854323689391 5.72942265248137 0.3805742480270081 -0.4875822037340442 -0.7091981836107657 0.20589059872166476
Ni 7.856499891132819 8.979470729792524 11.362445146440974 -0.6353689563344411 -1.0414477040763546 -0.6498800054664227
Ni 0.2500368135295613 4.9213011782248515 5.63002521519095 -1.1478630928188167 -0.37363579672185976 0.671074894376483
Ni 8.01289335813306 8.764086349527007 2.6686318349193083 -0.9593405530619542 0.6597849232849605 -0.2902317812729066
P 8.425154282517505 1.594835101057835 3.7262002135727355 0.526791269833338 1.3390459530166614 -0.5724594612944142
P 1.950626861141016 3.2445182420829295 1.6543375691129563 -1.1364026575877009 0.17819596101987376 -0.2686859367813308
P 4.6677213074008534 1.0038542250953428 8.051831864011293 0.15384504297933504 0.49355204816423387 0.08708069296959196
P 8.426541244447714 1.7096917601222779 12.304148166444353 -0.3635665854113158 1.0676806696309546 1.3690728383960549
P 6.4124653781228975 7.764402016468584 1.4131286782066965 -0.8977788302990731 0.3190070536333861 -0.784088762272069
P 1.8237108382808165 3.343848132526099 5.936628460481819 0.18374543008319322 -1.3128415267071518 0.039263059265680765
P 7.118483038075833 3.924913131312244 5.9099357476977525 -1.0475620445042086 1.0831106310327796 0.07674408693027429
P 2.42125726779604 8.471104151140324 10.31378664725218 -0.028328671741364112 -0.057702496917790946 -0.9407072542314832
