# total energy = -340872.96716571326 ev
CRYSTAL
PRIMVEC
9.18583784873260 0.00000000000000 0.00000000000000

0.00000000000000 9.18583784873260 0.00000000000000

0.00000000000000 0.00000000000000 13.44440221033632

PRIMCOORD
 96 1
Ni 4.042136123525275 2.956664026796035 11.072810212886264 0.4970400067128343 0.90603412832933 0.7943433501205416
Ni 8.794273218315979 2.461887238273533 5.791888520381814 0.08097560851311861 -0.5141537835749854 0.2354695979303622
Ni 8.181899332590108 4.84416081919184 5.6837013955558175 1.2964656564522898 0.7877129892882176 -0.5111803027689583
Ni 4.683812832253705 5.222314209331747 7.755174905801822 0.2263444957006424 0.005933591875615587 -0.1929507507315451
Ni 4.266380799117265 8.36814219665809 5.603103016374299 -0.05989693346594846 0.788687437386345 0.8810818292593665
Ni 3.637059042407155 8.280711391222871 9.67841011925523 0.4674535513049692 0.7320987423580231 -0.362423215835492
Ni 3.211571029404494 1.8212393433934693 9.480374476450354 -1.6158977134382364 -1.401506019224096 -1.567395652072791
Ni 9.108630964019282 7.140730532206114 0.37552624049140254 -2.0162606417422952 0.474423554864899 -0.5739054497123213
Ni 6.064251370812142 9.207424650976183 4.391896088617877 0.4190018835614849 0.6240234494146351 -1.2971727098216435
Ni 0.5351503834005095 4.154974956679953 7.661534473924681 -1.2849843952855675 0.9016668524995696 1.3757474222027533
Ni 4.091445701543373 3.027312306329789 6.258154305131483 -0.9284261228712849 0.9725953611893314 -0.24740851545979328
Ni 2.9321194678421683 5.443702089326936 0.8602463736461303 -0.2533814452137765 -1.2294789060190956 -0.24948416704189935
Ni 7.372195276412526 1.7210769665847254 2.7763230635992575 1.6954905826712154 -1.8464169093418588 -0.860232753724499
Ni 6.364214908476259 8.840918903333844 6.702625770804076 -0.6273851667980164 1.1433747180301599 1.4762986388549542
Ni 0.46908399982715593 2.0804728756678235 3.5710486924451854 0.7987684757714308 0.8563894687190089 -1.0532639799849925
Ni 4.741013045055249 4.784801934476314 4.590591274586256 -0.9531359669131392 -0.050577970057867724 1.0545058228118935
Ni 2.4185392690731975 5.808940191334682 8.055065875346276 0.24612759186484062 -1.1229632442533435 1.719797791958012
Ni 3.75633714795205 5.629742864960418 10.372692284651698 0.9906365349617584 -0.666304212460717 -0.348073117761407
Ni 6.866579199130458 5.689643714113923 0.7068088925841152 -0.07270256987104898 -0.4750439620577174 -0.709112565875495
Ni 0.5100151750676256 5.229616950487557 12.129754771334392 -0.6095681932212533 -0.519027566727519 0.5314958743978588
Ni 1.7067470594110608 3.5413977261850107 1.7203861915722514 -0.5400548197114634 0.49956148758310737 -0.5812336079426184
Ni 7.135411932043581 8.5112575516361 10.0418523899473 0.31808994113575534 1.2532711233426868 -1.4781639741984671
Ni 7.285701426446356 1.1526205720109637 0.4591384930983567 -0.30922092078089974 0.5689535050236846 0.186736137280401
Ni 7.1474821230860135 6.168455516310893 7.716334427274638 0.536950469754527 -1.2839513260353628 -0.0448130425496325
P 7.4691058665934005 5.472968168977767 11.875494451716335 0.34948028252157876 -1.023710948918224 0.607324134382083
P 3.8983685740541043 2.9533387534647106 1.8371106341720962 -0.29804922043479637 -0.1118833538355686 0.586953541145531
P 5.83799499671308 6.525481479207579 5.635543721614373 -0.011096624133793791 -0.09209254436188656 0.8096013047208767
P 7.652170430736968 3.9906495019173325 8.364690158763304 -0.3297504081928192 0.3055871806830544 0.9614725118032925
P 0.6185678962433088 1.3419958068137023 10.752671819372456 1.0389779023796233 -0.8213522746092177 -0.04362005068279584
P 0.9436335732237545 6.224948419591688 5.117813361267798 -0.09033313846861861 0.3055247028762351 -0.0013732261984427962
P 3.852393455205263 7.364552659253239 11.624984709725847 -0.23694309715209516 1.3182986931669811 -0.5358919465830255
P 5.227017358352849 5.990838154060906 2.1885607934441555 -0.6910191987088938 -0.3602470341197796 -2.5456502684304287
Ni 1.547133939507472 4.660388945527522 10.168902632966324 2.2752800019681394 -1.5553886003095858 -0.792784490273854
Ni 8.657091914641935 5.421114113852551 9.801506777628388 -0.6687282485211773 1.5267431686587514 -0.7848693491918354
Ni 9.094236755980095 0.0670161992155054 4.420425464066573 -0.7256812688674534 -0.9994183949194464 0.7919694505717264
Ni 1.4446567315399055 1.962049053050589 7.5555124510992195 0.2082220750683188 -0.6196834272783844 -1.3273132379607657
Ni 6.046789092903721 3.1293945232662863 1.2422072936087842 -0.7739778990903121 0.43031448036082665 -0.4153208351654718
Ni 5.626922812715344 2.645071218310214 3.681669145739325 -1.8393805713203677 1.0623070640238672 1.5581314531620456
Ni 8.733876333914155 6.8536639109982955 2.8587374829399006 -0.08251158554167079 0.1548220621806237 1.0393057180326875
Ni 7.085872708077188 1.9566202228328735 7.704207284037027 -0.1872218186675679 -0.5272134449724211 -0.9641917105066685
Ni 0.5019757297096824 4.5474582539935255 3.745530009625245 -0.15380647643191575 0.5115461707488093 -0.2379903074696869
Ni 2.307289585880727 1.2808548695393995 2.039797985305652 2.0198069643326564 0.15037971013855392 -0.13076707811394897
Ni 4.56428670908465 7.082896496587272 3.786266445101559 -0.045567918437786036 0.40267846381111294 -0.11430173346907412
Ni 1.6852705703264272 7.0353689711279515 10.153185664264951 1.5834311082690988 -0.17687672798781795 -0.39724880815510943
Ni 6.268590335605842 5.2681147972598845 9.915220102554178 -0.7236740086294374 -1.186523742613808 -2.3684063869111793
Ni 6.385425008260869 3.938951606036957 6.661109457687349 -1.3718802259378633 -0.2710930035609267 -0.7231487322535869
Ni 1.5556492112702844 8.934201087531642 8.430244891163856 -0.7074323499595945 -0.06773391301186399 0.3151910223214055
Ni 2.598912382702736 5.448239893265264 3.265282460959528 0.7299958370824072 0.9343314326121263 -0.18680761394828474
Ni 0.5579689234069841 6.80716519938734 7.297688944947402 -0.5158789937962083 0.3218828325192844 -0.15861392512288813
Ni 1.913703988015334 8.844492194289328 5.859393406175293 -0.8194023499716984 0.08541744633455611 0.7460531476555861
Ni 1.9010459033452636 6.9699474333774125 12.635922917476165 1.6273188107909844 0.8757043669975371 0.05509976918762124
Ni 7.673059026193964 1.3650981892122707 11.145812822681949 -0.709454779706262 -1.6953604848512542 2.125571349754681
Ni 1.9950905120914042 7.7904448491249 3.5967947590005367 -1.0266612897957996 -0.45373902993235404 1.665240525537422
Ni 8.510100136056689 3.4690316949580042 13.09608471292013 -1.5764996712565882 -1.150373003724864 -1.2137226716261031
Ni 3.35011183709245 1.8487692996751828 13.087978210945284 0.37752973245962723 0.6910251122461647 1.3730392792429709
Ni 6.062313159008524 6.971022176415437 11.182314586871685 -1.4460966613502773 1.5005636820499062 2.647427901290563
P 7.557776760149418 8.70743949234633 2.7859360429949245 0.250561202156162 -0.07721794124289927 -0.18219993997294429
P 2.714350807992124 3.637398918410633 8.130274004829394 0.9347698057011257 -0.0522422451341681 0.23438896327167374
P 0.9148515872319316 5.80803079337943 1.5661385196046482 0.6204434453728604 -2.0973676336269556 0.7972157865723303
P 2.2853078757098424 8.914837341171332 0.22815324963198577 0.012561124494462238 1.0909679222936695 -0.2548778272536449
P 5.662747580649507 2.1259427734304133 12.663954420508958 -0.36912479622538363 -0.15783308109280558 -0.3249786978357887
P 2.7557605653888424 4.332068726167826 12.172010544404634 0.8503851715064581 1.4559509284365377 0.2892976994944115
P 5.504310248001192 0.7169785337584512 8.859457761447876 0.25291427576937087 -0.7342217022382969 0.424916706384023
P 7.764990892215782 3.52403649249384 3.814217112760551 -0.18172582855000313 0.46351513548251144 1.4509120804610498
Ni 4.5968137612012825 9.024589732780912 13.189738004970373 -0.3231622134523402 -0.2395964756145422 0.1198154641984517
Ni 4.608139899371237 6.580293374146845 13.40881472814191 1.4780768138012994 -0.04550878306507646 -0.017920589034162687
Ni 5.0162483070068635 0.873650348356266 2.062196732518642 0.3474267424266597 0.1556720688857448 -0.5581780116747355
Ni 1.2980048289581378 2.825820951294958 12.147757176513206 0.2365512610303152 -0.6444099834907869 0.22915548278687634
Ni 7.912120458370005 7.3365174818852745 5.933982410181804 0.8626081959352112 0.4554439284386027 -2.4089799374581675
Ni 5.051062632768523 0.5858121167621734 11.030366130138422 0.41248542259920573 0.6296353962847737 -0.6578941340201508
Ni 1.7748049326480364 4.082654854642605 5.79980763126285 0.45669605567814897 0.4812400635661003 0.17556983625093633
Ni 2.91001834177817 3.2262959276092285 4.001202192533426 1.0702219479955697 -0.7403267866947703 -1.6261245333725671
Ni 5.24003369070226 2.9805196479050142 8.929220526205 0.17935424299403305 0.554624232885206 -0.24297053429309765
Ni 5.081127880319423 4.294700737461116 12.64811711733068 -0.23839577043822172 1.1594299717208099 0.8109719598161582
Ni 8.618621625383403 1.1121110267315653 9.012266931195354 1.564968016467905 -1.4747693466946212 -0.7939294025115746
Ni 6.694730543101662 5.504613380652943 3.662470744461787 1.4004991752261364 0.09391828471671566 -0.04069747771936217
Ni 0.20231440611352325 0.31945496717168015 13.008104594376587 0.6401478657803233 0.09801533760422475 -1.1733260129766114
Ni 5.49704425019711 7.3474210715103645 8.575269981847896 -0.9502439900773249 0.8635245371018935 0.34206882054885607
Ni 6.653734148411877 3.4007992908003235 11.118170799177467 -1.067697381801503 -0.0006815994480568906 0.6603238265075659
Ni 3.1284300102834437 6.368229119652471 5.889266669713419 -0.8597475865579645 -1.1007831086118784 -1.3396038824026606
Ni 6.199586321061887 7.981207145455346 1.17262640844271 1.1160009540028972 0.2978047085241581 0.49425730176137456
Ni 8.779006355673266 3.1942373532271193 10.344378776394398 0.8980374832770984 0.4598351155277629 -0.7839560933489467
Ni 2.4071763875515155 0.3060978402349969 11.465400065919846 -0.3232946252651464 -0.41787651170778994 -0.0001540090793610251
Ni 9.015743770852554 7.423048075203172 11.274812300510105 -2.3866100544033992 0.274098880266786 3.3945120613138253
Ni 3.960749599449205 0.9560160827558699 7.294273650404345 0.043997745737188745 -1.3604213333686443 0.34671917483667386
Ni 0.6397458455951575 8.941026165114996 1.9272282972023769 -1.3231043420857407 -0.48310668446119376 0.21710395093898094
Ni 3.321782712910667 7.772789668619911 1.6922196567218617 0.7137595777292031 -0.07282572571247457 -0.46742784027335627
Ni 8.229307442156315 4.063291108282294 1.7367342273395405 1.1699007893451465 0.49704077804378277 2.03646437038368
P 3.178777587987839 7.772413049264706 7.556748864884844 0.6632358579480384 0.6494418894877396 -0.3149151429521996
P 3.6218013656023746 9.191716868112742 3.372178975556101 0.6989510519614608 -0.7720590848010446 1.4702691448314227
P 8.601306320881893 0.21231778362129308 6.717536222935033 0.4014790441863731 0.46439805230809694 0.037808071986709074
P 7.2571059129645485 8.732379042331265 12.524307637934008 0.12939076659171264 -1.719889323230554 -1.1229532169510146
P 5.8245377441429405 1.81759256573453 5.883660552823619 -0.4622781777516168 -0.5215665310992887 -0.8709421697222033
P 2.046347487751051 1.6634358335624522 5.112946704331511 -0.7712869825217104 0.4158103732073807 1.2527535602763198
P 0.23330191179278006 1.8980696918553486 1.1859789424604275 -0.6319236780983182 0.8251549361847594 0.017951956492730375
P 9.04288792194113 7.682823571915506 9.264900438915683 -0.9982521425254872 0.4574432182568186 -2.1394686765620636
