# total energy = -340863.26962348056 ev
CRYSTAL
PRIMVEC
9.30978322064008 0.00000000000000 0.00000000000000

0.00000000000000 9.30978322064008 0.00000000000000

0.00000000000000 0.00000000000000 13.62580879071655

PRIMCOORD
 96 1
Ni 6.4243836147964535 6.059914904269859 10.756513505500685 -0.6809013935486016 0.3128271500749193 -1.737796028307646
Ni 5.526715679309076 4.449378233886508 3.037301940263219 0.3111646747708318 -1.3345547500145274 -0.8524451393592802
Ni 0.9253989873161743 4.047968302808442 2.0398247478680136 -0.4660744115692554 -0.8018532853443415 -0.6544023188168085
Ni 0.48154668467255923 3.372496967850791 12.372247827959107 -0.2035033294364108 0.3686082616002813 0.6313243539514224
Ni 6.877434914422657 5.7602236666760085 1.3109552882336808 0.8466557863710129 -0.34761880383280774 0.08947053335800721
Ni 2.303035599188945 1.5411880937986964 2.493441151346907 -0.624311412968699 0.2550565189233543 -2.816342694118827
Ni 1.1072404697197762 3.850265742417557 9.886818676210636 -0.3050958428689326 0.9400125421573038 -0.5478414056354177
Ni 0.1914901419246564 8.265905321243952 5.4454179957239655 -1.1139394434881782 0.5074768857754421 -0.6215312791204005
Ni 9.357263300474614 0.8250385912307635 12.295644137166851 -1.503432776067585 1.922848864348353 0.9645591211484162
Ni 2.167261718008842 1.9124157070774002 13.543590811314758 -0.30725788351725797 -0.152729184207337 0.0028670371351499006
Ni 3.0938458407524867 1.3201179770609888 10.992022165321375 0.2198959118618213 -2.75469766761352 1.196918712694887
Ni 1.528973657971194 5.827486851777918 6.015195359683419 -1.0122628549822823 0.32031934468690637 0.45759697022586354
Ni 0.99178053592962 -0.365839110643827 0.8459120566033576 0.5699456937336249 1.3316272919550873 0.9665483836643032
Ni 8.707477657931657 6.151467314275696 4.758500282069733 -1.288882444788393 -1.1647223304680006 0.17002216695982977
Ni 3.27507008451633 8.414768757891638 8.29670022279137 -0.17601180888436138 -1.534506357543938 0.4445126262380796
Ni 0.06850138629478877 1.8195506176114424 8.517193132957962 0.6941423177189077 -0.5743836749003205 1.2435487538486003
Ni 4.514472239455027 2.865746837543922 12.885600456656878 1.0399307532111963 -1.1508712835175212 -0.6347475207003584
Ni 2.5589336156451643 2.060264377333929 8.79607328072803 -1.5441207407052502 1.0898937153928843 0.9178774008211612
Ni 3.5877112308266854 7.880675793723965 10.82501023690377 -0.9104736521579223 -0.6189465491123599 0.07205799430851462
Ni 3.178806924107507 3.4915318584685093 10.813714676698353 0.0492376539798894 1.0323004903594482 -0.815420739616131
Ni 6.749537110003275 0.3956639327604327 6.755553092039656 0.0765697661359391 -2.381921647788795 -0.8393913914991158
Ni 2.3203704158892573 3.324048855010606 3.8235112868679564 1.5399645524450316 4.882733933968926 -2.228639162181149
Ni 3.785832731470801 5.9904359907175335 6.493951902269467 1.0889964003895956 1.9929070546180196 -0.8440736274661335
Ni 6.908194438793135 6.8261938665609385 6.940619483414787 0.47872552467436263 -1.0714830740961805 0.189039588602597
P 3.3511403247194718 3.397130654740708 1.0962223410598304 -0.4888847245955516 -1.8357149495433225 1.6472044939713177
P 0.1472528441186021 2.057071121625977 1.2128916157143101 -0.1180915395288095 -0.4377794212793041 -0.691817269130157
P 8.687368525776622 2.8615295056614074 10.625228801878524 -0.09480300131451415 -1.6135392405083888 -0.11675893676031504
P 3.9288123850064585 6.9528255404372254 0.3777100154636809 1.6676974717183473 0.9161475626142479 1.095357566720933
P 4.664220105526198 4.922166274331541 11.138022843571989 -0.030138728366909385 -0.122189363747267 -0.061064985632120636
P 1.567134460148734 0.20282852713373814 9.407490512923514 0.1563590676504404 -0.2788664768587585 -0.9927258133906193
P 7.83177150149693 7.501143853647904 11.3414965386957 0.18729046712197422 1.964619777637552 1.4490228338581368
P 5.25438589514284 8.097947518832388 6.604129464955565 -1.687883716858235 0.49253723374647435 2.1714097482450345
Ni 4.695193754914995 8.038467312657149 4.657682775619131 -1.8009261239989114 -1.074131310352305 -0.8839948891411032
Ni 2.742438756343259 4.452869402663424 12.897141795144192 -1.126063737555538 1.1577561835628125 -0.2922416126140838
Ni 5.384518047579448 2.2862128205759142 9.97114948722913 -1.3351892982747329 -0.15123665882221052 -0.27182011153493835
Ni 1.46817146255243 5.795405338163914 3.713905344882932 0.008695213781152766 0.14937723701596856 -0.3243413213621059
Ni 7.651171013221228 3.317289952258497 8.697490122294656 -1.425362257016403 1.7996793960760038 1.0658251044794547
Ni 2.379180317659328 7.94629114716317 5.557871800452612 1.83021947364639 0.09188942721214496 -0.3368618224266199
Ni 4.23636107979422 1.0495477419583186 7.675527268565674 2.8460237661230274 -2.5130242548652912 0.397489977631638
Ni 2.4993789312026844 4.553759525424585 7.82659619290203 -1.258402273921665 -0.7324856933837965 0.29787618519204184
Ni 4.299658297165553 3.830603479865968 5.412484636928394 0.11482906672745387 0.05078777207582866 -0.8132360732599866
Ni 8.731347942582355 8.639944489110999 9.115489156422285 -0.17331986387449505 0.047583663316234176 -0.12958591332165423
Ni 5.279084750516593 4.516566940721177 7.695148568070281 0.992815030670316 -0.09225889473642175 -0.2976694684978744
Ni 5.015319967083058 0.09795288609684971 12.760529102479287 -1.8325589204128439 0.2988416344291047 -1.5278816531385686
Ni 3.9610242355881335 9.25658730273177 1.4237610027750407 -1.1234314421390137 -0.8256838121050362 0.257419362728576
Ni 7.681809510407441 4.4192890139211976 6.397725980994266 -1.314933376239174 -1.1459219099320457 -1.0311913164556692
Ni 1.948332851454309 0.4810867813723469 6.947104678534787 -0.20938112837342654 -0.9990869797219568 1.1988686373324062
Ni 7.182172054622074 8.84673339810527 13.19180016382924 1.62633819204527 0.46400544485536865 -0.39922470093455764
Ni 6.726644352610114 2.4115225052086755 4.160613889075234 1.3232866332998758 1.585189228610786 0.3618285196742865
Ni 7.093859449241215 1.1187659815753006 11.425690495898142 -0.5269645621864085 -0.11851885687421522 -1.885039249699747
Ni 0.0834929305120351 1.4531734014868003 6.2287385165380975 -1.3805911234482997 0.6063766828671492 -1.5939944856072419
Ni 3.249002690982026 5.327905254692983 2.1305727925876496 -3.4175779419943533 -1.1263326749462086 -0.015640534750734354
Ni 0.6806382647474868 8.328420516809256 11.028838634775218 0.7838596769803985 -1.1972416432519446 -0.29445610376689935
Ni 9.338085146660088 4.979467991189985 7.728695441592249 0.5009493690695696 -0.08361484590817858 1.1067843205006358
Ni 1.184576840466013 6.963904182689305 8.317357701188966 1.2141798137681798 0.2089067598401692 0.6365642621941231
Ni 9.010390080583672 8.100051529881943 3.119997022337437 1.4059676545398754 -0.2562495107901909 -0.3279115552118675
P 4.023800105088781 5.646216059097049 4.101940841121219 -1.2645952901062543 0.3370667393485743 1.935237467820693
P 7.762190180327148 4.513113011077881 3.3270270547219 0.06524997024774569 0.8907720599639368 1.6488556564214958
P 5.798282061236093 0.7811262048655475 0.9725819005916051 0.478254498575215 1.4367864396929448 -0.3758153208716818
P 1.204630113920617 3.7299926506069596 5.868513205287551 -0.30570133766341545 0.13004716922878892 0.6084847303490876
P 2.0905491027507477 5.939725600509908 11.271759744143054 -1.0438704545852344 -1.1142425765508939 -2.1843187429972186
P 6.945284615879087 5.546638615796009 8.756190168620547 0.5040321217599513 -0.8061418854173665 -0.7066113967201959
P 1.3008187960621984 6.839795460115803 1.6893281602758052 -0.9458193786470679 0.555681470505127 0.7944575071009027
P 5.11932886728493 -0.01777237652035224 10.504749032876333 0.8487445505792414 2.5494585864329253 0.32581739168700014
Ni 5.820653470758568 7.039695129390293 12.863621919994097 -0.6824823648824763 -0.8342646117955116 0.369205528864648
Ni 9.44794059084037 2.9351978217460317 4.198275686862261 -2.3573840676587463 0.016440147833894265 -0.5133315447840063
Ni 6.929206619938465 8.022826876536566 4.573094083600314 1.7207763538211978 -0.18563570512737063 1.7153495263786716
Ni 8.596020931005697 7.449334908998476 0.6391985568546676 -0.6323137144478853 -1.027615940399585 0.7208787052724874
Ni 3.837874420705358 5.933031866241634 9.023623937694035 0.41411267378998357 0.6564532878085663 1.8257436972632235
Ni 9.214367434989603 6.167619788483559 10.507270122222437 0.9259041277803796 -1.626781964450908 -0.7035106463076852
Ni 7.8787300489922965 5.514473314131359 12.527664421145648 0.9304297835648749 0.06045923372732168 1.2967492491309796
Ni 6.046117805263488 5.521409102768165 4.9963931774204715 0.7843523003461008 1.012025799270812 0.4878645108611533
Ni 6.951820083829474 0.7891931321860742 9.06042737345111 -0.2514963123759217 0.9945371555677454 -0.1950649688610705
Ni 4.5931492190115994 2.2592237584845045 2.9484884685351647 -1.129552981655719 0.5874659620055753 -0.4557619738996538
Ni 4.924503029966224 1.5583087854806912 5.526519242879228 -0.1574273610139547 -0.8682869914875434 -0.9170343360945754
Ni 7.623958516328096 0.5272996152169652 1.9512980174688361 3.2945141460619327 0.4429848767396436 -1.3230446924923986
Ni 2.831989562916998 7.636712919593095 2.9601526961634255 -0.8097452864979087 0.949302452099662 0.6635420763345475
Ni 2.4518431771362 1.9694008913000698 5.293394818588586 2.341531674007522 -0.6577534946772284 4.0775644397671575
Ni 0.6897190274808296 5.5816713307494314 13.830332140192102 -0.24625563280227267 -1.221908035650373 -1.3862274957984708
Ni 4.753752292533128 4.9056600283542835 0.5639531634612182 0.25886663669806387 1.299901421606716 -0.3872873260670233
Ni 5.707511673036284 8.027100067119513 8.944430265158479 0.03532490055353916 -1.2806312605231944 -0.717800580567796
Ni 7.424291591638733 3.145775812586182 1.7640112427515862 0.3115670524155731 0.39718658745860624 0.6709357976954574
Ni 6.82417364356203 3.726911112299869 11.217120625338474 -0.5174512233793346 -0.40963844006871386 0.21025401789668308
Ni 1.264054461395425 0.5770287542536932 4.250584566880544 -1.5124866587397372 -1.9068802568342385 -0.8310792720889945
Ni 2.1959451606799814 7.295984156749527 12.872370323459878 -0.51431087797814 -1.4418787666141877 1.0127305386473202
Ni 5.88600815026243 0.4160579442876636 3.2811354084047584 -1.5939098963132357 -1.4113839404594402 0.6830948016554945
Ni 4.928981035784082 6.713256884073567 2.4856060376331675 2.6817058486368266 2.3422757512623984 -0.7130959760032751
Ni 7.375750380964497 2.1039645006375087 13.400560884948712 0.12149388034213915 -0.40568973983361095 0.22408706712503343
P 6.408892135210353 4.088465860620665 13.418246680483398 2.60155762112101 -0.9929147894729737 -0.4375593348486981
P 8.85015939839835 7.661411774966847 7.221120464475687 -0.09540206835109376 -0.7985802710200246 1.2515315149437607
P 7.043856602572377 7.657948535540148 2.487895313372483 -0.3651179890588357 -0.5212199463931474 -1.435608874445076
P 8.055885917408109 0.6702522703807476 4.3828505216736025 0.92175796682249 -0.10283872713479707 -0.2050544759736146
P 1.893274792396497 9.245294535461372 12.545663956381086 2.022995132252651 2.6109133513042972 -0.5370358303794815
P 3.7976840857455043 2.9461181976802244 7.315287992640019 0.4409161671360729 1.2604308743159196 -0.9076433817979788
P 3.48770553748901 0.28494640263683874 3.7677540630764206 0.12984739451315702 0.8367583247516428 0.2690685169317302
P 7.466641796348572 2.249215741324013 6.906704873448318 0.49842017488981255 1.9491936728904686 -0.010471331844969064
