# total energy = -340867.10696929577 ev
CRYSTAL
PRIMVEC
9.25771514290039 0.00000000000000 0.00000000000000

0.00000000000000 9.25771514290039 0.00000000000000

0.00000000000000 0.00000000000000 13.54960189582052

PRIMCOORD
 96 1
Ni 7.92248403498274 7.111647065508474 5.840420225317266 0.25126285620887695 0.541553258633861 0.8086096302315686
Ni 0.8329342094404503 5.6505296780424095 6.508306965722104 0.5197641877832274 -0.9132596995434917 1.6401061923636397
Ni 5.078319570761082 8.51177462646433 4.158047152109955 0.698227800642191 -0.26686225330903074 -0.9379528314147977
Ni 1.0529725056573978 8.092177951183727 3.9808730021779057 0.6335079918663026 -0.009754251173286427 -0.6539130378852157
Ni 0.03357217772565489 3.7377376327732965 5.749611298747956 -0.11921691138250437 -1.5883568277054902 -0.881926436647849
Ni 3.5617299549329724 1.7427833667576618 4.348853287399667 0.3139522648182981 -0.04581602989285012 2.3943961261067215
Ni 8.526124084735553 5.516690892089455 12.16777311606723 0.521814642554353 -0.06621259127133111 -0.052061753692245825
Ni 3.343794085795635 1.7081595126064515 13.475865103214463 0.38653630683361173 0.8775974702551917 -1.5398920473358833
Ni 9.064293573911533 3.3244824922770717 0.05784035186254871 0.2981806038063381 0.5169827683833483 -0.40530587413163094
Ni 8.098824990563557 2.3409335915073552 3.935942533901951 0.4149045735636597 0.727287694122625 -0.4905258597434004
Ni 1.0848560761645551 7.781165015298723 6.277733389819574 1.529034021575457 2.1080112293837305 -0.16819256995025875
Ni 5.553499566983898 7.541482773594221 10.356217887558852 -1.676165399980042 -0.2134784383712517 -0.7281613549768298
Ni 6.954284425705726 3.620201682959455 2.0027936990892297 -0.5059190543700189 -0.09957394034059625 0.7335452449965625
Ni 8.52530940581435 2.0914844604634077 7.17238693371331 -1.0898782887739167 -1.3377377757281992 1.512286369803473
Ni 0.5087318069754392 8.755983890810528 8.3327878159326 -0.27996459501894366 2.912452330059907 0.6665099007136198
Ni 7.944174861259823 6.764880834240588 8.723111596339908 2.3587002153670085 -0.43586009276940424 1.9668381254451097
Ni 1.3001164656629358 1.4847430761810074 11.995949925413097 0.41446440070244744 -0.02210891608389741 0.9374329543555855
Ni 3.836498936539369 8.822407996033773 1.0215832971319716 2.3738573827234215 0.0007967848696824988 -0.27456733526277227
Ni 4.738663264623715 3.3653645617775387 9.327111771206754 2.630641940081476 -1.7625228416303647 0.8559480103062163
Ni 3.817289177885957 1.9086445889429784 7.099246356247632 -0.6360685535046272 0.9163612212869507 1.0662840463937442
Ni 6.036446786103199 1.5064616756031304 7.738841519570625 0.33487718789642323 0.5020451732369096 0.13241926900539128
Ni 7.2345154591702014 1.856412560835725 0.2303976793172694 -0.4522611598352469 -1.2995430098260328 0.626094987231683
Ni 2.7447551204046268 6.753919699664377 0.39500725843273504 1.0936611528551166 2.2419196813401387 1.1965536160459844
Ni 1.8383692742740378 5.774536770650822 12.216510356756816 0.01617840953207536 -1.676542837924119 -2.4917190656296118
P 5.763899656100088 0.2811253287347981 0.3174063138734594 0.15095152348162388 0.13448849282959421 -0.041706378599850755
P 2.83639724132517 9.488602426134106 6.525989201398256 2.748117186182525 -3.8837338575338207 0.20906334002269156
P 0.13294634222563412 0.01893387874600413 13.47539018243426 1.6061480902506402 1.5702806869300698 -0.3460468313599976
P 0.7724785530865336 5.291108150350808 4.399907734157178 -0.7186999524536138 1.170273856413849 -1.9054298975409572
P 7.076551067891565 3.1073705597759527 5.941351537482549 -0.029513178967768526 -1.266726220406328 -1.2367772394527214
P 7.426150159953639 9.119654709693416 7.048380766876399 -0.3775369315484788 0.24421032023746972 0.40899257895459884
P 0.2634190229996096 2.059369447080908 2.055501573748187 0.021389521419369614 2.343061223278171 -0.5546787402722253
P 5.104204141939367 3.2069743156082717 3.485987033776945 2.0963096246760866 -1.31878026078909 0.5880825125436517
Ni 5.043964190345269 5.2870347557447825 4.531799622642753 1.3912660866636428 1.8063066715845344 -0.4323214834885264
Ni 2.7322942359961964 7.252697611457093 9.889800318596496 0.484668886741991 -0.3999461524816144 -0.009156726798603585
Ni 2.797070467947004 6.039585151492841 4.836421957853804 -0.16965295654586912 0.44481935884522095 0.34948928138264324
Ni 8.227340590383639 1.9221423374329425 11.610409606353363 0.42707386193634184 0.3168792086571059 1.0258110259803623
Ni 3.982030216554617 4.948267190248729 13.397642965977768 -1.1298586858215962 2.0236209387621087 -0.5444498634553656
Ni 3.3218903320732376 4.58677193439406 8.192401048150462 -0.9837801741615574 1.2702977398076702 -1.6783626647416774
Ni 5.053916233984989 9.206723519397194 6.3506036420068535 -0.7693452854143074 -1.10352981811908 0.6686002075837453
Ni 6.488621360516987 7.860438828960972 1.8063922008452422 -1.0924951575714734 0.9002586592981334 0.8952542641050065
Ni 7.263492107163059 4.654019976253522 9.762325285943957 -1.9832461344894876 2.334588924141102 1.3133644890901575
Ni 7.007229297869034 5.688282639868248 0.6282137284851588 -0.14316210934419216 -0.6510989654751884 0.28552846225996636
Ni 1.009840811408604 4.688079109788898 9.343060036860841 0.5777993854500888 0.6144152369009096 0.031451533641061964
Ni 6.073681315888271 5.5605539458243305 11.812366659377068 -0.3937914457341282 -0.05477760996151211 -0.41581063031769677
Ni 6.157195163026793 1.425003041197649 4.872504827891173 -0.6772447706326208 0.5041668475656027 1.3008722701604176
Ni 7.208056909661067 2.394730173451923 9.659239703494986 -0.04175522955991519 -1.00470792545316 -0.9919650239651949
Ni 5.773472133424248 2.5947338486077385 11.503719995449565 -0.5145692738458493 0.10896386619592847 0.01563256433093437
Ni 3.70174363680006 5.138670614935345 10.702274977856687 0.4776729150401322 0.47501825102610445 -0.0034146821085037967
Ni 4.798440330467127 3.6884217848953558 6.0207521818404865 0.7816356727458861 -0.877095848028425 0.6678903260009144
Ni 9.1546673878752 4.614795037740508 2.212853104292918 0.24861513417338477 -0.6919982747927114 0.441084317282821
Ni 3.3762979232087096 7.107721794342667 7.47320157073923 -1.4994725058682563 -1.1355775905832444 -0.022244413220497174
Ni 3.6831819181976058 7.122358241779316 2.6558301388406025 0.3623640804627824 0.41806471645919613 1.190206590782034
Ni 9.11628490142843 -0.4066479092909521 10.662114084355787 -0.5763623958932461 2.5487543612770494 1.5273720604920016
Ni 5.210649349166805 3.311373567817683 0.2008322406495407 1.4214264122971068 -2.2842665217374662 1.3137905208839824
Ni 5.468634093453376 7.397469758841219 13.255683312414803 -0.7205660591280751 0.17629514445273506 -0.482925164578007
Ni 1.8984796178579442 3.5568696545507836 1.1684189891926486 0.22320697851292529 0.1512608271919266 -0.00470640433673383
P 3.749485673125672 7.153260494495021 11.957469307187182 -0.26383452222630044 -1.337205300263497 -0.7554713556456925
P 0.706415498748823 5.972226017053214 0.36487895069217374 -1.861301282652859 -0.5212482285279216 1.9352927465386605
P 7.539696034596578 7.265538062181085 10.922523424204446 0.8477109671084047 -0.32169745598135563 0.6373623326153862
P 8.53358580303659 3.739505856340912 8.55674953177235 1.9132607064392853 -1.6358885547378665 -1.4721460501391614
P 4.6952075503494415 7.040371917618054 5.920294864683905 1.1188463938714925 -0.4442066649618866 -1.8674585605035066
P 3.170137867568789 9.251512344633438 3.1988988108018273 -0.9117517475393975 -0.5278287099589168 -0.33720763580181284
P 2.613462206080438 3.632829206238132 6.006253674357542 -0.12413311773719912 0.10973905379905616 0.3447065152820193
P 2.178719909037433 0.33398965877748704 10.080754577326429 -1.6946045805218364 -0.08980271988644534 1.2413311773719913
Ni 6.318057219104714 1.3011533297444693 2.6278912807007795 -0.4158255427160322 -0.3080994055819468 -1.7179550823223186
Ni 0.4939426072410652 1.952665023833087 9.779276162134027 -1.2752825946167714 0.0704633961278851 -0.8130023599826256
Ni 8.597871376091671 6.943415868279651 2.0577104645504543 -0.09170944999085495 -0.5856188814945076 -0.38840806993502786
Ni 8.949127599141198 0.001155362833708838 2.2292207444371264 -1.1564989141169437 0.41492797060242737 0.013630446299241043
Ni 7.368020967382662 0.05366975124888018 9.279824288688312 -0.2767833690774846 -0.7170829856754811 -1.4128965204492248
Ni 1.0094242142329877 1.3249456573296592 3.981171100601346 1.3104987375065882 0.006512090086904914 -0.4422024900476642
Ni 7.916725736244224 7.888147169996954 13.189290683422605 -0.6423322750261519 -0.7780253296868085 -0.5200248976437819
Ni 8.640780885180137 0.03682348723846374 5.28290859216318 -0.9879584739089631 0.5859014457319329 -0.8770133156169475
Ni 1.1663795145751321 1.0973077028579716 6.384287838084173 -2.144385911358023 1.5356610399736716 -0.9864389519406429
Ni 1.648845332513723 2.850774472741435 7.885285610286223 -0.6341376550305013 0.7422759400013409 -0.9444183845344831
Ni 0.5814307914349646 6.824870827529317 10.50905720780591 -1.524031169044227 -2.014733920685124 -0.5651225613133687
Ni 6.482650134333156 0.2180321493734802 11.498286642508027 1.1222492489054543 -0.5866329245813188 2.1882882691679284
Ni 2.185561360432552 3.8389614887330117 3.7756100191228117 -2.0088594641822177 -1.8456805453964666 1.3256993565064266
Ni 6.290108177478377 7.292746486606328 7.604836094747424 -3.966057238324085 0.2175225265336383 -1.3805505000183516
Ni 6.834646974583776 4.963959017196938 6.755776797296123 0.2641885631316095 1.798246263173903 0.29983048070493523
Ni 4.08415207087066 0.03652261150051873 11.786094189939709 -0.342126670369985 0.3251370777905239 -0.27230116493641493
Ni 2.743505328877778 2.4716062389256264 10.02446952158618 0.12092978030855302 0.4166454675141663 0.8311497203156137
Ni 3.6089257860727773 8.964550952354008 8.662571694779366 1.6045709755715076 2.601191753141159 -0.05192959898975572
Ni 1.99697244788862 0.5475697730008825 1.3825064261987947 -3.2084084154111 0.667610075756334 0.3592167930830523
Ni 3.8269542323602526 4.610629065984345 2.67150715344479 0.040539097764626955 1.9488830836285855 -2.5356602470972525
Ni 3.6057689052531083 2.3558662858244412 2.1396449455076394 0.5997414369388188 -1.2176472034914902 -0.44664021410404375
Ni 1.7255917899772346 8.248661108060173 12.0440243137077 0.5736113155106701 1.015417084340548 0.7695324617244489
Ni 1.551824479170224 6.423613685690838 2.314799987795202 0.11303392250024402 -1.2128832064439434 1.5171167013125808
Ni 7.863891956661081 5.459672625320122 4.34352824972379 -0.07814071016748479 -0.9517457714338319 -1.0952230980255977
P 0.989446065233439 3.942564577451246 11.386434929712594 -0.6896148621621995 -1.6085728976420492 0.3399641155010274
P 5.282887299418649 0.9224331693353237 9.93051667499822 -0.11365355836211395 0.7914462310784047 -1.5498954384054984
P 5.434824918223371 5.231858774263175 8.468948436810988 -0.19934945516903732 0.5975171755939902 -0.15109961902371397
P 3.7436162818069914 3.340590916400897 11.934110240664632 -0.1742619160727902 -0.8523003862512999 0.028139181438377344
P 5.063266526148818 5.9767252665498685 1.61180614051544 1.4909081612380128 0.14126206410800188 -1.395529747036003
P 7.583059171720715 7.858837244263603 3.7544728042035485 -0.15265153689186614 0.10039232247683355 0.2507473500250391
P 0.8499128587755626 6.793107607317339 8.345470885501358 1.6375176057008574 -2.20496830092677 0.07878631417128366
P 7.064395688078586 3.8974054436144527 12.734863706945985 0.9524029454018564 -0.8160478316771687 0.34250616519659083
