# total energy = -340875.46552613284 ev
CRYSTAL
PRIMVEC
9.19040655575286 0.00000000000000 0.00000000000000
0.00000000000000 9.19040655575286 0.00000000000000
0.00000000000000 0.00000000000000 13.45108897487344
PRIMCOORD
 96 1
Ni 7.371055103018329 4.110390845215241 3.8259468506115843 0.9131103184498209 1.1985390219071292 -0.4850542951058679
Ni 4.991916238490014 2.0242421341263195 0.6077487032852033 -0.6502993523920284 1.183714041079155 1.1393812806000507
Ni 7.237564451239559 6.810320842296946 4.109146464199693 -0.5698672750872057 -1.766868263083254 -0.2936788592812426
Ni 4.887320224177161 7.012941730404797 2.9493668149768912 0.47337737298857185 0.41200025543267105 0.09365448953236773
Ni 2.8278880242566307 7.846373727413938 3.906330739477885 -0.28091641740925166 -0.6342196732213465 0.3569557649630175
Ni 6.29333291565246 8.430056432713057 1.3391405379787154 0.054916963752853806 -0.7222832989294979 -0.42820797554078505
Ni 6.995746480182554 3.4080783751546524 6.028240240593407 -1.579158963256306 -0.3763112866714939 -0.07885162019158032
Ni 6.4821681942822975 8.87853907065813 3.677514436239911 0.8020708006717864 0.1165293372480122 -1.0653872456110876
Ni 7.47503536010783 5.088489028086662 7.945315803759541 -0.7461981578738827 -2.2274806230966737 0.6291923952100841
Ni 7.016516798462761 2.8887652757115414 -0.005043694987689435 1.369042756489068 0.08482840660030551 0.044478027807716945
Ni 7.660718329370361 8.515674257977842 5.899526762019084 0.12123008515779121 -1.0939794554264837 -0.9561433862808953
Ni 1.3746182634907007 2.1242613260924714 7.348948499659386 -0.027120253255559744 -0.768392948803367 -0.1961443179681783
Ni 4.334930852393136 8.98259285099818 13.528970138686992 1.3125808168465976 -1.351375421116292 1.3462542978396428
Ni 8.192631475876379 0.9172613692043128 1.373463948457075 0.15016425169363815 -0.6531779594914041 -1.0613824953270687
Ni 5.364679118775515 1.5363694146993996 6.962929377299826 -0.3640594658873343 -0.5676065040774869 -0.9438504278461551
Ni 6.137720955864636 6.965960373303725 6.804636575988844 -0.554662028101677 0.61007315788213 -0.16246800876165568
Ni 2.815085788254715 1.3492527420511546 1.4419563705876404 -1.2490835676239003 -0.0996112213364349 0.708867025523592
Ni 4.981439175286723 9.036825438684687 8.76514599941704 0.41968656833333534 0.5000042315474809 0.10578649690921134
Ni 0.4802134348009353 8.652574550500841 7.355284365775481 0.18556731378328042 1.7359576895473265 -0.4283833247763848
Ni 7.468353934714153 8.932744087125682 8.288238353768934 -0.5919648783171934 0.6846253793674081 -1.3341330890960765
Ni 4.738426451408291 0.6060595066038306 2.4984992665921206 -0.5090318889673878 -1.5047633219535503 1.176230588217916
Ni 1.883132635509367 4.190430093844591 6.276291145215738 1.943727250459259 -0.9037005951001468 -1.4575653241115092
Ni 7.470467728167448 5.384925583895559 12.725133088105252 0.008762833794294586 0.14976675914490337 -0.5970579765693846
Ni 3.9663404165763123 6.432043718220237 5.559025884074663 -0.30190073297040265 -0.2960396462039353 -1.082799013329632
P 8.288790697188686 8.029354717218778 2.2733416641096116 0.2234088101110862 -0.152803231978382 1.347346245352241
P 2.394606318362647 6.011224203294378 13.189370839602432 -1.2883628248394974 -1.5049875221492146 1.6609115591447656
P 3.7866771634525134 3.1544415415718294 7.185504475606787 -0.47516557523724623 -0.15773203673856706 -0.48722379195336085
P 6.801084483946676 0.42395620060242334 12.918103130537862 -0.32798663142417706 1.0213162234338022 0.42335193300006446
P 8.453969869954252 3.5736435449856017 1.7811797820537656 -1.184661749704405 -0.14837090723864124 -0.11160876001794327
P 0.9222205124538704 0.7936200758772678 5.316798020895845 1.0786572232471163 -0.43941130045577226 0.9667247613411674
P 8.051430073196238 6.982337677363605 10.98935115614385 -1.470083768293494 -0.8781687693776294 2.4645998408153167
P 6.638037485447043 1.1889628654471252 9.711430671775734 -1.2599130541392367 1.5177363371744506 -0.08763939368653939
Ni 1.4808961221598709 9.12198374363354 10.975146464137705 -0.5016332825104716 -0.08429490269433869 -0.9211905243547941
Ni 1.8279901975973105 7.112418688398147 6.343977568712155 0.9971342268709601 0.3818011061414715 -0.9215088269261614
Ni 8.471312166677592 4.961238662198273 10.232175636523293 0.0017740611812872673 -0.025887923510355414 0.5271365689878986
Ni 6.06431718059737 2.9510946113648027 8.526443576102066 -1.1655497114653024 1.6354823204383833 0.2912378539399178
Ni 4.103498040476234 6.742412930008247 12.551479441673235 2.602111436741951 1.2562322628535396 -1.0759408527572178
Ni 4.12900141801056 6.837230351998029 9.721168826311 -0.4118269630796004 0.12840706252220466 0.33292932014143306
Ni 2.6852621085970974 0.9590832321980801 4.1640940654977925 0.6718289989336881 1.5940299668308677 -0.6351054182604094
Ni 8.13680894789674 9.06874371982945 10.476191952771726 2.1935559453247704 1.3905703461481986 0.8000578840068157
Ni 6.648422644587147 3.3439201486439742 10.819382862645623 0.3006709743283596 0.6114759517669275 0.658610443360885
Ni 5.141214389136906 4.912419223833465 6.9096222635296085 0.41301121319568873 -2.266283454896484 1.3349057055960427
Ni 2.8218315464926236 6.026884655661402 1.942902443002877 -0.012161575063198411 -0.029167365592575573 -0.21134056609264248
Ni 8.45244426250535 0.9078053601430269 4.050540162146127 -0.21252867286347268 -0.4267234205754587 -0.13763063800300168
Ni 8.035751240016577 7.677711390653593 13.343372640203224 0.03907228341111336 0.48719062472258023 -0.5551135138167987
Ni 0.5042114237802623 5.039623637690261 0.38222991783437016 -0.3782373000496131 -0.24128491906055866 0.2245318679719359
Ni 4.694257358640733 3.3472011236997417 4.550826363387682 1.1030760184111132 -0.226211569667204 1.187245194160865
Ni 5.983891934902635 8.674732620135169 10.970667979138614 -1.4708571561244088 -0.48443183103052057 1.079883896565366
Ni 8.78121266774335 5.142170191394049 5.64547544111129 -0.6967383605808583 2.8030115242275597 -0.9967457331832897
Ni 3.0946028060309296 0.6895212625462557 6.5066817650561015 -0.3263930616848121 -0.7760098419186765 0.17908273450020126
Ni 3.496526845565591 4.187994636170142 10.187558970968016 0.5730765260531228 1.0307526862563536 -0.07324301575555127
Ni 0.13147335759182072 7.402339246127102 9.391563175057371 1.8821547290631004 -1.0623345748276931 -0.9734080868986139
Ni 1.0779151858985618 9.116726831219257 2.6917918922865165 -0.2760269505274343 0.04197814420399867 0.5689380784047169
Ni 8.335193058691681 2.562404756929035 9.010655756692257 0.8161956701089428 -0.9232373795814938 0.01779717608242096
Ni 2.5862538613259995 8.777224031401044 8.724792763352998 -0.2965260989220506 -0.8846021837077991 0.22765575831289825
Ni 7.879358095691666 5.815266359767567 1.8078797504907833 -0.8435830609829601 0.5849964174191603 -0.19841100251516797
P 8.877656791651537 3.535439025918865 6.992884587654919 0.9845535619924722 -0.17203199830100693 1.276293295269473
P 6.538560527453693 1.1980797485152517 5.176759204615018 -0.6608629868404876 0.9726778936008088 -0.2058638592487874
P 8.247397107129368 6.891416987652943 7.411092189105009 0.842649236314781 2.094807071988631 -0.7363084095639965
P 2.9620036236650713 8.179305386714297 1.7329705866685186 1.4024221032804622 1.2910599120556863 0.44998676197877335
P 3.7921546456184445 8.63717142951074 11.390691604877277 -0.12070609433352117 -0.8490466552006926 -1.3282828009628866
P 5.821304456718937 5.320317027475267 4.944580131705041 0.6319429613720278 -0.04997221815306877 -1.3720452907608176
P 5.461251908372165 5.011160949321321 9.620715847166608 1.3573290675965655 -0.3545091031947379 -0.49497489665368954
P 4.015334472661174 7.650792690546192 7.414535834352618 -0.4277693453414697 -0.18788079240780547 -0.9326915830158582
Ni 8.328272682733719 1.4408994738609926 6.440488782586469 0.3204723253250029 0.8913531292783874 0.9861625583508048
Ni 1.112324067155685 3.899029880698329 8.977216463301755 1.136818919189513 -0.8452776750765636 1.5581633348412458
Ni 2.7095431620910393 3.9026509007878873 0.7441536329076257 1.5743435441455336 0.7776095823056285 0.1950549415587415
Ni 1.4573319203587853 4.509870236669134 11.75344061843795 0.6941896260170755 0.5871602578396985 -1.2485202389212626
Ni 8.815548025749923 1.5155255731686423 12.157577707814147 -1.1273426042679617 -0.4563607838259172 -0.7629041577746539
Ni 0.5885030734132637 2.162015515249593 2.660840441886479 1.710059738734642 1.5713116992977456 -0.3484040187382645
Ni 3.381793813083239 1.882305498940686 8.884403468930076 0.5907950263788083 0.4438472247399388 -0.6028177618712973
Ni 1.0403448048678139 2.4793051029955655 0.327064503906517 -1.3568747536679664 -0.6128221813821768 -0.7140699098807702
Ni 0.7975673553911391 5.530777332172948 7.635120290650953 -2.2420870601559386 2.9340501108353405 1.4142581766834417
Ni 3.0915148295078545 5.454726719885905 7.829892571762656 0.5460719724398209 0.48877879514530664 1.24390408030549
Ni 0.3255361393357212 3.24558280103414 4.683924584816645 0.5592259933232756 -1.723154624245387 0.20617110607656103
Ni 5.12793425200642 1.7866149883506306 11.860188106870003 0.14756023841188778 -0.7668723983937825 -1.4918700109306502
Ni 6.73573150461457 2.1390946418908143 2.784806156556573 -1.1261629821375638 0.23386985754341014 -0.14857530993996346
Ni 2.8129536139887823 4.090208712939429 3.319056423389428 -0.08503486618415677 -0.8145583916158359 0.4077905882266977
Ni 5.022308912185876 4.609016340035012 12.921411676812586 0.011207695790361343 -1.5711800588158877 -0.10856225988213562
Ni 0.7463676017897947 4.922868715817801 2.7897156716120097 -0.9527364174818753 0.150063978670348 0.5018525976101292
Ni 2.0027917257785295 2.482108176922762 10.658575566165851 -1.5102127751038958 -1.9173122508008398 0.5210672228653671
Ni 4.929926947870544 8.700520900265374 5.320215013965129 -0.5569431108263698 0.13952708369476616 0.6000872503140118
Ni 2.817870481369274 0.9628788700076933 12.469979837479848 -1.57637934362864 2.226182216000224 0.37966760473823646
Ni 6.661849828218733 6.967458409533669 9.313116623843047 -0.3575558604408616 -0.9598468032744115 0.2259079223838561
Ni 5.636862192309427 4.796546580967598 2.3563613615081085 -1.201339724580718 -0.673134605118989 -0.3736877330057177
Ni 0.8626317559648384 6.992244935375139 12.056708403263517 -0.4871338033427159 0.05504629024186648 -0.8803472650861871
Ni 0.30095455955515826 7.290740142199419 4.286135309084757 0.7085723771013087 0.20463795726148626 -0.18048938503974074
Ni 0.9989695956211343 7.461019990471849 1.1499734856807737 -0.7069582385366534 -1.2197922748589507 -1.3315884682973518
P 3.3674200176008293 3.1125700503839413 12.256349761642856 0.345245932725257 0.17877497345179535 0.01757528987960199
P 1.868152273209925 5.632276179556408 4.559891780180425 -0.2003231319362163 1.0046724442295343 0.4409758167294147
P 0.8787021004536752 1.0047044091639883 9.154878045929346 -0.31017325739184004 -0.2698781573172191 0.54167949979908
P 0.7787058845033201 9.192612016192566 13.0616260298541 0.7138313115074029 -0.6074958840732569 0.4855296920803896
P 1.9194623116870937 6.0610729671668775 9.787106315484975 0.02887477405282124 -1.027776120126533 -0.007581926112315975
P 5.888183043499943 6.250303433268417 0.6205187728650037 -0.18204618800389938 0.25662386341047416 0.5549520485382701
P 8.680798288305494 3.6445015777025946 12.083866053935205 -0.2630328522606115 0.5842163447200261 -0.4844673122541463
P 4.2144170543363355 2.6700703669523254 2.556352874368187 0.5180433484373788 0.5093663894886712 -0.18955715166896386
