# total energy = -340897.5579067786 ev
CRYSTAL
PRIMVEC
9.01515132562556 0.00000000000000 0.00000000000000
0.00000000000000 9.01515132562556 0.00000000000000
0.00000000000000 0.00000000000000 13.19458523051793
PRIMCOORD
 96 1
Ni 6.5149433251054845 1.7935282893569586 11.447622120825448 0.20668764070166337 0.4131582802965143 -0.01766604982119538
Ni 4.53151087373821 0.3322173403390532 5.84790597024877 -0.031181053588494684 -0.5059097983986385 0.5686174618405045
Ni 2.5095206202860494 1.375639966270028 4.636511242375777 0.7522968145724528 0.674476206748548 1.422200314348654
Ni 3.456778627362809 4.332934136182965 4.856702706673768 -0.2135954235650902 -0.4336751693029434 0.2757508140479122
Ni 5.060141315321923 4.4688285267903 2.7555702430409204 0.3337358752031285 0.35706606528863666 -0.2238538680683048
Ni 7.315245350937043 6.162000151941284 2.4955579539617405 -0.45919131129617685 -0.6506189405149763 0.3636987401138059
Ni 5.131324949940173 4.585304281510133 11.489792294033881 0.433330384369015 0.08558662492256873 -0.4719249568127614
Ni 5.537574712706415 8.163066239239829 12.235365139389192 0.0572803217787078 -0.630753569049617 0.7869838244316769
Ni 1.9904282087714997 6.227513256395544 0.4881704425757708 -0.2801309453934788 0.628222317987331 -0.5979748319566992
Ni 2.598491148407569 1.564074658619405 0.431128875792582 0.5937368826159516 -0.7386254877329472 -0.9318886274985886
Ni 0.371334983319303 -0.18451490456670022 4.533395941873808 0.3337271334523801 0.3483965625390968 0.7488471654609554
Ni 8.53169577565577 2.4367953947965066 1.360994852992755 0.8375304270309769 0.09066378233515998 0.6467730844063247
Ni 6.802995439254719 0.8862200237248943 4.752122444086505 -0.2719864619094735 -1.5999967259372638 0.10638890637990064
Ni 0.7451590499109083 7.243719140569617 2.481689946726019 -0.11977612632008403 0.6965167314883552 -0.34894497884339903
Ni 7.4644821654596525 3.7614096047419023 3.824727519856047 0.668697652393558 0.2741225344158698 0.015513779364882959
Ni 7.63222708558906 3.7574970290802607 12.605737304550283 0.2068593903928373 0.2578536220525172 -0.6937466249423859
Ni 7.852674580183802 8.729659482923015 7.024110956560355 -0.020701751323725637 0.886127876323706 -0.22235054404990096
Ni 7.056609675460472 0.7199463762866857 0.4806229579123463 -0.9875810359648863 -0.4541858876617855 -0.09879566741367503
Ni 1.8530913939571085 6.462898856684618 9.152252813470339 1.2768003168128785 0.5131124867946647 0.38970467725926433
Ni 0.05124662753133831 4.962615408622298 1.2184725231539946 -0.0939167420548189 -1.1269816213841173 0.9823861220275081
Ni 6.43408643314866 2.10839146345486 7.082285727861212 -0.7637029995268653 -0.1251222211233458 -0.1181056805961966
Ni 3.4774323389776036 4.213474366384784 0.5423920700341637 0.00540471595533908 0.6675188015941084 -0.5488911870561709
Ni 5.889652431346382 5.667555164064816 4.759049686340895 0.30944460675593155 -0.126568209541253 0.6060303552713241
Ni 5.219592296260753 2.747529629601708 9.645030899872527 1.0900927187775677 0.28846517629078705 -1.054834666906222
P 0.28170995521383146 5.636714331487685 12.37369722690645 0.14257589782341898 -0.32237057078898024 -0.9021059969195174
P 4.020793537775884 6.161702651948579 12.677872037630062 0.021159664796750653 -0.31078183751011634 -1.12108865293845
P 2.348464942416869 8.342954568162392 1.3060493088854455 0.008686986251036652 0.12138178024430708 0.6389597590094932
P 6.333801890153039 7.769059051930982 5.7589877300047565 -0.45835930231318484 0.29820734327921544 -0.7092987137443719
P 4.699517233255145 1.1643338350875074 12.438785717734758 -0.850546893895303 -1.1249532781001788 1.079243948988522
P 4.025499446751406 6.148684773479891 8.148527504747825 -0.526317672631029 0.7814616090618671 0.8447387718539581
P 4.576144887795323 0.9981124755268045 3.687174341410597 0.39150007859679026 0.16299457068908701 -0.32682886367065
P 0.3207140072877756 5.362049717010196 3.507015557949208 -0.9088147763982607 0.00019668939183837094 -0.03210202274086729
Ni 1.516663977963708 0.9344204316339547 2.5427017861391317 -1.0040785193992774 0.8466709558796645 -0.13571645169942434
Ni 1.7697823808482864 6.514672870566661 4.6558018631149025 0.49455195018365794 0.3372526301071353 1.0727915084949589
Ni 6.045749776003804 5.635289937583216 9.217790258833093 -0.5183631936706428 0.3141654092703686 -0.3162240915716102
Ni 8.49560812502547 2.3963353957885647 10.123849024495792 0.8758671178276464 0.16537078423074744 0.10121353282654827
Ni 2.3708946388366012 5.050936845850642 7.0566484406110375 -0.58232864077901 0.6229315019020368 -0.4352317151567859
Ni 0.4794572988500186 9.281278560306696 9.325325688014562 0.35760136896681644 -0.19065989781483939 -0.0801032332104943
Ni 1.6186523845539151 1.2249517123890676 11.396744212982039 -0.7039410489768844 -0.4632210012808603 -0.13891438981143175
Ni 4.066311036659818 6.833646953654674 1.5966896729712172 0.6748526162513603 0.16107961305456128 0.2978795276261515
Ni 5.583840469147761 7.859958822429439 7.831315883737809 -0.3465741646183773 0.055653070587929954 0.5050708474371107
Ni 5.233809189851556 2.642881753379741 4.924944697424752 -0.4899699872399303 1.252852033527397 0.22179055778137285
Ni 0.7839692762320292 7.442304893276154 6.987311108977819 0.1181848705735642 -0.13307361475993856 -0.14496496688088584
Ni 4.887302834711347 4.606688220379749 7.017171093094153 1.4914442362471412 -0.6360988925219304 -0.4681114966039422
Ni 8.282868584787186 7.2750918670731 9.18641302475396 -0.6722532309553003 -0.3717383225888307 -0.008980092011423243
Ni 4.550767236902417 0.48239713968702613 10.359609655078703 -0.3368906187820263 -1.11718957499436 -0.1065457436727391
Ni 8.071715711176665 6.800552333254016 4.789423534080993 0.4238648680807409 0.6989978460389962 -0.45402339394199226
Ni 7.323088532562914 6.180264848463141 7.040194887984167 -0.06953265678349961 -0.6455201858358302 -0.20149375520554974
Ni 2.373184487265304 5.12940472271453 2.7026071307031847 -0.10569110898192764 -0.3923814527604791 -0.8349462112435685
Ni 2.440230167439561 5.164671994577067 11.368230190953915 -0.07845695585632294 0.6853913109991551 -0.03006468059586435
Ni 1.230757469822471 3.148370301591487 3.76522030919392 -1.1657258320318504 0.9665892642045676 -0.1615411260720121
Ni 3.768603695474598 2.5969946332927476 2.283969648543714 -0.474809220339092 -0.5902031584310803 1.5775700215026316
Ni 1.1068983061927662 3.37762559900057 8.208931722963715 -0.6019266175155956 -0.15655087194627232 -0.055712720181271796
Ni 3.543233928273274 2.6796816009622764 7.117845090625679 0.7915043380098497 -0.27313780190509734 -0.33065286540243055
Ni 3.915469525206858 6.790599606225324 5.9750890201606115 0.09177784133494517 0.9341851368422492 -0.10941689457294704
Ni 0.8041803439182825 7.483017316520333 11.295475215465101 0.53417753499508 -0.4907143216051226 0.17636327868650917
P 0.2522908119957795 5.607613423110315 7.990218743477958 -0.18579254242020904 -0.6815747654665423 -0.8364384795183787
P 8.539547972432935 1.6838950344693508 7.954975812523915 -0.8554728704420106 -0.16643419249825528 0.26576850602421975
P 1.8129108646392835 3.269425753168725 10.342008473692092 -0.27157559962430006 0.4977619724805234 0.28494610739393506
P 3.989952705198751 6.152083485517769 3.794564626656231 -0.5697135231181608 0.5000155444013905 -0.3325755363464401
P 7.048342781723779 3.9936849778345103 10.367143617015186 -1.1233427390799493 0.4126232337286506 0.2642839510588932
P 6.276726967310061 7.745583597961132 10.110799592997578 0.5063479143773215 0.05893379822173076 0.12879427065829432
P 2.2222347939968143 8.505083049035573 5.778185494685553 0.8865204837764346 -0.3638666331502379 -0.22848751018557423
P 6.839200286851844 4.000374220094736 1.5634399919683002 0.6528367741019014 0.5011360311590788 0.015203190102999621
Ni 5.379908731723818 2.7989430374319877 0.3833170209042976 0.20937521483615557 0.43184840050684975 -0.159679390272925
Ni 1.5796528400556178 1.128399442029206 7.147876362616601 -0.6971417666668639 -0.0337657835965354 -0.6450792416436696
Ni 6.68250794220901 0.7113152704377098 9.119780238508973 1.1804837070673153 -0.3142813660229426 0.3145536458477228
Ni 2.8002141737644566 1.7310623060401067 9.26653067430467 -0.013395961690931768 -0.9507893210578334 -0.60913341967668
Ni 6.261256967689377 2.0310504805027354 2.5647501416591236 0.3378714946380568 -0.38903387644448484 0.04548872846041844
Ni 4.215538836031134 6.944019450948399 10.394325199682042 -0.7047450329354185 -0.22993452704474593 -0.22774111893785293
Ni 8.15841442117207 7.147175885361048 0.3919517328137911 -0.055147334596105026 0.13126021570028362 -0.41958141021403866
Ni 7.5887740563514745 4.004196644243437 8.161246981708677 0.6300534576587988 -0.4927141256439708 -0.08223853438594224
Ni 2.9745311391872655 8.211838207740934 12.408174771515624 0.6949889819899192 0.2659978484262064 -0.4411984742631821
Ni 0.2120264417709196 4.9385088940618616 10.065000821393266 -0.5929354697605789 -0.6421309576486232 1.1595595553201385
Ni 8.489018049429479 2.1892844160168616 5.789203812597207 1.304793973812327 0.9645051279820293 -0.05203424288842006
Ni 3.6850512732808354 2.770401068434852 11.488525665277061 -0.9556492202532962 0.10060392426700737 0.36272969133231725
Ni 1.2919252713529714 3.3903099168713755 12.574003971995035 -1.3093833929552223 0.3470678164253442 0.1987614438760512
Ni 3.132242195926333 8.310977826522205 8.028746795563572 0.24009346985561877 0.17069656731903504 -0.4089537552968634
Ni 5.5263418341939605 7.807346399477044 3.512464315391365 0.33121593699475216 0.646319284698358 0.1570118707430909
Ni 3.0876171970205153 8.371550628067293 3.5682383519026026 0.1468866093836309 -1.4255301500528352 -0.22388934929193052
Ni 3.5762744577661674 4.276679592107752 9.282812939056953 -0.6545149331352728 0.7786627061604913 -0.24489500500932018
Ni 7.2605323977331215 6.117654622725584 11.376371774087621 0.585409850807495 -0.19758850661387262 -0.2166133844558076
Ni 0.44741835266589985 9.060497505114071 0.4716826323739827 0.49494841429112824 0.3675564232969993 -0.7831773062013933
Ni 4.492628526206737 0.33875693108779675 1.4822666682010517 0.4513414762344549 -0.47672057842919185 -0.4084634459240062
Ni 6.089770759772917 5.665481679267173 0.2212218960909064 -0.5800236467949171 0.41009326821794534 1.3112459000852579
Ni 7.854684958922388 8.679859787174381 11.452859923727324 -0.16659462933551952 0.41342773190781695 -0.3823852607797157
Ni 0.1694145261490748 4.756970792452475 5.622410892444457 -0.26729214175759775 -0.5424791128822399 1.0634573755782266
Ni 7.762811552084166 8.771147209178485 2.727294221006961 -0.001444702866326544 -0.29568663373989074 -0.8350207732352458
P 8.5201834274532 1.679946398202533 3.554080056795211 -0.2632128294819015 -0.6016664218756735 -0.17044305654733224
P 1.7636971537247659 3.199260830646708 1.5912805821947542 -0.22780771050973025 0.0967531830623495 -0.1427767009803154
P 4.713301399583831 1.0719916403819927 8.140558111003838 0.05502366453404717 -0.022983862489683 -0.5857849747587267
P 8.59734410737944 1.6313907933324852 12.31222381174708 0.31765491048086586 0.05103922596500242 0.35675470469580495
P 6.2289106048461305 7.786593521198014 1.2208813715797793 0.1731663690157663 -0.35640323489365716 0.9422689422916483
P 1.8042563193969432 3.1327740898526857 5.956933406969414 -0.34182045198347577 -0.09048740465829577 -0.31347069719618914
P 6.818979302499167 4.063056567042646 5.978189330690654 0.28172734334632127 -0.16072968591431028 0.10927676945065697
P 2.409281153046899 8.490803049385711 10.096167100932117 -0.030763763545417988 0.3128631455191774 0.7744856919646661
