# total energy = -340863.3127205982 ev
CRYSTAL
PRIMVEC
9.34343693765512 0.00000000000000 0.00000000000000
0.00000000000000 9.34343693765512 0.00000000000000
0.00000000000000 0.00000000000000 13.67506440733956
PRIMCOORD
 96 1
Ni 2.4864380697415958 3.06133040238274 -0.018945687121462194 1.1610543946981102 0.36550673985682214 1.4386713154204835
Ni 1.688919664681909 8.330804604687698 4.6405917535407895 -2.299992160002839 1.2216792074690186 0.972850414622931
Ni 8.468937976687352 3.844525318584508 6.05649432159768 0.8372710027220033 0.5266349467611318 -0.3106327135267618
Ni 6.3086325739944495 7.903893626600836 9.515218850370575 -0.7845677587910165 -1.535142705576356 -0.08487185824373127
Ni 7.778850409780533 6.069767608141424 0.037124278068602724 0.8961392378131212 1.3101297842029436 0.06641108043538241
Ni 4.584413404482002 4.5411346044886045 3.090934148043163 0.7646501939314831 0.6916738015737571 0.1946412510600906
Ni 3.591000500143045 0.9188429339703673 7.0504939937776525 0.5879971519186971 -1.0433937720591322 0.012817206369326312
Ni 3.3096042092533287 6.12346434034394 8.02919098490642 0.03844544846039186 0.5546314319740577 0.2961080375480255
Ni 1.1819634621685706 6.3412505124177985 11.75427821450224 0.04767750858162111 0.6734297677619048 1.524341244085478
Ni 5.324460328807795 0.08052360839876978 12.863435747200052 1.164341035869182 -1.3281671013206289 1.2583999599288198
Ni 5.073673137395276 0.9848449726476909 10.463502954198281 -0.5396948652688834 -0.26507045151593056 2.0387040583474763
Ni 2.8213815978424868 3.1441132538381598 2.4038028445901256 1.387625918807894 0.3814169833291754 -0.0368513645003946
Ni 6.671027119880445 2.6656358471753996 7.115656057472376 0.6213916682187427 -0.5431545416827098 -1.105379212622993
Ni 2.31929332598471 7.497360684521229 2.562433848590106 -0.3436492776620985 -0.08039685319151316 -0.860100599022009
Ni 8.098797721562468 1.123613698360546 12.681324686122478 -0.2308336418202476 0.056929880417824534 1.1237536013651226
Ni 1.1484018366123778 5.201575445924988 3.750331327571243 -0.2913065023943241 -0.5414218752623192 -1.6713384109050442
Ni 6.189447692147346 4.7703104262153015 1.4657750315121496 0.5896418866109716 -0.9613467848587056 -0.6727669373669253
Ni 2.847085392916286 0.6755061991888351 2.2112579674606034 2.951350549787001 0.4420063148764582 0.39722823932981915
Ni 8.027535327877311 8.58783321198873 1.2714558357041417 -0.3146945423009612 -1.258154419576917 -1.03803507885038
Ni 1.0039429577915824 6.671541008913182 7.1766191805977915 1.6975317814709603 0.9407139390997025 -0.9714231952581011
Ni 5.224448179600255 4.318658027061402 10.991360425188569 0.6517247719846453 -0.46650275735592567 -0.08752292271333315
Ni 9.181038681069221 8.461500600868106 12.010822831768804 1.7742717546361766 -0.5793099085573443 0.7738444588362415
Ni 7.911125446806987 1.3115569327878343 2.338011967588072 2.343434804567506 1.606793437144123 1.5004765216527385
Ni 5.437403794766388 2.2029955661578913 12.59384582325154 0.8492677700725633 2.7806413840624757 -0.7673102572621495
P 4.17458222915592 1.8046474748542376 0.521571206604373 -0.750809688503965 -1.1826336635307826 1.1457550453368783
P 6.091425695012041 2.8028068451682913 2.7239089948003614 0.2939899627637582 -0.7775879850390738 -1.312159927259095
P 3.0658713127447412 7.924252975734173 6.497802601694435 -1.0488648224760324 0.5010455283278016 0.4052935328364568
P 1.8763396666395014 4.390733299761979 12.159006004561396 1.1234458403167167 -0.2893432080203662 -1.7101528126690804
P 4.5404899073384435 8.293234644676158 11.4186647619714 -0.7537690282426052 -2.0638664165457166 -2.358048954936255
P 8.74462542759521 1.6491820272959155 6.928485525281586 -0.23808980916202865 1.2934075863522563 -1.1582945725647857
P 7.164220439753396 8.100825247382538 12.758109985394013 0.26951717443337453 -0.2915427867748463 0.42899010512244834
P 3.395937566753112 1.9007260371021024 9.174669260094374 0.2102203364452702 -0.030416921728960523 -0.27983166898550516
Ni 2.652228015139448 5.7694228270991585 0.19928803558272498 2.003420295444517 2.3089853646403844 -1.1437434142234884
Ni 6.047063056331416 6.992413320954043 1.5026844105306987 -0.04260446493408792 1.962416085118014 0.946029694885661
Ni 8.959832811068425 4.365720919023135 12.012176695784142 -1.7823984975083689 -0.011011520619155231 -0.4600505739726786
Ni 5.149934269853418 6.62023619657213 13.19820081565503 0.11639461144236082 1.3804471416712676 -1.875533624202157
Ni 7.719715797267965 0.012292225663064392 10.479215812131981 -0.7328921847935959 -0.0022630850025638443 -0.5634953101225908
Ni 8.414007910806266 2.8407131689103498 8.973850769537789 -1.422706564561111 -0.8742995162302104 -0.1550308357573201
Ni 6.051557249508623 0.17301429085443595 5.607117983686957 -1.3231814751805793 -0.8591282078064107 2.5821892438967273
Ni 0.2398067842984783 1.4479524255131413 10.72282350658532 0.2941961652372933 -0.6245947485370728 -0.12785993176948304
Ni 3.401851962348065 6.4083270463453905 10.486983011275875 2.429254114326171 0.23220866779090332 1.4849689129354424
Ni 4.513225758292516 4.499145198795528 13.056636533604085 -0.5547895548184768 -1.3025997943744856 1.615430801104147
Ni 4.0971438236409625 8.789006753149751 4.509365984484814 -0.8200129869725039 -1.7723321144113025 0.8274146787532136
Ni 0.6037299164709417 3.04343772060654 2.233699034348372 -1.8911883000202783 0.034978572957713956 -0.6818735276538838
Ni 1.4952115296510098 7.044848689167115 9.645132800877526 -1.3743577409440784 -0.2106329985026566 -1.9624927039922204
Ni 5.686462450341519 6.353705313883947 4.617754524925966 -1.3056185265961515 0.18850377070378502 -0.8655698496666964
Ni 7.249628796994253 1.7797845891067348 4.796515029510096 0.5735105282667479 2.0959332151732744 -0.9633121361151927
Ni 3.174021595543442 2.3030357456763095 11.392449880895951 0.6706725167317417 1.416054349351916 -1.2682963931069253
Ni 0.562603844352863 6.908294358013507 0.9906958328713235 -0.10221214929439172 1.2509856697426198 0.25051492229925887
Ni 6.69896399638741 8.961131548805705 3.4831342578278934 -0.42981002992058237 -0.8440576866265336 -0.7209344982110875
Ni 6.059377706243182 0.6705224099149839 1.3760668245828291 -2.376897969321958 0.2994085626761682 -0.4503742272251792
Ni 2.6915825716101285 8.994226002513955 10.485492733080939 -0.8859278444977581 0.9209318713767688 0.8986810303983683
Ni 5.337559827424105 3.3441749260010774 8.770420788351204 -0.3163444191995584 -1.3585153745951828 0.3761032844257458
Ni 4.718996270437292 4.972904169794068 6.538827764693359 0.14737203366048168 -1.0576772785613398 0.06331727200140708
Ni 0.3068375353849713 2.284414275817319 4.453353014260199 -1.088640045491441 0.7781047767744922 -0.48142081211833865
Ni 4.187410768100422 8.515057181516239 8.748006817430618 -1.1097266909584114 -1.272826676877111 -0.4680523612312326
P 6.679669799067383 8.596148870882107 7.470482419421701 1.2249990158708708 -0.8889031250759981 0.12698241426053614
P 5.403356310488334 5.3619742281975835 9.168652086692873 -0.8581730429819929 2.50314813340216 -0.30620938764808553
P 6.709344554848693 5.412269949347078 6.158893718948208 2.1300468690275314 -0.033716161305522574 -0.9878124352494021
P 5.059657981957 2.385585011207758 5.661695801994693 -0.9204829567648083 0.09050463104947638 0.9975353189641206
P 0.33171723931899977 2.4474479073123105 0.06892279707066037 -1.4450808184912531 -0.21855173912910103 0.8286855750458374
P 2.706746969794344 5.38087600116534 2.225588931068089 0.7351915223507338 -0.7656069014177976 0.9482606410987088
P 1.2806768736388316 4.828781654703791 5.792524474979917 0.2543340389350329 -0.11193863255353625 1.5618667518347618
P 4.4777393847228 7.842684771083403 2.630248514037447 0.5992786383697873 0.38953832688472917 0.9456669122296038
Ni 0.3621114397461421 9.180805095145251 7.468363327919435 0.0037077878688903886 -0.9743678797087219 -0.2237435677426856
Ni 1.5253160835324278 1.107692481782664 5.886171874931089 0.975897686089687 -0.06618405202624085 0.636977952692774
Ni 1.2772758625858098 2.188120814519401 8.293160831524183 0.6261422955298507 -1.5285676234619998 -0.376833477723551
Ni 7.428097786345266 4.961122095788957 8.10910820424656 -0.8400567929972566 0.2500696072317241 0.5047504879832146
Ni 3.0665440402057786 6.5559159765474 4.656591454989126 1.4174347746392104 -1.9328810517733745 0.8043557400512211
Ni 5.127659516143518 7.303372246381564 6.6675373461763145 0.19210999999780465 0.5261608353381907 0.33900560824250003
Ni 4.793351341755828 1.3472582054076039 3.7440955177449062 0.5808194032233353 2.178212372989165 -0.8395590274252315
Ni 8.446139990507755 8.9917406482829 5.2667599338684115 0.6864043256447017 -0.035520047283480766 0.02644199624161253
Ni 3.332542346987308 3.225298377573616 7.205801537251371 -0.40287515320295125 0.12390480377647692 0.3817735953376457
Ni 7.445009407240787 6.663038481280628 3.33348883715124 2.0813735721915445 0.6433748573580532 -0.5193808363018797
Ni 1.077840200699135 9.421454657457419 1.2954591252514298 -2.601164756557965 -0.5741903279425917 -1.476956069933295
Ni 1.6709522354100383 1.2133387234763924 12.611704868654687 -1.2391485678983756 -2.747173848432649 0.4585642192351393
Ni 7.294897749059886 2.837629834713929 0.4748231884681537 0.5778364093356112 0.19133069862961888 0.4093075390918564
Ni 8.150410867323162 6.636381655637026 10.700163803272714 -0.23314403512097914 -0.4024480929678617 1.8676452225930156
Ni 7.372420245507473 4.168602429502256 3.6122680313487816 0.7193378431479288 0.23935222081422006 1.456277458538021
Ni 3.182832456595638 4.190727688220814 9.595615388026705 0.2002413708556874 -0.3295130953710325 -0.151449546163965
Ni 0.9651957247232272 3.557037106797621 10.232694834034874 2.7685407441442 -0.3854641568153555 1.0835220075385856
Ni 1.311071074065974 4.505199745944863 7.979755794300836 -0.8869442015774145 0.2716527327191386 -0.1075775273713631
Ni 3.2884132942306548 3.998635967783797 4.915186956668157 -1.0528338344261092 -1.0675752544013422 -0.023017029720463586
Ni 8.631616557577907 7.147159323866534 8.573035076533301 -1.1161652474949035 0.9829083130795654 -0.8872735598923751
Ni 3.739626551847488 8.364609159604822 0.6876367833925114 -0.3958488424837892 -0.20281838755424428 -0.9795499381302938
Ni 5.70769073911203 0.8396358158390997 8.448687011422738 1.3485418083222387 1.070196494074273 -2.5559313386414626
Ni 0.7414680610872356 4.73836521525299 0.3535649979598811 -2.073074565407546 -1.665462154629925 1.4088555176106317
Ni 9.080363147837604 6.452456099102043 5.226336488209639 -0.8832958061915498 0.0218669752764204 -0.16927911814621815
P 2.447111543581792 1.7187345720176024 3.953515576365809 -0.8280402281523546 0.12255214640332443 1.683359089515004
P 6.79467816459388 4.50823636295649 12.767477715288955 -1.647600700968472 -0.6659360304880209 -0.6847639618278013
P 8.872097938024814 4.831164231128298 9.737685150017123 -1.0697331812846091 2.320354525709275 -0.4287808173251197
P 7.065404250476588 2.0546965347470083 11.021158514337737 0.09195524745307389 0.029804227845626093 -1.3547718483923505
P 9.217795762065343 8.505573593003005 3.1793837940141265 -0.4136547603169585 -0.0001144140906772223 0.11929533002892358
P 8.682725157742821 5.202481759309997 2.3123305967629744 1.0404794266258146 0.16390834075260804 -1.4944092324127358
P 0.4984097607270772 8.935399723421028 9.567758865077588 -0.3261164109846577 0.20999922157339962 0.8848227843590375
P 1.867939916813494 8.313360407885524 13.057662442982167 -0.3614677939007581 -0.5201146291441107 0.08317158772317289
