# total energy = -340889.5409669608 ev
CRYSTAL
PRIMVEC
9.09128333507110 0.00000000000000 0.00000000000000

0.00000000000000 9.09128333507110 0.00000000000000

0.00000000000000 0.00000000000000 13.30601212187782

PRIMCOORD
 96 1
Ni 6.47633034584485 1.7567632564530296 11.863174915186116 -0.9051699805568219 0.8962027440612048 -1.5950972317531176
Ni 4.51411317380372 0.32099140094775813 6.309085276508074 -0.09465104911768216 -0.09442427781885673 -1.6249120011217046
Ni 2.7357126626447448 1.4064397384534797 4.565718935405751 0.02447998741923526 -0.2916050074713494 0.9657765384952852
Ni 3.3693751218903105 4.210955234549737 4.888708600464588 1.0505779485123972 -0.3421678080205655 -0.8040909164256088
Ni 5.116701626080831 4.939148859523214 2.5372972187345204 -0.5888692701110052 -0.6212286602783172 0.16471103915956148
Ni 7.548801785297098 6.244738990223306 2.514756290449679 -0.41826937627083444 -0.863581615592074 0.5512735712454183
Ni 5.110637739993072 4.728485638495405 11.752056702730894 0.514020600431231 -0.39070123684457875 -1.2434965604544264
Ni 5.92823504680616 8.466739587988139 12.578173451302362 -1.2420935094593126 -2.009784032879016 0.45768695883650856
Ni 2.0606484983862043 6.396017947495132 0.3295808455890093 -1.5182868103612819 0.14635721924272216 -0.04755718095367293
Ni 2.364388279783541 1.4866612239682986 0.46625556506266985 1.3752352584530252 -0.17799052987728703 -0.14769676398975207
Ni 0.7125047970549679 9.318747402810473 4.742688950691666 -0.6450147069543214 -1.0336081534272779 0.2942038785467772
Ni 8.538824374779502 2.589333907173972 1.445777722114248 1.2017007074645627 0.0435755705981056 0.5163921859872009
Ni 6.644309990887609 0.7978010370138452 4.885129362154617 0.5077802759484739 -0.23656977297307644 -0.6136194804724915
Ni 0.6686884471470779 7.427360420439102 2.2587484747593294 -0.332351336150776 -0.6830534068945978 0.601887536747544
Ni 7.819212921420485 3.7253261443701042 3.83404789449739 -0.01820778125727832 0.8920462986906702 -0.7327268628603252
Ni 7.765256153907968 3.9043880639870436 12.588166590114453 0.08640680683101894 -0.28545055783417933 0.3410632621024771
Ni 8.251212530293236 8.745769260859944 6.626832907506637 -1.491673835759444 1.76168569044105 1.0839179574254234
Ni 6.966441438784999 0.9653670286578143 0.7798684803300305 -1.224690997712149 -1.3178250959646722 -0.8409829043559516
Ni 2.0135283760580873 6.459329645718749 9.272733689683076 -0.5080412429193444 0.6357114272755244 -0.8756400894185048
Ni 0.18751863151923803 4.867454997921915 1.3756821081504724 0.0901297642085609 0.41623923321468315 -0.5711885650017905
Ni 6.217319679217788 1.9208336495951348 7.053011367560811 1.6341569167587404 -0.06876929625491382 0.6754727663338624
Ni 3.4683610165282692 4.460156406291204 0.3316872959736176 0.17327409823822418 -0.22964244972562384 1.4328068862199066
Ni 6.287022549734801 5.248579784385224 4.689796772475815 -0.8605245739333051 1.545170007905371 0.24462143963295935
Ni 5.118501700211829 2.7750142811715532 9.96343577067258 0.2348905854984406 -0.06926680471662265 -0.8273647993518847
P 0.318960408216116 5.650559975174347 12.447614438232353 0.1900610878885759 -0.801983897384935 -0.3207440909291508
P 3.959853984558883 6.357225440843758 12.598691569010702 0.5858988746287715 0.3958254454450215 0.18475715917715924
P 2.2583020927399757 8.426856127317976 1.2263714137542092 0.16621179207480408 0.7848554652347645 0.4736409110626036
P 6.338924687178602 7.996302032520117 5.878170257755666 -0.7270866338554124 -0.9966763133979352 0.732080487525578
P 4.499948954126467 0.8890929784343071 12.797323385467985 -1.0829373386797092 2.2524545194331913 0.07258069958120403
P 4.0613036170226025 6.262403354044169 8.364838118734971 0.1272094426696777 -0.5209864902261028 -1.3831920514062566
P 4.707848424973347 0.8976506035833438 3.8656091942609034 0.6737218450810267 0.3079556809152309 0.08349426116991428
P 0.1335073163057817 5.79957520285719 3.9745454986785504 0.9006643793769844 -0.7433722583893133 -0.8959854858440761
Ni 1.2070406176696489 0.8702012913423088 2.480613066175035 0.06152367043609404 0.5994388180967354 0.31452536371294865
Ni 2.1846536051883496 6.181290922747341 4.976767681476043 -1.317372581808286 1.8850701029376826 0.01584133790763078
Ni 5.979855354461774 5.575565977666217 9.321872986074299 0.07359114312358939 -0.05362832684841732 -0.5228513113489833
Ni 8.730641365132762 2.5740514596274613 10.143492276703315 0.0640790898680961 -0.9973579128459921 0.2460034075821505
Ni 2.5758969901759095 4.98976912599494 7.003286592512839 -0.6655840464652408 0.40008679182453677 1.2194279495409965
Ni 0.14318407845242415 9.25001729962688 9.40586008121063 1.0785955167712455 -0.3955691064598413 0.8117664306929956
Ni 1.233796264980405 1.2185956389853034 11.626381527151656 0.06424415469105065 0.29355776032234604 -1.484489916416495
Ni 4.03431159634111 7.1639950290203815 1.5428053542884839 1.4828845196025882 -1.3153316401188573 -0.498425059985819
Ni 5.9957105528681485 8.175245765451688 8.13029300510756 -0.9854521625473415 -0.6439147890219233 -0.378854879028954
Ni 5.36731194676323 2.953958014103124 4.961506143881559 0.2395697361416648 -0.5975403155224419 -0.34521559370795385
Ni 0.8171391061251974 7.235616160353761 6.847500176886725 1.008103067177638 -0.9800394761722026 0.08775946420417144
Ni 5.26758965816259 4.6552008022833755 6.903545212216871 -0.3519876223244648 0.7812762325239383 1.0032997322517236
Ni 8.059495544058365 7.1427305169375215 8.763419987755572 0.7723858720128439 -0.29904809401295596 1.2901235162843459
Ni 4.567669924842682 0.4912429577346417 10.450941301764527 -0.17797741725116445 -1.12214460500679 0.7317130768838301
Ni 8.076096227710911 7.472989572274877 4.718724327412306 0.3338659730230895 -0.17379860328312646 -1.4629265884234224
Ni 7.566138862912324 6.13795277435102 6.678115019416428 -0.5497265384732726 -0.47804546788820246 0.3270142402085787
Ni 2.1453519866615407 5.328864908884471 2.7013603388498337 1.0206217684699392 0.40375807002853686 -0.21734486330519343
Ni 2.4388004351483183 5.244725080185509 11.354326686973296 -0.48715925726401266 0.20027402386583573 0.4210775351435909
Ni 1.104827317392778 3.37024788510534 3.7650959639966426 0.4371009071550408 -0.5463943887762461 -0.36960610673717637
Ni 3.896533195051776 2.772832373133979 2.980160911377695 0.24031304206559256 0.5751269808242482 -1.024322357249978
Ni 0.9926226965605145 3.097145729068944 7.91868701798185 0.21113513495005573 0.3992642959232414 -0.12695953144240069
Ni 3.85951348868093 2.8176705833061333 6.991804301465105 -1.2070745701819665 -0.9126752877949315 0.3170486443554346
Ni 4.271985020617391 6.801771020932562 6.255848538647957 0.7559241269123949 0.9148036469918438 -0.7043868782650514
Ni 0.5096191690527632 7.477844317658479 11.014689972716114 0.6603279402726241 -1.0785047568296522 0.615129746469431
P 0.46915841188099283 5.321500969257658 7.964579817038833 -0.1668442834524804 1.1704540907454553 0.8539788023949872
P 8.434692813686263 1.6663231682955708 7.944460806675698 -0.3835263163626943 -0.7785616618062527 0.039139132093306786
P 1.9384889221325077 3.2754530721562225 10.319876813332481 -1.0830337550482572 0.573234906007858 1.4089485915450704
P 4.085922812713234 6.248293682067855 3.9754900830331503 -0.21430247693444382 -0.9443605347133541 -0.7236184728011538
P 6.918403096824403 3.8612499238274998 10.433297847895691 0.28389889707634336 0.3533639338467011 0.45147697337105475
P 6.3620801862273595 7.852277919473227 10.440362684295687 0.829596774006197 -0.3027178295550593 -1.1011538616877359
P 2.5302860209071145 8.44609328318259 5.754145150129844 -0.5808736535000384 -0.30100367507743 0.6539847716634156
P 7.002533834239876 4.116414977538336 1.6435585944368778 -0.29523411958350443 0.28144940709458627 -0.22884823595910267
Ni 5.298881855934803 2.879818597243044 0.3743490528782911 0.3423333870641524 0.2682802167024799 1.2742528678006766
Ni 1.21034984485997 0.5024561467910762 7.400551134555756 1.0771994077546674 0.5964931052048501 -1.4204198254094635
Ni 6.9987336777411 0.8629228097803002 9.34824498122178 -1.3912406327423459 0.40957879047537205 0.7192324279183161
Ni 2.560241800006313 1.7020519124108515 9.090774378017906 1.2403101923066446 -1.322450767662142 0.5158167730997052
Ni 6.3132690851701225 2.0872314113106527 2.6945073293551522 -0.137941227264885 0.5375001716104097 0.4588784080414484
Ni 4.275185152405833 6.962932203357901 10.36180399453117 -0.29527679989598177 1.0609456648999662 1.5476935456581733
Ni 8.017139254278952 7.010761445798229 0.11487563992159429 0.7400761041365448 0.8220953234228294 0.31416823748384604
Ni 7.653587918801608 3.971954482883931 8.213641892142904 0.6187493454998892 0.1397253157485013 0.9799299471775317
Ni 2.6676371318724232 8.431638142433659 12.298906495931469 1.3664040333146403 -0.3348597043949265 0.4831748186949678
Ni 0.11372922907351873 4.862191144781267 10.266466431957706 0.6312755029913579 0.7406594874438406 -0.4972043002048404
Ni 8.664784107531975 2.2525382190073833 5.652088219928999 0.017193995280783293 -1.1405223361830292 0.9550686651594779
Ni 3.6741513096054947 2.8888826068824676 11.934615129978047 -0.9981683245624293 -1.7547151726604877 -1.0396918977275127
Ni 1.3234090463402837 3.413904228423808 12.679073061114943 -0.8782353609495068 0.7387818108051534 0.3070048869661874
Ni 3.412967826224349 8.428910757386692 8.150970220276974 -1.1002835432676406 -0.4016705913718889 1.0402724528213312
Ni 5.683652247077559 7.682961855757454 3.6567578660326308 -0.08813895903077724 0.5463054286068656 0.034292602634282875
Ni 3.006232894170011 8.231720818490906 3.397769927614294 -0.26214016524301303 0.14423220247991936 1.1964859960328424
Ni 3.546200585768736 4.41613641163314 9.302166719981603 0.2375372790926683 -0.8376289002820543 -0.25476804114865803
Ni 7.322092448909627 5.950208679001232 11.374657524241744 -0.3347478614074106 1.023384933037373 -0.45914965942496405
Ni 0.32227781756157803 9.073164561897983 0.1958389741691884 0.27983912518467285 -0.8067777192291525 0.9961304681967943
Ni 4.507021972681604 0.4140970534244538 1.7626607720529233 0.32857155739336963 0.4619755589095334 -0.9343620287397457
Ni 6.015602281144035 5.697652823651995 0.41611259097416314 -0.4798817497659929 0.5744199274548946 0.061538582834429506
Ni 7.946699989799259 8.932995153050808 11.618357560343474 0.33141545460006794 0.3382029098355466 -1.0502958984956041
Ni 0.22073454487791233 4.500176236213714 5.874791027682472 0.00904462670077152 1.539785089444374 -0.015072320952090172
Ni 7.9568094970400205 8.97967889377141 2.5646010704397173 -0.05238211314614204 -1.2835623181270603 0.9106379456499285
P 8.459612021732061 1.690087783338152 3.499162284992028 -0.0008957723413920057 -0.23006153954091346 0.8314785644099422
P 2.1663073951057448 3.2433881152873685 1.7961385143761066 -0.9448768122281406 0.45227632934389844 -1.0545341049466677
P 4.682138275263929 1.1371650127663286 8.34440000432134 0.23637154091934132 0.9144601476094961 0.5810610869204961
P 8.42140135722404 1.7318076832732723 12.740546501816905 1.5949951589576141 0.8325782252320241 -1.1740217534920554
P 6.419237085528319 7.823349455408386 1.4410411634160138 -0.8540811323008065 0.33049062879295343 -0.09548254388004201
P 1.8494125264985326 2.970758705992447 5.849402709408596 0.5375418234816226 -0.24891878145673257 0.7539225231013338
P 7.073336750059165 3.770982570056349 6.201799040043842 -0.12503891738092013 0.8393147726249093 -2.253147431735158
P 2.2954945334971293 8.713604299872701 10.237153406601243 -0.6756936240954169 -0.16023140612165307 -1.684218352191506
