# total energy = -340866.9401156207 ev
CRYSTAL
PRIMVEC
9.29592149728782 0.00000000000000 0.00000000000000
0.00000000000000 9.29592149728782 0.00000000000000
0.00000000000000 0.00000000000000 13.60552075742521
PRIMCOORD
 96 1
Ni 6.538621116260163 2.7633335449992535 0.3226409879908535 0.5736002597670766 0.29667059491971487 2.304966730399295
Ni 4.544246206685899 6.822843919428913 3.2317466685037664 -0.10084072286816181 0.29221615869278705 -0.8251438804411662
Ni 9.023458145801278 2.387917750854692 12.88474135826689 -0.4767576023147145 0.6362107355094463 -0.08838192827951875
Ni 5.6204071634949475 0.8380803197266031 5.123716776050648 0.0913322691570943 -0.8642976678224922 0.8363670028504951
Ni 2.4257056721917634 8.205361268755686 3.5321155579136874 -2.571822555950422 -2.334917254014798 1.116384048373929
Ni 6.624217962427877 5.635624587167466 10.569924875754257 0.2012330453449954 1.0704258364762596 1.5737383064613673
Ni 8.886612883807912 6.846911060472378 6.829060102208275 -0.0750813545158707 -0.7216248394098926 -0.421913400781325
Ni 3.715914519949747 9.49810790311269 12.570820874336631 1.5448051683667847 -0.6695029219036728 0.35767927339260336
Ni 0.808137226634637 1.4708007168392363 2.265319418317955 0.47536663550445873 0.6649368997995452 -0.4249280192379327
Ni 3.2625431271993595 8.140336297106776 1.1681524674510002 -0.5909392652661565 -1.103525447243706 -0.968281821415642
Ni 1.6132793073271328 1.389061678138899 11.956695109216751 0.39327876776376786 -0.056475052268593055 -0.8175532125781018
Ni 1.594455066070658 4.115118577489528 13.289111159444314 -0.9873462942462607 -0.856357329929493 0.9386506288127704
Ni 7.058681450627318 8.393752416066164 0.45501863005934967 -0.5362218191186184 0.7335113064348335 0.9540795617733311
Ni 3.618502557418093 0.6794798123937169 10.305324833508122 0.2912707640603822 0.4558730455562213 -0.25742759025869216
Ni 4.187914939602839 8.184975312669044 5.114723901486937 0.8170567325576573 0.3246210573860538 -0.44197417608694206
Ni 3.8219438018121434 3.088291076654855 1.9086637235707715 -0.1313157515285674 -0.4362907525489196 1.7731762075791526
Ni 5.665362240391893 7.749721671132912 9.59189259703285 -2.533474295189527 -1.346768775582216 -1.905713490219647
Ni 2.1820316790777015 6.92144575992641 6.119137076140073 -0.16474497772129046 0.5492048616418476 -0.08763836524527487
Ni 8.734987106457611 3.2657874038405987 3.2550115715124472 -0.13343614030567988 -0.36370568209234133 1.1668095520143322
Ni 3.625771968115655 0.3810054318075338 2.6757027511836795 1.651261180539195 3.5310728632914152 0.7269891890455996
Ni 4.851039507519202 4.796360896620147 0.8548659653744137 1.323236753898547 0.8269909609522338 -0.15487631245732683
Ni 8.917019843388124 8.817544186259465 12.640549582319256 0.7760669204088569 0.48067596353251413 -1.0027513159474215
Ni 6.800236238077928 1.0274875112688513 9.354434786698148 -0.4064317602059581 0.7547604456215969 -0.3861658108680704
Ni 0.6782843568749105 1.8099252330256363 6.244866275074431 -0.3144451452943165 0.2198385762613246 1.30293223801324
P 0.40874167310972837 3.577498247204606 11.032675853407255 0.7410184134451561 0.27286989295569136 0.5763839931598009
P 7.43314906076785 4.4456908457964435 1.952786815483788 -2.005835075533597 -1.1020946283344504 -0.712607980623263
P 5.188732451777949 7.200909051231794 1.1145149997720571 -0.0034473351186521273 -0.18424525253774718 0.315605741261321
P 2.5083835989745227 -0.046968573517266625 5.763856248198733 -1.5261204474730878 0.11081506047205432 1.088735433418725
P 5.52824739667189 -0.22942334528879 11.195289410098374 -0.46248849399020997 2.9787060589818184 0.013456896835854245
P 3.409781229550621 5.905243497489836 11.600951344379327 -1.017314558473577 0.09891059572498449 -0.8556425632506555
P 9.13249930626471 3.8604475091130412 5.478630415088466 -0.26480331389747297 0.0019635514842740375 0.01238037594222384
P 7.919539567070336 6.955543200385051 11.857905491102771 0.879011576993899 -1.6810301842715114 2.4683137993317943
Ni 1.779155732502707 2.787809706593475 9.168760837273727 1.0152095963154322 -0.1584545167268884 -0.3973781346441221
Ni 5.911508948653719 2.5758348061631557 7.598751256255984 -1.136754127389849 -2.417827103436152 -1.2938001938049848
Ni 5.215588369303853 2.2510167133316767 11.157547968369341 -0.18156307771989377 -0.4594080552926733 -1.3011095829822044
Ni 7.5172678553998695 3.2017199121173268 11.063765133633503 -0.32165194745540093 -0.25997915303595226 0.7597591843877689
Ni 2.598712069240778 3.7023703621666932 11.282827244697865 0.25026603951324644 0.913838197754781 -1.4880084710927148
Ni 7.452001189789148 5.394934584889615 4.505332549242081 1.6048028890766555 -3.344321813612679 1.26583816137442
Ni 9.200703483103602 1.5577733594049543 10.073895428336295 -1.5795780530715957 0.11313085308942451 -0.060441750225824944
Ni 4.567755592432873 4.565003999636866 7.192898755582064 1.0783409775582784 -0.25646985433111313 -0.4920212133420042
Ni 6.879260867668689 1.0068319734555735 12.466439759375357 0.007047393765084637 -0.4497646186656383 -1.3156239745482954
Ni 5.183684766344731 7.327073299297412 12.21695488566405 -0.563633635472668 -1.6229402221073148 1.1315628129968964
Ni 0.21091702455131336 4.988591259554786 1.6890847592649971 0.6649834367667644 0.4747081759848534 -1.669708845721421
Ni 7.545109140616236 8.398614183067219 10.474754159922325 0.9534388428655386 3.3287201025196804 1.7074130451404144
Ni 7.3527672266223 2.324631116546504 5.832387641478232 2.6656811910737965 -0.04744328108362797 -0.11563999266452343
Ni 1.1548788209867433 5.950960839958647 10.700919284687462 -0.043834223576130954 -1.6538600516146225 1.0917022293565328
Ni 0.8406478532747701 9.110542339426294 7.735459868201709 -0.46051054432823274 -0.4448586967235887 0.2542810742099105
Ni 5.021824179303872 7.1701674384736895 7.044489367108176 -0.36976962889823417 -0.8757917845050206 1.686204015162967
Ni 3.0751001638929103 2.0427229978581796 6.485111932299413 1.1082398220002396 0.12720481468398737 -0.8885732525404052
Ni 2.6168484122982507 5.69285028058715 2.399551596747274 -0.7251824748541639 -0.4838391917518442 1.4718688852183748
Ni 1.72952480703687 2.954671499459512 4.49334545832839 0.43552559224812093 0.18292421973347853 -1.0998456843992737
Ni 7.909063063417966 -0.23872205567340818 5.743843058568578 1.0104612829971695 1.1398841883783983 1.085756810406375
Ni 1.6867449757962296 8.102790069731515 11.387154443313811 -0.39661168879174274 0.7200541524886631 1.8173037940259862
Ni 6.056543917583852 2.282139458875715 3.126875658473744 0.5226461373167128 -0.8389661310362391 -1.276413622897421
Ni 5.421995012690898 3.2585365849862526 5.131403573628416 -1.4698294861908427 1.3021755623528735 1.1742850344557711
Ni 0.056535936036359924 3.4672300250888997 7.628914662690063 -1.0968305517220336 0.881229153470508 -0.013192073210241797
P 8.420571149905635 1.385380493182077 7.831311045495358 -0.27278993164737536 -0.46094300387996096 0.20411139533405492
P 8.32590148424838 0.9338496929100999 0.6008418931418533 0.05111918727331842 -0.6717066144232109 1.7122243504861285
P 8.816131206175028 7.278650843640633 4.732339884504917 -0.3007221392812692 0.3758412890136108 -0.2640126996753776
P 8.018894377218091 1.1300215266065883 4.08371044715212 -1.3357004335831963 0.5969304498525848 -1.9803937526423572
P 6.983012648737093 5.915125062159284 8.241313245575151 -0.20774822075569382 1.61679271444868 1.748305926700034
P 5.111901659686707 1.1363799369865533 1.2603382628545607 0.12343043524321969 0.46868536682954115 -0.4335080475974598
P 5.536241889254887 9.286495543625088 7.302382401914044 -0.009978708479266685 0.7549774467284094 -0.14297570436499893
P 3.178870536804529 6.051607783209932 7.817283499788681 0.6209088150450531 0.3397064909642666 0.8371301062687647
Ni 8.544950581022492 4.8482042514287205 12.71033220664721 0.30448006366180463 0.5028314165836307 -0.4206355625101659
Ni 8.599666375607978 6.929867864903381 9.40246216568658 2.00844885900736 -0.9375910772000046 -0.5162338060324657
Ni 0.9685513682732706 5.533155643280986 4.480256800704135 -0.7823437545565043 0.009120217133713325 -0.17590279411032286
Ni 5.59137600031274 4.68401038806422 3.3021549083559467 -0.417954416133577 -0.2629811730870697 -1.6515316605917623
Ni 6.766306124208233 6.154532227255211 0.16295471701413702 0.9926772195408711 -1.8536815613240722 -0.6310621014289712
Ni 8.747081100469796 8.85965471114432 2.4761230326256487 -0.682951591209411 -0.48406801993319865 0.28348752057053755
Ni 6.650646267559807 7.2507258951297935 5.351935369899023 -0.7550160132758287 1.504858452770518 -0.1756017179301363
Ni 3.282064562576444 4.841390340889958 4.663360427803906 0.707025344329163 0.04398643288327908 -0.0031555149098461788
Ni 7.3980290689323125 8.220680947565892 7.956059524700057 -1.1124052662318389 1.2432026833630911 -0.2895902910341658
Ni 4.386726815036038 5.0362793374045225 9.649960500950229 -1.4793358830193812 0.520801113688174 0.4596427970112987
Ni 3.2860711047895506 0.3189077458730262 8.007842456018178 0.4182074126846475 -1.0023278552567576 -0.15093378286981102
Ni 2.7548835522574584 1.6088730404848766 0.46899225942069933 -1.6953314313855317 -1.368821384506881 2.200734465351081
Ni 2.9074854013766145 5.855147775943592 0.24893176637562364 1.2152851310172168 0.8012220795182459 -2.333339882225349
Ni 7.028962389246107 4.56438117288912 6.73288263806618 0.5101302642378892 -0.46950554873799144 -0.7114031616818846
Ni 8.704914800055292 4.6760437832460475 9.386639577517373 -0.18174639737529344 -1.0498963490643403 0.9753546691020233
Ni 6.353158184256248 3.8905662951234015 9.221848915985628 -0.019548611555888912 -0.39843640070530734 -0.5177769821498696
Ni 2.64297924793872 7.379725399285893 9.522898266857267 1.420615486360037 0.08075603630314479 -1.659130813095259
Ni 0.6723479813359551 0.4364946470708176 4.592284740780261 1.2081274369265127 -1.9823233655649024 -2.079269124254032
Ni 7.926967008435237 6.3852570015691406 2.6367639947515205 -1.0139021903579184 3.0418950329354772 -1.1205713469823992
Ni 1.1276417706749056 5.801742706304852 8.16527167722844 -0.525575652258682 0.05942719291838153 0.8101630907616176
Ni 5.945578501347536 8.821829606120815 3.0154184879843573 0.625630903111071 0.21536357120910649 -0.7413518855251748
Ni 0.8155265547209442 6.842383946649216 13.50371122813677 -0.48780588970907607 -0.1246069720498241 0.14218406170163897
Ni 2.285188521163184 4.167073483357399 6.969237952098156 -0.8844684863434124 0.15556793920771272 -0.7295968018717758
Ni 3.900698849676269 3.0678400491169557 12.998877613363742 0.6908343363915973 0.5812523769956958 0.27780358281188283
P 5.753543352766669 3.9384495873269088 12.404602359245878 0.8159097634374076 1.7096069674679395 -1.066909338682569
P 4.053105484441654 2.518729959724378 8.754254763174794 -0.4880563151569853 0.12003040842273521 0.48193451852996355
P 5.1437773748810045 5.803053431251599 5.1590366302007595 -0.08633044506712874 -1.1468282237963991 0.3364231922273045
P 1.6142367872527708 3.573398745775418 2.2680812366277316 1.0950870866683657 -1.0691040323410426 -0.07491114748659357
P 0.7163994946525887 6.945745299010077 2.62770233036791 1.2431890565163364 0.4461133950662962 -0.7246798241861325
P 1.7030779100617242 8.991917083784873 -0.11558548927555976 -0.30474257329457194 -0.05308248164727632 -0.43646635889483537
P 3.8662388682749103 1.9387667065143974 4.307126767897732 -0.12245058782845361 0.840919655218184 -0.3669524711644132
P 1.5644943107276366 0.32706770586064776 9.878723835804843 0.6892325391221162 -1.1433700900444697 -1.2814702114847218
