# total energy = -340895.2584902831 ev
CRYSTAL
PRIMVEC
9.02208291021958 0.00000000000000 0.00000000000000
0.00000000000000 9.02208291021958 0.00000000000000
0.00000000000000 0.00000000000000 13.20473030522920
PRIMCOORD
 96 1
Ni 6.384440936963548 1.9421657603070872 11.265813674899613 -0.029293349647478584 -0.36070083382774654 0.756266340743162
Ni 4.445920098182949 0.23402651720800874 5.973411075854501 -0.009343131777796812 0.026003108931981024 -0.35945153480167774
Ni 2.5024551579258265 1.4732339750081986 4.864265966385633 0.7039284505713941 -0.21865895413092665 1.0139425566775506
Ni 3.499620879992928 4.254940645527745 4.806574256729374 -0.0013727119778105391 0.08394137600966188 0.9050388542955962
Ni 5.139519794008099 4.353245261747091 2.838105515683861 -0.2844257161140908 -0.02818623262622888 -0.7121976325587218
Ni 7.226886957897615 5.9330661251561105 2.592405325299805 -0.6806807928973633 0.23058270215170612 -1.0220739275354334
Ni 5.039771644510936 4.430483314193292 11.629446023039835 -0.01787045252251761 -0.0955067122497581 -0.8863677602486542
Ni 5.632730004623274 7.88993788073096 12.290328939331557 -0.5863223353194355 0.09755922390341264 0.7487198958544717
Ni 1.822929911559394 6.464123973899053 0.4789002847905145 -0.565381214291394 -0.44897066200943325 -0.8211280744135536
Ni 2.8005357577120735 1.4683800943615386 0.48913583793853643 -0.6791934097185592 0.33534744266462246 -0.10814676961127181
Ni 0.4716429212362889 9.129896878043912 4.7348333594467595 -0.4473020160577587 -0.2568627188941576 0.21434824257071472
Ni 8.513219461760443 2.2718416947115565 1.3209087346997423 0.12399427816648968 0.34685595752485426 0.30088668988359146
Ni 6.768601230522627 0.8124376707131445 4.914483782495995 0.39313504309705194 -0.8946042892258333 -0.511963460791886
Ni 0.7792346009067536 7.408988680894243 2.550691724612384 -0.3286378918549308 0.6305861902338171 0.23568737036812312
Ni 7.733079945930157 3.829919338123456 3.704943640179842 -0.3942339325881855 0.23731076490415906 0.16034453466074966
Ni 7.647992681285825 3.6651400144606328 12.374905554078861 -0.10477991002156792 1.1929257894854102 0.4739440441253193
Ni 7.787609415499699 9.048156806187519 7.081894866640469 0.42587084276717624 -0.7428855485608818 -0.7002808265164778
Ni 6.6853183824755655 0.6102437689058989 0.4730043535589302 0.4544453119707593 0.46990509816925524 -0.8766816433091418
Ni 2.0016122651041934 6.468463595815491 9.253980291980175 -0.3600596006993218 0.4008061864890645 0.33963167186227317
Ni 0.015634367607057952 4.729673630186861 1.2780989509294787 -0.08086453685655105 -0.15939888291802873 0.12360758425103228
Ni 6.368733490484301 2.139532847716632 7.036127644067277 0.08890591910378882 0.24869380993012008 0.23713207323444968
Ni 2.9585575412181155 4.332936552944801 0.26977561883314954 1.0440404045041956 -0.5306641225251828 -0.14529175409268527
Ni 6.018775913526501 5.600232461706416 4.754574579229208 -0.49881869587981187 1.0081280068783025 -0.08568458395301372
Ni 5.097016761059371 2.8372556354665464 9.317468689955168 0.0019985184872675257 -0.4313020410850765 -0.2637838714940231
P 0.12723121869020296 5.527054346604075 12.417477154858286 1.1288415574109913 -0.5065901122951146 -0.6243903458357505
P 3.9908101440191595 6.1807674135465405 12.579169121723178 0.19946669747319196 -0.5808798241476253 -0.3193515814569984
P 2.3118997431709816 8.366619635315129 1.3985130837151905 1.8893872422557976 1.0906275082351151 1.3843621604549579
P 6.4262853578542725 7.755129916748814 5.772104947013113 -0.7484486444709562 0.047666967058659845 0.03291012046445945
P 4.823512315327961 1.0978521681948452 12.443200015660688 0.10635291093564263 -1.354548419527635 3.5752994372099587
P 4.039574502560419 6.172827980518546 8.066043527374855 -0.19833258386874875 -1.124374522778573 1.0619841334668099
P 4.680746874151848 1.058768504697947 3.8294646251409437 0.6194296593963654 0.6320761445157824 -0.19557096196321158
P 0.17454031524576286 5.571046023245551 3.4308798253032773 0.9268713767896554 -1.2682020336209063 0.9238490450235638
Ni 1.4081216020956604 1.1825514832707642 2.746359051587299 -0.6280595671572216 -1.013031357717191 -1.2563533618124363
Ni 1.9624744691093767 6.502747511163648 4.62825819975382 -0.40483767624596084 -0.7482977207153887 -0.13230356936313342
Ni 6.01640310570109 5.764461438307072 9.217153051438165 0.9216080715081869 -1.0481976212056787 -0.13297462728822904
Ni 8.650508498563836 2.1505127227110283 10.393417045075738 0.5975513712660353 1.2019521613537363 -0.9922599294977943
Ni 2.3043302155454284 5.27592466667883 7.100513739299414 -0.2870878363272862 -0.1005239629586914 -0.5311045524967111
Ni 0.6777415805600298 0.22743949441966957 9.084933523064805 0.21206073208811863 -0.553240465163802 0.7309363466188057
Ni 1.636849449965782 1.0165541784047827 11.368388442996402 -0.6788514529981082 -0.15426901789063108 0.05348665906423047
Ni 4.296776044335482 6.777803755168711 1.51398852827417 -0.2504599006916074 -0.0943833972785923 0.2202314408243691
Ni 5.388321776522864 7.81593875607686 7.88645896553142 1.8622399924170445 0.8280384283801417 0.37983369800245553
Ni 5.586302365575481 2.8485963937803973 4.810060389595303 -0.8414816983692411 0.7999858931182997 0.08685443589139881
Ni 0.549826487979461 7.377483567105886 6.782266077413763 0.41940169010306483 0.16463776271946487 0.4122995318406447
Ni 5.258927062332534 4.412547413216415 7.203101138312383 -0.05817815100262883 0.6767950846897117 -0.4579255572098758
Ni 8.138956393237397 7.532834814047965 9.102839651167828 -0.3748244177133222 -1.0693539435683197 -0.30371104670626403
Ni 4.580313046347722 0.4151773126578754 10.482786190305395 -0.060972425918314345 -1.2483027235938178 -1.383170968360334
Ni 8.167096270071845 7.17177105293396 4.5397993826974865 -0.286349672609681 0.06326045062154266 0.4123869493481285
Ni 7.442839536259054 6.209241107451483 7.029207706416742 -0.8575747472763617 -0.016724511843532488 -0.2601331621153133
Ni 2.335573688927182 5.1569143700057944 2.4582722131250394 -0.353931633424713 -0.25948138746392735 0.6988577209167061
Ni 2.3571996218454796 5.1747329839038505 11.280972578733289 -0.6340754343339983 0.3701159564940594 0.9487231825574243
Ni 1.1446046022301468 3.3554570159539305 3.8785862581684625 -0.49560918780357865 0.7243360676934687 0.39181298185151875
Ni 3.294530889547062 2.6219075366651925 3.0205951882489033 1.7443119750492928 0.5288643503122827 -1.4914030985965605
Ni 1.206279561524883 3.2817556200383806 8.33219768209728 -0.11483086649966674 0.38127531554498856 -1.2370472052846566
Ni 3.75843737462255 2.5483324499114515 7.180257224190928 -0.5632991349513847 1.1274251366794388 -1.6347302727637072
Ni 4.162924421149891 6.699618384008942 5.982574805543743 -0.14668092113072803 0.5676322151090999 -0.9514871184558066
Ni 0.887652972153805 7.444147738292076 11.389397265438433 -0.5855684878725463 -0.18275041315977558 0.09281219613673049
P 0.23223653594351557 5.746552603579153 8.308429906678022 -0.1049218349160709 0.007904085338425095 -1.443452538859211
P 8.61855228062616 1.8264485239240733 7.9956487248738055 -1.6264436072748827 -0.18657878576693027 0.7243232121776623
P 1.7819696548013333 3.234497949355843 10.355480088326406 0.6353933818144736 -1.0114352168746645 1.1877074785092643
P 3.930903512989749 6.0741895472287055 3.6902728310357276 0.790273293816226 0.5584261231297996 -0.15074660655966943
P 6.7718221141487565 3.7590598983486085 10.205367964974501 0.9534540123741903 1.8332325494411008 0.22895802206408952
P 6.265647170282186 7.811490869164586 10.245379098602399 0.36112198052556516 -0.06405877815312193 -1.1670736043089964
P 2.2403726692551436 8.234067192079573 5.771919994311893 1.1472467993910564 1.8460677535325563 0.31015191723560137
P 6.713115420156532 3.893263382770668 1.3479127312862074 0.5618276926121808 0.362187445675602 -0.033264932700716905
Ni 4.832904303716758 2.886029016090792 0.6346891027574332 0.5254645806021144 -0.10121353282654827 -0.1995805973432369
Ni 1.3216088483394839 1.0623502716435305 6.964993932969644 1.0357367697345066 0.05254794930004499 -0.5512110934385991
Ni 6.824971205021385 0.8005131836300764 9.143298280111848 -0.6934607182708509 -0.12869194075247514 -0.462234726108191
Ni 2.8612453541272695 1.5073284266136415 9.079255926241492 -0.5385173000210145 -0.14402728555796485 1.1557224409622355
Ni 6.3079156290732685 1.99520658618388 2.4686638483087253 -0.152017502852293 -0.10747674012744073 0.9081995114117649
Ni 4.2919131416058365 6.867907297953459 10.304470133329842 -1.420295126906141 0.2444337491021855 0.7481951336992534
Ni 8.230999683864212 7.172086825838482 0.30522699171974055 0.0574502716976688 0.3934988541943739 0.47455596667770533
Ni 7.790658879549087 4.0248143747947385 8.125425073174458 -0.47089522999666644 -0.702482462153487 -0.11372812035379122
Ni 2.991677607861032 8.20440258322043 12.546461364272737 1.3670833187698521 0.48814450399541737 -0.9889100391889548
Ni 0.009265679226988585 4.639290402829538 10.136017017474975 -0.17646946524707027 0.4398180489758876 1.5614150090093237
Ni 8.529341924057062 2.4724837982451486 5.860827208892649 0.466009619769591 0.3629875729793942 -0.43532607464280515
Ni 3.5802422135590137 2.4183964107419387 11.525722743778882 -0.8754765672574469 2.386695157918038 -0.9281972946899305
Ni 1.0455691972889067 3.106131752625956 12.547108247622859 -0.2581179314574974 0.16719729591652494 -0.14158730865790453
Ni 2.9938429077777577 8.254096216309286 7.966968425268474 -0.1390617140225734 0.48002753131523773 -0.5481931325478817
Ni 5.619963757197579 7.947958896416221 3.540993445943465 0.8961909169866631 -0.7571376876045218 0.5756579136270538
Ni 3.351252725282288 8.462650686621911 3.4498677011563643 -2.430099493045602 -1.092484358938196 0.7004088674539098
Ni 3.383975820273805 4.401423184894237 9.264319599082542 0.5331300675671721 -0.21534711614887428 -0.44988957427927684
Ni 7.405253538537891 6.2383643913314435 11.362604385593848 -0.10460738899944563 -0.34753035788405956 -1.0798849250066305
Ni 0.6194002809287527 0.04907742482088588 0.41462155234591574 -0.8528578014166667 0.426194287544866 -0.446616817065276
Ni 4.563613170739976 0.25201294184961 1.5283679241378259 0.13459545072110368 0.02102751009426056 0.009037684722236048
Ni 6.172972333846328 5.72991588255231 0.11047179733474627 -0.265649206837536 -0.3886011597824404 1.570087597082657
Ni 7.947182997279394 8.966119005592576 11.040831795885428 0.6473302424613755 -1.1833872538673555 1.2938935248497394
Ni 0.2380260065958608 4.94305491489719 5.804072893658672 -0.1420552494332586 -0.30105972512634604 -0.3630575069853812
Ni 7.865163240850423 8.9640529485887 2.5850243592086666 0.6944343950380298 -0.11385513284995875 0.214948595158875
P 8.390474022731055 1.7743911050927936 3.647832952667904 0.22869834064479969 -0.5230595707050476 0.12897013411452626
P 1.660333931979269 3.086328280470903 1.565223133137094 0.10224583074580457 0.13337623360202192 0.0122379368270886
P 4.809392755454311 0.9795546160777329 8.11372613816605 0.27266574736468524 -0.8597159619890807 0.1844915642205984
P 8.329917801726628 1.4570212918817151 12.490182512812142 0.7554315035466925 0.7399341792420417 -0.20257593252613498
P 6.462202270222959 7.69193924751237 1.4725519055344303 -1.0950104677941594 -0.3385214695172299 -0.5062463558024507
P 1.9631421032503673 3.292239280468527 6.119903539512277 -0.8220215327621004 -0.3612127404671585 -0.6342983489780818
P 7.092268457658183 4.251025061511666 5.928488320248833 0.0693069139259387 -1.2083765768228416 0.6502494729906995
P 2.5293138989762114 8.42001232242839 10.240572132787268 -0.2929208980692955 0.17011009868794574 -0.31235740952735236
