# total energy = -340862.4731819217 ev
CRYSTAL
PRIMVEC
9.40365638698569 0.00000000000000 0.00000000000000
0.00000000000000 9.40365638698569 0.00000000000000
0.00000000000000 0.00000000000000 13.76320165851027
PRIMCOORD
 96 1
Ni 7.565222659333881 0.7402247892573844 1.9763683183261282 -0.5206635596690452 1.699256477471551 0.08610418798893558
Ni 2.149713437217199 6.188442748966901 3.426252252511267 -0.3492511972299082 0.926402664683353 -0.3611978280688231
Ni 3.6903520580332945 8.654269495249093 10.1956557067384 1.2268031589591453 1.3060239895646861 -0.07823609809476849
Ni 9.154318320892834 4.393256556664601 13.325352374488379 0.7859093604205755 -0.06637765609428568 0.23822273519546713
Ni 6.012218230526933 5.935531413671121 3.1588056857238827 1.401736132957031 -0.4705651003507573 1.3306744411235147
Ni 7.641909476189693 8.286840433936133 13.401339559317941 0.502204067412277 -0.285203989041012 0.7967679004016343
Ni 0.3170536746916725 8.902554231661604 8.82056093157443 -0.038493013868875645 -1.1814802666526298 1.0312792481837851
Ni 7.283122374985931 1.0125198812159346 5.362280766184045 -0.3605951614878177 -1.8806532048169093 -0.5535399986820918
Ni 2.5045510027889035 9.271958060790592 7.913579225006501 1.0788611117278066 0.8077341696051508 -0.005832547521377052
Ni 8.44612896743958 8.359257990846816 6.622453458111362 0.5228762510496479 -0.4781282574099959 -0.19946952568666937
Ni 0.2954412514936694 2.8367821786952025 5.51267156012784 0.06698700754351045 0.3419837170342175 1.1406465204657195
Ni 4.394206325947549 4.586614536822691 13.605420528717072 1.200351649635836 0.005087698935552528 -0.4582328040376495
Ni 0.3069061892141608 7.156426914103236 0.9393302841257473 0.3508907897158602 0.881086971465689 2.0708047955367626
Ni 2.222159205096682 3.633600992463113 9.515698950494981 -0.79583176174061 1.1802366240535156 1.5729104112434331
Ni 0.3765195758260813 5.161497659037684 10.68334060512254 1.9053944163173313 -1.3207260716615512 2.702848287042397
Ni 5.897766330103623 7.886235273313879 11.368335840393714 0.5952520337088975 1.5037096838780555 -1.5222985026238365
Ni 3.392011659312568 9.213476722467318 0.4689904297257302 -0.5840919033270199 -0.035618777644874144 -0.1229118437355883
Ni 3.207399079482609 2.217965174401686 4.7323119659237225 -0.5894058593407655 -0.6761088572559646 -0.372338675176991
Ni 3.184792689817204 6.3765440852718465 5.77132288720888 -0.163788270234976 -0.422471330167324 0.11502344212644705
Ni 4.605111528699501 7.216422241085467 12.966215457271492 -0.8145977294942035 -1.4401651263571906 1.6302917773763792
Ni 5.262427101749326 1.578507144602528 10.031337157497836 -0.4582109496607785 -0.3519698817126519 -1.9863399429234632
Ni 1.0632149921502922 2.2629240550132916 11.53765055220883 -1.6175270215115432 1.6498696995083069 0.22371040051190505
Ni 5.645776553121991 2.3698718377356904 3.8245873705107143 0.7598548294253689 0.2643636552568931 0.2312517031942727
Ni 2.4069128397706434 6.23448305004919 0.0336002042069289 0.22050243509756862 0.9244810221806077 -0.7783384900518531
P 5.117836482990898 6.124008896226737 6.708294734342911 0.3552266980870527 0.22384769742071772 0.6088868508835127
P 4.439898691747965 3.032942448420801 8.493849701896748 -2.01718675310099 -0.16488330307136764 2.1305168666854146
P 1.7785135097412508 6.1316352614591185 9.249573597413084 0.5769794606519548 -0.009170867865990659 -0.036859592030510716
P 8.046642841913076 5.505906569809499 7.687573631021309 -0.3124427701523071 -0.26837689018134425 -0.19488884829452244
P 4.567017317162665 0.5813293285858894 11.875867155328953 -0.7202372150337466 -0.3514949989587624 0.09882806331350721
P 7.988631686403142 2.8839509185295076 12.368315005612233 -0.030205834159418944 0.1425962095383931 -0.7176231744496674
P 2.525963128108423 4.22390611095567 12.771562593645461 -1.5222671351652686 -1.0771554418906093 -0.03837268624092746
P 1.5329652373023805 9.230064772121965 10.534230589162284 0.1785461452704409 -1.1964805967162038 1.2122072634228414
Ni 4.368289849276228 1.2873981575509765 6.6891771011524925 0.7743957033540212 -1.179673295350878 -0.21409061803395388
Ni 5.760388315701836 4.36304260907935 4.978452668707401 1.2204967571251433 0.40659271126385454 0.5021223063317481
Ni 1.977184555690087 4.4801463405699 1.509410018719655 0.03214367461208013 0.15997249603331157 -2.530703931533241
Ni 3.621432661253864 6.985778763829486 8.474843031850277 0.36058667684738543 0.9659439173110848 -0.4781848216795441
Ni 3.9425863300778645 7.446322829496369 3.8527738898048423 1.6112740986232958 1.497660135249866 -0.9036039216212824
Ni 6.92918756041584 3.0956460284078715 0.9548594820847527 0.4682040563177484 -0.4475334153422744 -1.2988441839867952
Ni 2.6131444253579934 1.5404693550032926 10.194761419027426 1.5830246168592994 -1.8142408388299465 -2.497219940843183
Ni 5.970560033264977 3.6296138422059867 11.140127910110836 0.4502747255328375 -0.3454871022017856 0.9960934443112714
Ni 9.018529524400137 6.610779759221747 9.30286411747708 -0.8245278441237218 0.8318914835776446 -2.1561733909112544
Ni 6.9271563706622095 5.373926254104859 13.33120238905196 -1.1339680800042793 0.21943851260942857 -1.2859393029996693
Ni 1.7235679461742963 2.1844411398105184 13.715154614791325 0.3904515827276179 0.12093595095614013 1.4226998796928918
Ni 0.8006818357623147 1.6976514695029754 3.517571158518232 1.1678930148864983 -1.599817262936606 -0.9306383000312551
Ni 5.648522420751897 8.501911456414282 6.028034240002076 -0.4514638607449321 -0.5803059539220263 -0.5915403891852651
Ni 9.14440686718762 3.108519633837131 1.679812733564842 0.7176090333822802 -0.02009008588165572 1.1971699094737447
Ni 8.875302435800396 1.1971418647021608 7.8230314188134145 2.150109444105362 2.8776719891559277 -2.540056319282419
Ni 2.383826863635632 2.3113246738185484 7.547904885952929 -1.0775706750511571 0.2943388614627447 -0.7422851959727217
Ni 3.756685449339353 2.7824854674106576 11.599172092603164 -0.3698411055661179 1.631626951248035 -0.03219869621973164
Ni 4.390332019565624 2.0539371981397676 13.599074941468231 0.21137990397101017 -0.017454190920705423 1.650513760850209
Ni 1.4210993423524418 8.866698090316268 12.95600308656574 -0.6948419148890936 -0.4951057658045989 -0.23580949776828422
Ni 6.9011458574282205 0.3294514551138311 7.813327785911695 -0.23402463795371953 0.048495376497226156 0.6613209003135126
Ni 1.6652464700075578 3.982034668117121 3.59216848295156 -1.4070660298103768 -2.5830616191993516 2.7071582272716603
Ni 7.961229432041666 6.928726781258766 11.541848344366334 0.6165461672009833 -0.9386763398443834 -0.4131001733650692
Ni 8.01947567895827 4.388799223594135 4.029631274311566 0.43987898412081017 0.3241189209386547 -0.14990431316403213
Ni 7.945694591888901 5.555228746928903 1.6405327209727616 -0.14012383673850062 -0.5969474191334494 0.3323343668699115
P 2.4875774032273164 7.789603301516167 1.8910780963518135 0.8006554083814985 -1.4279295035229473 -0.11508900525705987
P 4.9747598528914265 9.3684207667755 8.238583691071758 -2.9074075685471477 -1.1669393927239773 1.0945831504487538
P 8.229985928147016 2.283818979238137 3.7768290214284805 -0.8374923747041899 -0.7963382690633833 -1.4521804056505119
P 8.083965953636035 7.989637877623691 4.557325909014093 -1.4630906248051123 -0.8972954629047514 1.0106988529292722
P 0.9840550136963091 0.2989206043123881 1.1612932462818384 -0.7161843851206117 0.7470677049630294 0.5875461804242075
P 0.30922419048392874 3.0457502282561926 8.706036622997866 -0.6861616135062762 -0.21554843352640296 1.0033185013048014
P 5.640059130111771 5.723902129386625 11.22775870212996 0.2386780775653309 0.8599872133725964 0.7076303249030136
P 7.798235857969097 8.346290348854888 9.808318164742982 -0.30732447508913524 1.3272137362684238 0.053863325677358846
Ni 9.090683778935349 0.3622673943881083 11.596983861789877 -1.0154916463322252 -1.081143737114396 -1.433283568746009
Ni 0.7927996910794769 5.632141251535119 5.843387807009557 -0.8428220144472194 -1.0109816742770137 -0.883440302189214
Ni 7.93736295243651 1.717765890257676 9.925291185411423 0.13669758466577103 0.6055575293999637 -0.07746810958049238
Ni 4.321224549660857 5.9303405954118436 1.8191645754170318 -1.7963043089561839 0.758811475762519 -1.3911401026087395
Ni 3.9277003422075087 4.283299603936824 3.561283114308859 0.8880145518234578 1.2682670825308868 0.5513712731655472
Ni 3.1162588429447133 4.858370799277153 7.86159581316359 -0.5759780159706338 0.581336966289702 -0.5921127167489674
Ni 2.8350236949733096 8.958571812042974 5.413369890315982 0.9864700622888947 1.0508021487080614 0.45697219215767104
Ni 5.991003581989017 7.5382999914420115 8.832493231011384 0.46773251599796867 -0.2660515844822773 -0.4501523410223602
Ni 8.55460954613347 1.1852650468371833 -0.10451975867430896 0.5535420555646209 0.5536189315491433 0.6469430343252858
Ni 7.111656106616967 6.139412085191768 5.521452694349785 0.7417514349564387 1.5014319435874723 0.9050254845591573
Ni 3.216765121124349 2.628914356917429 2.1513807054733043 0.018578020112503486 -0.9962502816041099 -0.970030942896265
Ni 6.467533863309473 3.032914237452001 8.167428104832082 1.5580756602234456 -0.8848652075611987 -1.0567596518430769
Ni 5.058104458384139 0.9940416966516583 2.024925037825414 0.31729495603828584 -0.27752101857445755 -0.6710571537646701
Ni 6.389662185764042 8.229750836740346 2.8409583424432916 0.050514720920100106 0.732292603536384 0.9647203293166288
Ni 7.806097314608147 4.240842095892189 9.824325068440341 1.0834392180167922 0.0936218365222194 -0.9473530416827748
Ni 8.99864079139584 8.67616120703822 2.8753945316923395 1.395650074663951 0.4490375106916266 -1.9030729672730062
Ni 1.3711001019818276 7.381418793942866 7.164434127414423 -0.06553921935339035 -0.17702482352990803 1.2825104798237783
Ni 5.583891091230131 9.344112315325804 -0.06636066190923191 1.301092870811656 -0.49628667348657757 0.04774538570507906
Ni 5.6509203530999335 5.081199838175418 9.088791763294466 -0.8641729693191698 0.5047088361120018 -0.5782004775432494
Ni 2.8027503466656274 0.3753507013521171 2.785562343741157 -0.29006131713331335 -0.5755255018142476 0.9175287592324908
Ni 2.3698060121418223 7.17738766392195 11.430985819540064 -1.0091551625912363 -0.6503181214451058 -0.3587159421872338
Ni 6.646156314097476 1.2852635275784112 11.876252705235892 0.601009762128281 -0.5848894595276508 1.375390553083967
Ni 4.391836604568313 3.5680481046271995 6.498267833086279 0.16623313223104275 0.35808833590556394 -1.5185493199940492
Ni 0.911980690239365 7.881712114649544 4.743762798159813 -0.3030492447525491 -0.13566091587114054 0.589095012968566
P 0.29964468584493226 5.3065020386718516 2.7426346528831815 -0.9497811915082933 0.21410167377754738 -0.5129530783986649
P 5.150072216673514 3.695392417792303 1.7456693594981731 -1.3880339528795902 0.062002924065357734 0.7417468069707484
P 4.9952034016154645 0.29363951095294916 4.076591252976748 -0.9392265559208987 -0.9662627341030844 1.0621116601836094
P 2.401722021511366 4.118679197330097 5.66921422600138 -0.2861766373669265 -0.09654852325071114 0.684895345199343
P 7.440586599173617 2.9260040693546694 6.0318060465306935 -0.675949448859965 2.2655452911788787 0.8989587095397872
P 0.30078064752196254 6.475564585761326 12.787472639683273 0.4687540152839475 0.290588393281377 -2.210178641483116
P 6.370563359886156 7.014111980161376 1.0822376484124168 -0.8103227562679335 -0.03569333963655143 -1.0174405425284798
P 1.0854452355650246 0.7217851596838021 6.1627209279803035 0.26112226550145995 -0.42495115916638426 0.2929088138844375
