# total energy = -340864.71350291057 ev
CRYSTAL
PRIMVEC
9.26785867169072 0.00000000000000 0.00000000000000
0.00000000000000 9.26785867169072 0.00000000000000
0.00000000000000 0.00000000000000 13.56444797552945
PRIMCOORD
 96 1
Ni 2.4127758272942015 7.693611046002432 9.851641238142198 -0.7297562102677755 0.4459606715385158 -0.6780086453818388
Ni 7.0858526687141685 6.33118019354443 4.214039794481442 0.3463077983308681 2.2615865636414467 2.7213748850916746
Ni 1.417027808717135 7.081886025142804 2.5203830823839213 -0.5655534782032002 -0.6477074232951361 1.8951262016221038
Ni 3.4820179662472523 2.704898737035819 12.813669303618795 -0.41301481274011453 2.1202633072782064 1.1895489025933772
Ni 6.0318746932238225 0.9948119648370949 11.08772893213695 -2.4717048272912145 -0.6832873772822748 0.2604339811851837
Ni 5.103800579689056 6.811811351513982 5.592947973120587 0.4842711370829402 0.6649950067309901 1.6349143637500552
Ni 0.2584249751026416 6.396935651812728 5.173683942272041 -1.0800031957520495 -1.299697018905394 0.014520047993045961
Ni 5.302577615480242 0.4599443703161809 1.532416358065074 -0.7582090662918297 0.6917247094163507 -0.29941370488249086
Ni 7.707911352148731 3.732546725642411 0.5289806506037859 -1.2636542663492236 0.1798404386018322 -1.4353854455803603
Ni 2.4937120382959 0.5438388818505423 5.854891027428112 -0.396384146161969 0.40709844725567956 -0.5093874725345937
Ni 4.864105947244656 3.9674962143752706 1.1351866615411061 -1.3191178466341669 -0.3802029084164162 -0.6332264560701417
Ni 6.836120945176808 0.40662915893069224 5.28811326823298 1.9978937091993332 0.7552450985674993 -0.7582430048535587
Ni 6.342857695647045 2.5280216516164415 2.1205027782398362 -1.0475949546246732 -0.014826266379555109 0.6716333379831142
Ni 1.0215775410849943 5.410010634824305 9.79285335612846 -0.8263245310128285 0.4332787051954732 -1.1333985806540543
Ni 8.535929661953467 6.458057180675227 13.303454325736565 -0.6067813745047356 1.2469061003566073 0.7066389075240217
Ni 2.4302550090128783 3.494399825619549 10.61508944882064 0.07816590697846539 0.22746215424485342 -0.34066936909816814
Ni 3.1859840200871394 4.807405187035291 8.801699415164302 1.2199288004368152 0.8810928850029599 0.9649072485164544
Ni 2.566594479990319 5.800854776627081 11.431017836805646 0.007644403919135222 0.78876148515739 1.6511043432463564
Ni 7.6288472486269745 2.485157804612794 6.547627328945812 -0.623491488170565 -0.7191848625098324 -0.7734456807359261
Ni 9.023057588949952 1.561467388295914 8.157808436727255 2.170553056671694 -0.08077249136337702 -0.1285207052819335
Ni 5.681002826475476 2.1433128323469446 13.36765556408216 0.5518512981257593 -1.3324886115141181 0.107355384058228
Ni 1.4955821800042528 1.4557674585496212 1.9302345636235787 0.3303790429157536 -0.8777530219964497 -0.1452560157587434
Ni 3.9462913534143316 3.662611463050081 3.5225926521244353 1.8426517858724716 1.98798184940226 -0.05177841812387212
Ni 8.919758034635862 4.002936506470828 8.12350345733612 -0.004084968702651029 -0.22811521444782001 0.347711106436298
P 3.83926611985798 6.318844673466191 7.3172470068069 -1.2267090565834422 0.2282406842820908 0.12060196465548906
P 7.1491984836914515 9.071723115569661 9.60662685473994 0.1687780101400835 -0.13634277242951356 1.0144122972251175
P 3.7021018094463063 0.9188053279372859 11.914686072107758 0.33206208704513135 -1.6533663998076555 -0.664912474319513
P 7.20475002940818 2.72663186594902 4.102417702954537 -0.9461672489047898 -0.894221451965118 1.2708826657768628
P 9.28129720687636 3.5841126989158325 10.336489271871027 -0.65628102389676 -1.176456073965161 0.9044940375357197
P 6.993322366339159 0.04173502180039505 0.24262049547122091 0.4347192942967416 1.0267191396169286 -1.195605136089786
P 0.34499326390414947 2.667104408802116 0.7256761253058877 0.5540557619762458 1.6308633336091334 -1.3462640680316555
P 4.936367442398699 5.914738225704015 3.701344625381399 -0.10757418493725344 -1.8337521693899965 -0.3333646079066388
Ni 0.35708318572388104 8.324622481049 8.097229077605235 0.6517224579918002 0.3178148330974978 -0.240557811086547
Ni 8.974772044541519 0.94576645600611 13.386970708631415 0.032090452776641507 -0.666924105432903 -0.052562347477748184
Ni 1.016350468715252 3.964530499555559 12.473717754908156 0.09344494462472294 -0.5970111824918493 -0.8869835394557821
Ni 2.580876250418994 2.8107654882407207 4.95385867233383 -1.2966746871393025 -0.12581950430068653 1.9118481423624751
Ni 3.311906417760343 7.631229088341556 4.143707867531975 0.6012396187509 -0.09344854416914875 -1.1382535947535108
Ni 2.0532199768393857 7.329254444683207 5.995241627699213 0.5225453500727903 1.3445838521157554 1.2631919820008246
Ni 5.961679930584767 8.611814889902844 3.509977242710086 -0.553736430963614 -0.5460382909884081 1.0053314179697719
Ni 5.926897656464835 4.3631874463365135 5.1364086141317875 0.6661000668697109 2.5150669963269325 0.21125520546768778
Ni 7.238438696188344 7.848236002415159 1.7339023889868916 -0.35329811360577223 -0.657936557222312 -0.06623110321409238
Ni 5.476841164714749 7.200727778683945 8.43627330293822 0.23849861456467314 0.13243469562435903 -0.7702251169160993
Ni 7.945631930666258 6.695008526911392 9.472406943072711 -1.386428556065683 2.2701038570838388 0.6468530457146409
Ni 5.4381756577527565 6.23233847931872 0.9640046753614567 0.41859513504136936 0.49942984710124966 -0.5191003289469833
Ni 9.272956133945922 0.3572982000483102 5.883579684379418 0.18844797776518513 -0.08075295097935124 0.5530059805554928
Ni 6.255952983570676 7.074703434563815 11.876121584806812 -0.7027300593879188 1.2561931820854881 -0.6956464130682601
Ni 6.752478519402121 3.3668648205131277 11.770847976565854 -0.9547555047944332 1.7967473100308733 -1.198116075437098
Ni 0.6088529114139131 1.814118487358929 4.035803114174404 -0.2375244235768619 -0.6357798186196146 1.819082997413596
Ni 5.0513908381094605 0.10022447876039976 8.86641501967394 1.1080292486513303 0.37546719350364366 0.6172097689269113
Ni 1.4188072376089622 1.7144519336989874 11.679206461850875 0.2034395660780109 -0.7722313487128507 0.40795411038775553
Ni 2.362099175312375 2.668077533977334 7.967973957903381 -1.5647965238870472 0.8245013617611606 -0.5998630501183476
Ni 4.373743537522926 1.7591044774532743 7.200850114420259 -0.12995820905940844 0.5096168149365804 2.274470618692967
Ni 5.783811184272549 5.229074227245447 9.416250206175587 1.4389387101492572 -1.2618316113181882 -0.7513853585017769
Ni 2.1505881015140504 6.889800383413592 0.3223676401873915 0.3063790804567304 -3.7096208083340696 0.5131423115913356
Ni 1.481393088163694 8.545679449423272 12.729216866983975 -0.006518517844808129 2.072869391375275 -3.060677198638987
Ni 2.8912197705842164 8.871435418792183 1.3336365419162437 -0.6449769117378505 0.6869673972370234 1.2057936465870138
P 9.118145820356963 6.2210224237097576 7.892311158565483 0.20781301255535822 0.4610407058000899 -0.8529390482765632
P 4.546561300782821 7.800117279465334 2.1755612738677867 -0.7628367948718281 -0.22812318486762 -0.7645730608366446
P 3.641082227030735 2.1808105890986766 2.1781108618268576 0.5789504683353965 -0.7717238129488129 -2.5528701832176357
P 8.492120493351036 6.328131067995413 2.6166631604341046 1.7597951582865565 -0.08234729204966464 -1.121978768852887
P 1.4142659867912786 8.896866423371211 3.928861291347356 0.1753528351441238 0.4568305243734842 0.675923737828352
P 7.444546608299506 7.606428298161715 6.164322590286273 0.28344021227236993 -0.23653583441134743 -1.0682681667033085
P 2.9184209361962608 4.7626692325517 0.07374991327918452 -0.48381322360991513 0.8088716256437036 -0.5563283600605063
P 0.7426224051428973 2.798791414656134 6.474107258565156 -0.5954374102468261 -0.4746320713312793 -0.7455872637627612
Ni 3.9309159756458874 8.050275324508029 13.054668850583868 1.3187524928749481 0.6600880563476761 -1.7332742291778922
Ni 3.8067544711468884 1.828381722069981 9.565933540269969 -0.1471853715709723 -0.6564162639230436 1.4754314057586526
Ni 7.209680530295951 5.559186090255811 7.24881406412793 -1.3532914071920823 0.16811260864194272 -0.8369357308697716
Ni 7.177113274431989 2.225259239959108 9.228328613410426 -1.6817521500392005 0.8911289290827233 -0.4156908169103809
Ni 7.942128680035474 8.574641508209519 11.857389388576808 0.15930863719706756 0.037994219855586174 0.32489976496873724
Ni 2.5587168000004596 5.362429447685553 4.774428291811857 0.8523600358446417 -0.1687985789653738 -0.39282471094548477
Ni 8.625827892425983 3.0837873409716314 2.576756687177238 1.4404867713626677 2.2410118248138886 0.7593475507716471
Ni 3.3101362567273274 0.7077530131501353 3.660108214385068 0.8585499667054376 0.489807236409821 -0.14652022718314767
Ni 8.110099353136905 1.6415231527105107 11.335700689285988 2.7766597737069083 0.8640045620621055 -0.13867167767300634
Ni 0.26601349789757933 8.198690815516985 0.9774514117112065 -1.0381512927132701 1.0114601565753292 1.0276820177508301
Ni 1.5516156543791837 5.411567635104653 7.247037415593746 1.5809543645938322 -1.3408174430947875 -1.3048091433209787
Ni 3.2589313367932395 8.584215206361902 7.573193756463319 0.6219012608653096 -0.4738782238843903 1.1820093996832224
Ni 8.296272100944316 5.464412966048394 11.317796112847859 -0.582674454154203 -2.2806384380665756 -0.21951873102806063
Ni 7.374388917095698 0.11325045432010292 7.516684840931353 -0.7396446730260811 -0.9602383822858753 0.5174867046029604
Ni 8.34920084261736 4.2669129290016174 5.254392163946974 1.4632214939560217 0.1470503886550048 -0.7739509025071187
Ni 3.371813857118522 5.631438317551042 2.156449095426506 -0.515384570658293 0.3983261003796882 0.16184194514188258
Ni 0.3794020433139751 0.005525497423475647 10.467019648945358 -0.00657302523182739 -1.3188645929727802 -0.8165024027160842
Ni 8.707653817873595 8.159274611991252 3.9695268022408925 -0.9454907916630556 1.0355889313027327 -0.8569240010662402
Ni 6.83295133746324 4.905709365449928 2.61583646742811 -0.8926052565179338 -1.8776655829434954 -1.7135255857960554
Ni 7.903815351708321 0.8673520293870476 2.381266034120644 0.3808857934160537 -1.3252100755748337 -0.06397418885911563
Ni 0.4980575128930028 4.889963273329021 0.8240507394474922 1.0588401885211893 0.9280659113183888 3.0620715078833523
Ni 5.183337344010203 2.375120516942672 5.188726603909148 0.008285637047559923 -1.5338319571847325 -1.5759309432373116
Ni 4.862029946870859 5.268342145030195 11.555445328852537 -0.8618605191359093 -0.05002389732661062 1.5254799856756114
Ni 3.923010492079593 4.142176817256299 6.660456095689987 0.4397224039382879 0.24936512496553187 -0.6354062373302798
P 6.613692333698419 5.317350582425932 12.900889122894759 0.7829158250098903 -1.444620848135699 0.7759751320259991
P 4.651315908930331 3.683158306035397 10.26880239182639 -0.3506563051075509 -1.7269783688668516 -0.32936242872578114
P 4.879611075036463 9.654791916983822 5.803589721762384 -2.2918553898283176 -2.5367257122472893 -0.7408037263311886
P 4.211352115426078 7.418401978591984 10.92673232279125 0.8284472337827862 -0.717754557821209 0.2438321109624446
P 1.0401503301434398 4.201528185085783 3.9190809199434753 -0.5439050466954891 -0.30259904458900794 0.04007347098211808
P 1.5943126799242229 0.9372307580406268 8.993188206786048 1.8391967374443356 -1.5679870057998868 0.3454639622733341
P 0.5125116654955735 7.0376783386114745 11.285675567778616 0.7423448455660635 1.0190919620889738 0.26993395025581896
P 5.990410292900727 3.50767139943776 7.437440940948653 -0.4799951354154056 0.7343245463647482 0.47140070887817526
