# total energy = -381158.81552430236 ev
CRYSTAL
PRIMVEC
9.44881597064394 0.00000000000000 0.00000000000000
0.00000000000000 9.44881597064394 0.00000000000000
0.00000000000000 0.00000000000000 13.82929727400147
PRIMCOORD
 96 1
Ni 3.7502444083182533 2.4692212169991405 12.851053631748798 0.39441390980947555 -0.9765605164846666 -0.9465714263217441
Ni 8.91200015305698 9.12258590902179 3.327425967808535 0.7166453839174303 0.4075687020238787 -0.5516240126063017
Ni 2.321895282283687 0.08653225436917156 7.178137743920687 1.7607348964920064 1.1044104209518206 1.0131992507536227
Ni 6.554804095241165 9.20736068366693 2.017279636675417 -0.39884212078415826 -0.25989944883795235 1.5516142208688182
Ni 7.07809840747893 3.849438075753017 7.8311019338184105 -0.5226173409613064 0.302845099161543 -1.9082077173964105
Ni 4.314499336704781 0.7390636885068916 2.6268199041660205 0.27921486133711265 -0.22160492413312802 -1.1742580378725778
Ni 8.065858705278064 6.611903288640696 12.918665577519057 -0.02308053596854735 0.3700185116842466 -1.7351416214039344
Ni 2.619391245246492 4.407031589056528 7.302698646920521 -0.5482982906671783 0.21530006496102275 1.1051804663486255
Ni 8.065235083440504 0.3280846140950738 0.30626068442522497 -0.3082582997573143 0.5561895204897971 -0.6022019826641692
Ni 0.8555335706051834 4.564836260406116 9.86268140820537 -0.2637828430527586 -0.003702645662567817 -0.032138789516073685
Ni 4.824848771405337 1.26514918090852 10.70229939361079 -0.3411753622003092 0.34376420597340795 -1.19769287185675
Ni 3.4361657737658113 3.7078097769170792 9.86165810146283 -0.4268532612851036 -0.29691819215414667 -0.9101980298990324
Ni 5.710127213898941 6.7961646440079395 11.810053981771995 -0.7083489482365929 0.23360014882179123 -0.23375647189399743
Ni 0.2002222948824655 1.3157475890922845 7.149414289011663 1.16111018763671 -0.7329412928639765 1.55392127173544
Ni 0.6296152213705709 8.63345851442968 6.237067824123282 -1.5246747161654965 -1.7094881825018882 -0.982551701071095
Ni 1.5568341222031614 6.5811095982072905 0.035769436791868954 0.7953144557845594 -1.3517150638438977 0.9800322770833508
Ni 6.782284333714391 4.694351177488256 12.010772339479791 0.5165202269246331 0.684467513633305 0.8568057303208211
Ni 2.3916275423016478 5.3388265513426 11.574540360173122 0.19139626176023167 0.6441449027548584 0.5210317416417414
Ni 1.1663996078126244 4.375982780598666 4.839783569533303 0.8863083677656284 -0.4874801309385411 -0.6062841231533429
Ni 4.189406465379878 8.22426810083377 10.203380191287433 0.31659433042683544 0.13804612827386548 -0.21531729135220337
Ni 4.141359237440673 5.401254876808544 13.52325466557207 1.6053425636302094 1.0908766481314438 -0.6908248233099006
Ni 1.1749696836712005 1.6631899919541329 5.281519483997217 0.36512827347148086 -0.5550446082520764 -1.6134058002543181
Ni 7.977351648423288 0.34392082924278417 5.491959728199928 4.138229618857698 -0.9400660211030584 -0.44762134707039036
Ni 6.14873179083305 3.138613117908683 9.671809661360001 -1.0152283653685097 -0.7239779130231015 1.5904826157992416
P 3.2084304172681293 0.5406895819793738 0.5263453348339446 1.9350873153960735 -0.18622320219972444 -0.44953913291839354
Ni 1.2928342109698514 8.020088641927522 2.154480220464685 -1.7600232151369624 -1.0235913926212241 -0.24941474725654464
P 5.935216901994858 7.619751768661805 8.36429104587878 0.021323701178440693 -0.3559908299465869 -0.3030947532785038
Ni 6.616561554790947 5.595513079208174 0.6683515862987055 0.06975968519264115 1.4365990062724872 0.3870690394086302
P 1.8604907130157915 4.355129244303321 1.9305971461362879 -0.48031703753119864 1.7599977612156656 1.1167835978051925
P 6.166533359650644 9.103338671398946 4.723257939422259 -1.2048991597972023 -0.8538168228958263 -1.4618930049525856
P 7.419569158805365 1.2378987963703358 10.579288096389133 -0.7660190492545518 0.3023666168632277 0.3010928923571266
Ni 5.999487746526317 2.5616967764565635 12.178590865730062 0.9348273984119384 -0.5983386430540211 -0.2168545539323362
Ni 6.937736249949553 7.329559740251017 5.863303855308584 -1.2139412153948126 1.38886544764195 -0.21148814741410027
Ni 0.48299605807101764 9.398774792534661 8.841415609861022 0.8487499498958802 -1.183202648660375 2.0529811370917805
Ni 2.7896683533472606 1.1515366206841349 9.563843713410241 -1.05325549534456 1.251611990472709 -1.6218624156621035
Ni 9.189852028136677 5.362278511961107 0.634780888925018 -0.11158459164822719 -1.2672831213510627 0.2714079636981842
Ni 3.468896471421938 7.899172147151119 1.7345398892234587 -0.09516398419835868 0.9789159040907205 -1.9163437162399832
Ni 7.88926978827594 7.381632163687193 10.325714008421924 -0.15993984302316328 -0.4785218933039888 -1.3569667991611405
Ni 5.11895260952445 1.752915946036864 4.963321165790597 -0.7061930782358548 -2.1527422537425185 -0.670913171987638
Ni 8.424516852400254 3.0501533051325107 11.178994981359319 0.5217915026259013 -0.24404705518672806 1.3386402329378104
Ni 5.806146079251586 8.268025566435826 13.751437895934908 0.7658879229933261 -1.34446532426002 0.8940736135333441
Ni 6.2732955284775995 0.7768419435209583 6.6364579260537955 -1.5273576623142986 0.7692239293450946 3.090645205755987
Ni 5.576199699875285 2.865948642659591 3.138213433003702 -0.6685364442253453 1.5684045529532793 -2.4292597707531263
Ni 1.428982196687846 1.161996459686829 13.25948814008706 -0.159875308333815 -0.276374306564524 -0.017352118125202376
Ni 8.205200390709619 5.188873845856822 4.982114860258852 0.6737228735222912 0.4464715497366633 -1.2286558958971678
Ni 6.067226306427233 3.485309064328605 0.5833651581814225 0.2129544475469816 0.3655594474716285 0.06668953090774966
Ni 0.2421693673924568 6.631405644287995 8.824958607520468 -0.23250305910287053 0.7663208967656867 -1.0442417218817241
Ni 0.06020218448217293 3.703245998924034 6.8367066776202785 0.7767541762838688 0.9432145940343692 0.4597458982480663
Ni 3.934638047105585 2.9201187031857385 1.2961318476563375 -0.23671426897074072 -0.37093176752713536 0.6931084771377547
Ni 2.6360211609147317 2.798625830650381 3.2850801552751348 -0.6435720609705239 -0.2211711790298191 -0.11183244599297515
Ni 0.768761316316709 7.469251031864233 11.046206049629992 0.16969563685834646 -0.08221745134001969 0.6585366527001562
Ni 4.9328676327231324 3.132235167297284 6.712201522633197 1.6831053216329852 1.9749039331723794 1.7592477704235183
Ni 1.5655364814818258 0.9212103989158669 1.8047927789876244 0.02879841228893105 -1.2765869152504918 0.8731702877217735
Ni 2.6103487286018865 6.884983511781494 6.378514705697385 1.5511653062568576 0.24280881190425282 0.22981574207869457
Ni 4.386641044731492 8.69983644486683 6.457202553255321 0.5668729683455721 0.9333803815527666 1.2404055802339282
Ni 2.2231929532663943 0.06569289129740831 11.272011013075957 -0.7397768277285712 -1.1264131504751569 1.2876148909298792
P 7.981565820234672 2.2703519925278637 6.646360284928975 -3.00872111728667 0.7779250566635183 -0.9251775340270001
Ni 3.1015265162053636 2.7906226837350405 5.603769454384825 -0.8902298143072217 -0.018399585553110248 0.03539869121426807
P 2.3250417379186437 5.985768066100019 8.908653382528747 -0.09137134992514587 0.35516190628738836 0.25729389289430526
Ni 0.2204493746955345 8.311754685590723 13.49010538537952 0.7669395041862921 0.7074907140013558 -1.1190991333122469
P 4.807585785083817 4.3892678155018165 11.283447859624163 -0.022483011593864507 0.3787584626604058 1.2197259403973897
P 3.1645784635088665 0.9116935517220877 4.353864047878334 -0.9515429113944065 -0.6733945436485952 1.3341852824902507
P 1.4317412508782583 2.779539222894787 8.865312609699968 0.35951272705691634 -1.2037997560854363 -0.8316330877099355
Ni 7.841817835727133 5.828464181983621 7.083061870376958 0.4320078089028495 -0.12485662616678499 2.7606286883859745
Ni 6.6865205863862025 3.4909594561295183 5.070027586604802 0.967185760137986 0.15690388441031689 1.1130632115308121
Ni 4.375963882967224 0.02606266840210591 12.485310762599308 -0.5493760971123893 -0.2668136594592824 0.4526668799140978
Ni 0.25480243401088687 5.78080435548896 2.938462634025694 0.15646473999036925 -0.2834026741662151 -0.12938999526076425
Ni 9.227108708522966 0.5296647037965883 11.483128737365838 1.220508069979053 -0.1429836747847989 0.03857914582477872
Ni 7.909802064836784 8.754686820124862 7.898948210218541 0.30878460457442947 -1.2477936451678833 -0.7603574800934002
Ni 5.313947819550284 6.919528382055974 2.2111797289592348 1.2802594790060724 0.03398124204145115 -0.18016439760015424
Ni 7.745950151426016 4.955894396634212 9.901126749609311 0.8511557311238954 0.979606759510158 -0.793826044164491
Ni 5.194051796871706 5.561884744058589 6.485663331087313 2.570709011171269 0.08397094369601668 0.4784241913838599
Ni 7.344725089482566 1.5379931836563032 3.608921306230091 0.16395976281583374 -0.9012850436801189 0.1698661009979397
Ni 6.331812044235219 5.230987217523496 3.35433713986235 -0.3933643854990387 -1.2997271008123807 -0.12673790234989787
Ni 2.927885629708064 7.683162770962691 12.595018127286373 0.9512192095064005 -0.1297301522090024 -0.8319786439748125
Ni 4.447670945470789 5.918284624223559 8.574081211559914 0.13831737965738117 0.2992910632616974 1.0908468233347728
Ni 4.4038473381586885 1.4061727555383394 7.974898735862223 -0.23397193033891317 -0.7477336206818025 0.5330665613190885
Ni 6.197223113111123 0.17355395739266974 9.200354386810112 -0.8862042380875964 0.026450737992360897 -0.07085703202187796
Ni 1.6881348654564927 2.9105376040450595 11.73590062087837 -0.7952054410105208 0.18231332562235697 -1.244325998334257
Ni 2.855980142074368 8.237439749948274 3.9314897017074837 -1.3601966189523478 0.5951335058531622 0.701936616952346
Ni 8.015250848278578 3.430581523674942 2.5291985196671636 0.45891466059602254 0.983106030912668 0.006545000207369372
Ni 8.608419152770114 2.4091267490161825 8.9767491076639 0.26366920029302976 -0.24272062306582073 0.0037031598832000735
Ni 4.566829960523161 7.171717273638546 4.9192745664274895 1.3754345189480248 -1.5233858221507444 -2.0900500169196197
Ni 2.4550574422339744 4.037441162145614 13.799826226121626 -2.2109198905245147 0.5496699742037243 -0.9391082851754794
Ni 7.4959061410120205 7.151373973392114 3.543328572379321 0.2135326886479548 0.7922820967161388 0.2944548182153187
Ni 5.626108344511446 1.239051551888248 0.34159642057551876 -0.11205201820294895 -0.7826679706651424 0.5333594099691589
Ni 0.5957015319862261 2.855649433524147 1.0461501994260962 -1.2125507628051893 0.1623836765779655 -0.06008848065146426
Ni 7.234523551733313 8.832280494822355 11.80951445439435 -1.395191389859978 0.7191372971013485 1.2265342215684747
P 9.310220491601283 4.960883371334685 11.806374612930398 0.03065012078568915 1.0356858618919131 0.8671875877757774
Ni 8.158475996971296 7.630976961737867 1.3154622348575227 0.18546189855366768 -0.8675179745320027 0.13620753240322994
P 0.3375409888682412 1.803731676982202 3.3453343082437708 -1.8150769615779967 0.5895192449901782 -0.640966762137193
Ni 0.6009796404477481 6.039116079658475 6.384446672206772 -1.1347437818280395 0.4978450191126329 0.13661350959239696
P 0.33819106738981786 7.39597546595105 4.425997251970897 0.14012280829723608 -0.2449993917976684 -0.0969411307034395
P 7.890677661818308 2.3926858096623542 0.6030621594325664 -0.3793732134262692 0.2886991466784641 0.1006957126498653
P 3.6425090114720753 4.892615677753414 5.4031342462553695 -1.593312371938553 0.380898391821544 -1.9680519432475525
Ni 3.7195641036734948 5.069610893831523 3.0025889116766282 0.15446107929677916 0.20643721525375416 0.5619837585740709
