# total energy = -381166.5266153765 ev
CRYSTAL
PRIMVEC
9.23602322341237 0.00000000000000 0.00000000000000

0.00000000000000 9.23602322341237 0.00000000000000

0.00000000000000 0.00000000000000 13.51785357899668

PRIMCOORD
 96 1
Ni 0.977078871220056 8.215507094265417 6.045833220766507 0.2675253408143264 0.4445398799315892 -0.2227552356874873
Ni 7.580863011109967 1.0145955965711844 11.31748452317204 0.8146990309587582 0.886277514527693 0.41155879701987835
Ni 9.330692217128856 5.409039915063247 11.601873677604386 -2.4054354146400185 0.18879199136816519 -0.5409994430129198
Ni 1.214065984904104 7.736360694027642 10.928481707234367 0.13368425176074397 -1.0080498453421995 0.6912477697799322
Ni 6.374573757556344 0.4507964276958512 4.788888999170474 -2.2244006986197693 -0.6130294122969765 -1.4371394521569893
Ni 2.5779125545002923 7.1500579551577195 3.6646498029782046 -0.8320781456671541 -0.7905540582814384 -1.4285691939894751
Ni 6.069840415302496 6.054610213405891 10.823893906593392 0.39966564512671815 -0.4769897729301785 0.5009226295966921
Ni 2.1600841108371474 6.046898134216281 8.942114258248335 -0.07398375057631773 0.6257836266388513 0.19285741968679043
Ni 9.140596392122227 6.4243374493810315 4.735790179447144 -0.849503283122137 1.9737106841952266 -0.28464940208912265
Ni 4.374762353518342 1.7243654906587056 4.847678132652749 -0.010241732332666233 1.6884352184863307 1.1935626517384603
Ni 5.668248900040947 2.145565082710123 0.24520532693304684 -0.43258065068718404 -2.0690384476649593 -0.40991560498950047
Ni 3.7837215348588744 6.749371570148365 5.483800903087547 1.1013896318476257 0.03408562882979936 0.8134754429643023
Ni 1.6195458658408928 0.5675554594219367 3.057481964590622 2.1530584994313564 1.7110920366538984 1.799934192399287
Ni 7.180841619755285 8.907359103768696 0.3694196764098538 -1.258642157846613 0.9649679265510608 -4.191741988953542
Ni 7.783935448405698 7.561993816158624 11.840841918217981 -1.5594550570694756 1.4022716937455268 -3.2090005404691446
Ni 3.876589745938539 9.073404324931321 3.780930408713845 -0.8238161627686781 0.6160152343981778 2.178293876959377
Ni 2.6087978153506555 2.9096612639752255 3.847004917123981 -0.11418423405460335 -0.15353676771029687 0.42605416242257593
Ni 6.181550113264558 6.9081018611095875 0.7371907227174977 0.07692843502693848 -1.1134475914534243 -0.11221322637116159
Ni 2.800990217574099 7.66989827265228 7.463030753513424 0.24200817037982839 0.14319990456066306 -0.458551620829649
Ni 8.937699439263145 2.015512643106667 0.2699892710017858 -1.1486508788274348 -1.0147935918239364 -0.233913566297152
Ni 1.0128776962966128 2.5843408264954633 1.9858271416416098 0.8272007629701947 0.6446187570674833 0.5557753157705138
Ni 4.191769030184539 5.001989910219592 3.813778324447791 -0.6134680424962919 0.7477742441117509 -0.8914942828419421
Ni 8.322312464024266 0.6714302390887351 7.177006823013338 -1.1946617983399102 -1.5675848852654615 -0.24605225854221494
Ni 4.743916956068625 0.31250915000202945 8.948278379986233 0.07058680907962682 -0.5141170167997791 -0.3050832444634423
P 8.307507119184812 3.2473395002043253 10.102973361960222 -0.21645629005265304 -1.251455924510819 0.7422322312475992
Ni 0.3664013440994775 4.483424163896487 0.5653258834741862 -1.1750296259312796 -0.6933802427419027 -0.6819853706413996
P 4.932738209903796 7.2721581789740455 3.3496700168286058 0.6298343996694572 -2.293095947103638 -0.05308608119170212
Ni 7.241531526767167 3.2720550977030007 1.3079797137852813 1.0282368618130355 2.3451083356151874 -1.119245171971808
P 7.485390241549501 4.916178020697845 6.777202478198722 -1.8887380387075732 0.763620210005072 -0.1596706485221766
P 2.0350468317126826 8.00604332906644 13.270030579601867 -0.100971077798439 0.3383373785308818 -0.7126344629858243
P 2.051191399884463 4.592686315768433 2.6312903021176672 0.02621573916341937 0.39363100889686403 -1.0491234754540577
Ni 8.486981517762638 2.8666029248351563 7.837691872965317 -0.010384685668433728 0.46793331915486513 -0.22356950405866657
Ni 3.726310416005449 8.003290994217933 11.116271297302498 -1.0408229260081623 -1.157417055055839 -1.0653052274202428
Ni 3.3455091884754093 2.6865281847635294 11.379666971497743 -1.64397338862853 1.2271818824548026 0.9705461919697866
Ni 4.103546538664604 5.6761364636672065 1.485301195406103 0.3008704919336754 0.004854242768507769 0.04976807256206268
Ni 5.494500835711694 3.3283024776607486 7.536514399559373 0.7987065121852438 -0.8731324925053028 -0.6899467915803214
Ni 4.482177300793975 8.939029426572493 6.290087237332452 -1.04188170628998 0.25913531697841824 0.1778293217090744
Ni 7.305195433179114 3.2577854421964787 12.283646415227881 1.5846241001359354 0.5199521354243173 -1.0371081961607365
Ni 9.062644358157796 6.0652870559725836 2.313850963048077 -1.0317849841756102 -0.6787714916897923 1.1305533978957756
Ni 2.410454221821487 9.127176450730008 9.25205117585 0.8680933874194986 -1.0527060505989936 0.7267359353842129
Ni 3.779399076103501 4.42670574676668 6.14525623735619 -0.6676381007807921 -1.872526461944717 0.2116645250909645
Ni 3.2366072414997435 8.41301020970326 1.635889932109075 -1.5133569771598323 -0.3796637480834945 -1.7239097572438569
Ni 5.120451140981181 3.9605729029099344 12.494659985083164 -1.307897038217683 2.403840302238757 1.6925291860500467
Ni 8.122601939093826 8.586157932538713 4.871442419784324 2.1787440771229187 -1.5625244400234186 0.09058459235779237
Ni 5.064157580908525 7.205871242035333 9.156777904385933 -0.8160702002746719 0.25237871498087505 -0.45437846328856585
Ni 8.683911999775626 7.03989067303358 0.05429765550633885 2.277008297513156 -1.741737529453897 2.873134506296891
Ni 4.590229533655337 6.533350228632476 12.666796363402135 -0.5683307838380213 -0.11586470708081979 0.6938515259513663
Ni 4.548020908629573 0.06525434956937272 13.229273857388804 -0.6280179152860088 -0.4604079573120974 0.11148611839714993
Ni 2.8348125337326002 3.5122101672697266 0.2021617654297483 0.43862248600588977 0.4805427803887595 0.9059225424521301
Ni 9.215361998158018 4.886604275110866 8.934381859808166 0.6545763825008275 1.8441975330930367 1.4120804523058326
Ni 6.7620803377710015 6.349645731529092 4.942194973834623 -0.7697556334788486 0.30689664352309726 0.8159521866395689
Ni 0.33523807895736957 0.13818568144102458 12.374445757159675 -1.5158537754397572 -0.5010126182073371 1.2448607877918045
Ni 8.716598285107395 6.734861778044322 7.293057451776737 -0.7513491059472028 -0.5783871396327588 -1.0410615243815298
Ni 9.100918437393412 1.6344066268182353 4.236224779601719 -0.11437269591632561 -0.8476981115925981 -0.8486447917765836
Ni 1.5720265276007264 3.6714576755179182 7.958960854713302 1.3002955717213414 -0.2498135253568601 -0.6549322231783494
Ni 5.776670573821571 8.946953934290676 11.30702195633852 -0.19456617484778105 -0.2740844820890828 -0.543674932962554
P 7.779668405788214 0.9111225839040841 1.788763660897687 -0.6867429399310431 2.8875848773942656 2.280618383461918
Ni 8.665947935076478 4.2907607245009824 5.3034730959862255 0.1100290742356492 -0.5939058040936481 0.0650342546925138
P 2.059799373303284 5.435695077388052 6.775769971034281 -0.2464374097957756 1.5821026192656624 2.0671646276810143
Ni 7.002263115406672 4.723117432314134 8.753769583199013 -1.850138324057504 0.5373633889222293 1.8489581877064738
P 3.6960901488097595 5.500882927591957 10.96507390668504 0.5963352394707472 -0.1225061236567374 -0.9350302584513638
P 3.377567424244431 1.6856757903889181 2.065230154816446 -1.3976843314851606 -2.203613586671089 -0.6810140078670659
P 7.395089644858714 5.1664003553144795 13.403748796726708 -0.000981904297295083 0.3208471921659184 0.5178613143335598
Ni 5.704121613301356 3.863031264201597 4.999658738019043 1.5280508317265813 0.27065103092750165 0.05615289304248394
Ni 6.675289429813208 1.656425305606293 9.155885704565915 0.5318995375941807 0.958993968355813 -0.6133189185129373
Ni 0.3994958616470311 0.8915015766820416 10.080709004960855 -0.9742236408213737 0.8929384714876364 -0.11753720968723629
Ni 5.212755954658968 5.825649203692826 7.253328698921524 0.9154171122061266 0.008259154684998679 -0.04075455620954272
Ni 3.833725363281083 4.194142688090802 8.966405922292155 -0.6993752839830729 0.7574331073577536 -0.759265275470486
Ni 2.0845888589858124 1.320695870226304 0.19816903269481656 0.4655715037909079 -0.6801871410903964 1.5609468111236537
Ni 5.444931100369619 3.5482214208748593 10.334249842634769 1.7280785439095658 -0.08373697330833965 -1.4341394889884012
Ni 1.7390322951534354 5.240002222454593 4.7661656118289235 0.659582063245535 -1.92289951508063 -0.8144650605710811
Ni 1.3314835450687752 0.9608511788414414 7.503787475726486 -0.34772190506957534 0.03928619919413234 1.0131162041215132
Ni 7.710195040920861 7.979739135614935 2.3238951380405317 -0.85157713493203 -0.9416554770773654 2.860896826580118
Ni 0.26995971572824484 8.187521944631266 8.83215940465277 0.5062383853826508 0.03964049720975754 -0.9713303784339787
Ni 6.602223252006026 2.4559601070516717 3.2123146538536242 0.2897196175231785 -1.9037558522726439 1.4126448094497348
Ni 6.582245734296896 5.53176818844232 2.7202378214416556 -0.42811541582697876 -0.507602355609713 -0.3050377359374876
Ni 8.625946719543307 3.715864474013296 3.188942897698767 0.15653878776141428 0.9536507017660285 -0.9085872337684868
Ni 7.168419168845076 8.531379080235034 9.271679571890427 -0.29757048102616496 0.5216446926353919 0.2368379390327986
Ni 5.343187071204669 9.032544159260866 2.1215865198453763 2.7101782450449066 0.9568923486317776 -0.9974389025955726
Ni 2.095515074173007 5.3255832114018 12.504960921514506 1.5472916822340643 0.9518139056676058 0.623223579221159
Ni 1.8917037550387508 4.300356952378832 10.407544150209596 -0.3418554189864693 0.1068625035822095 -0.04992979495090756
Ni 3.5121085710169293 1.9142765952057024 7.5183730032189775 0.4182709189327312 0.28075315235851 -0.7266624018338
Ni 6.42627701420716 7.936440659877345 7.120786227522237 0.42707103372286453 0.11783057255793901 -0.5026696941947859
Ni 2.398308851600725 0.5542869888066164 11.668381355492357 0.9543037619689951 0.19728305955831182 -1.693754573816715
Ni 2.2466441182204004 2.135303861177601 9.512702827617419 0.28065802154154246 -0.04792999091205939 0.02693024873194072
Ni 0.9930387189322052 2.771665844607621 5.88336141689545 0.9591212379622965 -0.15906566794832605 -0.04127289060685795
Ni 0.7732897185409555 2.93277902949809 12.005529444002317 -0.01978258194356593 -0.25419777046748476 -0.8721827269975237
Ni 7.3261889134162175 2.261892792162969 5.544333797708743 0.8709357419643001 1.7285518840015586 1.0450495624950003
P 0.691907425641169 7.998987007508522 3.201244356707917 -1.9959766946822788 -2.4985461158537743 2.045905975412554
Ni 1.7375545314763843 6.2343432206272 1.2061858100962304 1.8842949153345547 1.537343569882417 -0.4682575352635033
P 2.1128972694243178 0.8331603903143724 5.556580764182302 1.2634303232638757 0.4833573670194192 -1.348789919777303
Ni 4.698955996194353 3.1636611319913213 2.1268039492276642 0.4839505205187279 2.1941192740274085 0.24452168083030149
P 5.135478150372191 1.8602550967865124 11.55545250249673 2.4594668904641255 -2.6687929972299007 1.0018357461116874
P 5.964540517289642 1.1972933671695767 6.780312247136616 -0.48009643687996023 -0.015307576891347832 2.0456810038859414
P 8.185185230816929 6.7986549887780106 9.89427064505493 0.6491076460767725 -1.8376527899959838 -0.26816014618484785
Ni 0.32705034458420973 8.975031444154643 1.420739547560348 0.5885165147572768 0.3417996260478694 -2.98683948672223
