# total energy = -340862.8300530985 ev
CRYSTAL
PRIMVEC
9.23942965140243 0.00000000000000 0.00000000000000
0.00000000000000 9.23942965140243 0.00000000000000
0.00000000000000 0.00000000000000 13.52283923068956
PRIMCOORD
 96 1
Ni 7.544243916256572 3.149814021448192 3.2553671156485042 0.42558416476469285 0.8057297375806124 -0.06077676496774048
Ni 2.993695375704711 1.7369573704148644 5.876701458169707 -0.1942447869526203 0.24038837538821822 0.4345336606484968
Ni 7.520821961651629 5.5955742508446 6.428893209798126 3.3750012449744067 -1.9999030263198785 -0.3367900886484199
Ni 8.279406868527229 8.617209662338404 5.676549537768932 1.6545804747204147 1.1653141984157285 1.387584009826365
Ni 0.6238555411756868 5.972330480795593 9.480078165756437 -0.6896331169946446 0.1963806023487005 1.5577131346777044
Ni 6.552714504647311 1.842767320764296 5.102843773794315 -0.13817751164540718 -0.4188139359203949 0.43100996376595446
Ni 0.8784729764485237 4.531275089938089 12.536956458372567 0.2517685922007019 -0.47750425067275176 -0.08320089829921155
Ni 5.537883251020827 1.7029193109416452 9.257587151926144 -1.4274829029038318 -0.7158611974532381 0.7595416690603242
Ni 4.355365585510668 0.7187361699857939 4.15199834353099 0.12110050155846241 0.265599070325891 1.9217381477826774
Ni 6.668512278636958 6.099104697416667 2.776387682005926 0.29494949846355006 -0.36498686279761017 0.6853848832412518
Ni 0.9902266520040144 1.6889770113365725 2.9158624188636693 0.25462225959941315 -0.23892927434418854 1.021069397530319
Ni 4.708358001953213 4.410414108404653 11.288190233135243 0.7571371733838896 0.6221802255583091 -0.19507859570782532
Ni 3.44846011166341 7.939266498970473 0.4475746116693234 0.20487141342853105 -2.0728467656674563 -0.747666514889293
Ni 5.382494520233476 9.201381852418141 11.244714096096363 0.1692724332779988 -1.4534803554088582 -3.2566276554288045
Ni 2.60660946321 5.833646639130821 8.547488924883215 0.7242360517804947 0.32856564385609865 -0.4349082703790962
Ni 3.0086078154413496 1.0187857295913434 10.471275881835002 0.16619353724235894 -0.47675657387344994 1.5114844427274678
Ni 8.466976533393087 7.368168102092311 1.516870456224889 1.425245528932881 -2.129249569937217 2.895221825114233
Ni 7.743399826122272 5.814567216543362 8.741325694998988 -0.8709100309326873 -0.38675793592611457 1.0465300036952687
Ni 1.9534464506312048 3.256547914780067 1.5305152461896148 0.7944163694503221 0.9057952728456463 -0.965130163160538
Ni 6.251481374081252 8.436819034446131 4.74604378832112 -0.9410723508803857 0.29145511215704645 -0.6988528358206996
Ni 9.063880657770897 2.880808022109762 0.9125701682726193 -1.7458147848470644 -0.4826775673435751 0.9400063715097166
Ni 4.685712159453523 3.4855656618383417 5.276233685708613 1.047892174150118 -0.21006684158654143 -1.617022571071299
Ni 8.195826986335389 0.6852986734511631 2.8039341180844968 -3.155032570893121 -0.289204882670289 -3.427207494664317
Ni 4.398504483360956 5.296124330234656 3.2274825164383594 0.050558429673841956 0.0023134786245250483 -0.315185880115083
P 4.897978820240096 6.612863192804385 12.379415864379105 -0.38071815748993787 0.5104688785242305 0.13294763070503557
P 7.401180584855017 8.815617178388324 0.8395888360323883 -2.953466310578423 3.6825789737249286 -1.0027580008156407
P 2.0344023347529054 0.26246078725079997 4.748220597987757 -0.10485832866798714 -0.6031707743353418 -2.0441717663302663
P 6.925617892361515 2.76928810412883 7.745976703100307 -0.21190415190559636 -0.4916705148708049 0.8541117284284258
P 4.3376535985372255 6.580488230699564 7.478711412340801 0.954981247651994 -0.0957288555628932 1.3497026613995593
P 8.644650768916975 1.2729070074826083 4.613073610059779 0.28605862373182345 1.3202501604663974 2.628716440923989
P 3.8855221000784907 5.590788226195543 1.067254854507348 1.7310592238044447 -0.18010886177187047 2.2753663910343587
P 0.5756192498912581 6.623765719997219 7.360859713101183 -0.5928537086800499 1.2728421034960788 0.24587330976218946
Ni 3.943739747402257 2.595309640534716 0.41201389416103734 0.032637326419047014 -0.4637221092869949 -0.6195445877076748
Ni 0.24409187681684041 8.282335767781575 3.6883000028750454 1.4959382674627526 0.8691660516583869 -1.801401263863117
Ni 3.258090899560748 1.1428065961247367 8.250554901014466 -1.3862133547310835 -0.7279060444329141 -0.23053667940511913
Ni 7.957421978575487 5.528394356591132 11.165781647106213 0.4843382428754497 -0.011099966567903465 0.27353940821889017
Ni 8.800381358607831 3.6584908304324704 8.726842888749186 -0.2693796204142458 -1.1567686228385627 0.843131061047206
Ni 3.428826323286485 6.296791537940283 10.702137819086232 -0.8298441141303128 1.0157826952100828 -0.15872036879376536
Ni 7.973831205943685 4.679651093488694 0.004921844267476612 -0.4492812512713165 0.28731383629516327 0.07088120039159405
Ni 8.712117085495 1.7258515757658934 7.079706635372569 0.5805607502453098 -0.04708589774420923 -1.0012487632599658
Ni 5.5640493162836275 6.144784438468675 5.637036192181753 -1.7906728217020191 0.4539596305835924 -1.4877446759083668
Ni 6.7548270320568315 0.48351876551532347 7.2275652308530045 -0.10555226941121822 0.9607685437577325 1.0896180931339943
Ni 8.897007315711774 3.127112742369555 11.176748850307819 -0.69470667486281 -1.2971873651096628 -0.15495293133153315
Ni 5.381644492689628 0.15177796161196133 13.349192886352697 -0.41054089727832516 -0.057969120315616296 2.546360407123576
Ni 4.95558666519545 8.49514755492779 6.851049226077447 -1.7351282516674955 0.5476105205715343 -1.3893547285735428
Ni 5.906471825007019 6.761497900390074 10.506691540295042 0.3457295572298949 -0.04200565500782443 -0.8668554012473394
Ni 6.26076700105481 6.224345168686887 0.48963064834418735 -0.8115437731592281 1.208099411902055 -0.07884133577893519
Ni 1.8924200166408105 3.322388091708992 9.619161150789626 0.3834221866846622 1.1189530946526858 0.10534169606230889
Ni 7.102146438587173 7.415972912003939 7.290459877553899 -1.781046868576481 2.538140847427261 1.5339270880017002
Ni 2.43582784233514 6.955821588457594 3.191849731377442 1.1243742656682572 0.1559741735071959 1.2308709012706158
Ni 1.3594712255077412 2.056262825717519 12.932310736617165 0.3480720893201425 -1.306827459302588 -0.08352100064279164
Ni 0.642648541438588 4.516113185596192 7.0296455566978135 1.5895953280982815 0.27516228853429386 -0.7700076015886546
Ni 8.667693906899116 8.2917230284832 10.612481163898861 0.7474888516608481 -0.5606650397626474 0.8145645622634229
Ni 8.83694178242312 8.719055897293153 8.292367016741965 0.8318225780129223 -1.2996723363150455 -1.2741651931828766
Ni 4.813447276776339 2.091603644795984 7.123386039867586 2.7324270291407777 0.7483224033057371 -1.0061847671090025
Ni 5.104803456860078 8.826020776370639 2.2572592300042467 4.102965910559399 -1.1958866718859467 -0.8107914683742358
P 2.70827090956826 2.9835689606171303 11.71533646546274 1.4165012070813474 1.5318982304971296 -0.6864606328039339
P 9.061487645446368 4.894015104845414 2.125614909922712 -4.362715206972732 -0.722179169251466 -2.436569417040662
P 6.763068603460228 4.070597118891752 5.3117445102958465 0.17555466674228473 -1.1403665273314554 -1.9184687330027865
P 7.850059804015551 6.913458802712559 4.360358573387793 0.9664697079075678 -0.3831324233583853 0.2797434801470731
P 9.042685405753643 0.8846014902510715 11.841301308031195 1.127363173093252 -0.26031236800565494 -1.0385143324796438
P 2.9386468528107264 4.544395080288787 4.678253167756257 -0.2031390041184566 2.0623196408838873 2.4864411050601243
P 6.761276154074287 8.52845569944488 9.441362182963108 -0.513207103391 0.35065039157028 -0.43552404958622415
P 4.053596568014791 3.8936435588941696 9.30689152129828 0.13812171870680728 -0.2762652917904855 -0.9614843388778344
Ni 0.8882806312071616 1.2454381826145624 9.175936462681646 0.5379496004430026 -0.686134874033399 0.22736496654535682
Ni 3.0938045978524658 0.11191074586250604 2.267725656109367 -3.7339365022612987 1.6339406869828763 0.5149757652556486
Ni 6.0075049901372175 4.041354323497415 1.2202838349175378 -1.1712151372811956 0.2798139283736923 0.43056387736747137
Ni 0.533639900483937 0.4391565671562805 0.9214705110224977 -1.3598986280959546 -0.14954178761829084 -0.6731448895316342
Ni 1.5822246391450487 5.7515265868512415 1.1894324547907662 0.8126758298811423 0.7860016630240657 -0.8622125031586892
Ni 3.0308194047392916 6.455136886271452 5.850697082928834 0.0987146776640945 0.24455896182614012 -1.4383632972617617
Ni 0.04656303054322346 6.689818403812105 13.154112488982555 -0.5925703731116763 0.0007816153610309119 -0.8766752155512386
Ni 6.796580015433454 3.633294905301235 9.8611251869179 -0.8518756400090554 1.0423406482042696 0.6618168661133247
Ni 1.3349497787536904 4.775667248224224 3.3309724459588748 3.4572487782214134 -0.5423076203013821 1.3763277201862554
Ni 3.4344161783302685 4.353998149896651 7.0052091126981475 -3.3619102161184036 -1.4441683339793128 -0.6913927799982287
Ni 0.9054437960490324 2.726786726936428 5.305523602195054 0.2640098714619002 -0.07697317222194486 -0.7271154302108187
Ni 7.8131944790160555 1.2955158922630012 9.679837410389675 -0.017979210186240005 -0.11882764636388567 0.48533043158538997
Ni 9.064296432112997 4.716581094496961 4.8234212412718165 -2.9995924155125246 0.6203593702994864 0.343068465457964
Ni 4.955078496555106 2.1343360077339963 11.688290806480653 -0.17596450058619373 0.2546986213633033 0.46681386083844123
Ni 0.8623769657513752 6.936788363019258 5.267700148322764 -0.38958692073447737 -1.6441405103340136 1.1115305769363695
Ni 1.4505535247170231 8.55583213001468 12.247095218034422 -0.8720431160958659 0.8566895164579311 -0.19120291480250295
Ni 2.1042247059361623 8.644447501460839 6.675238583549147 -0.1995325177141209 -0.23403852191079047 1.1714977015186212
Ni 6.343496855702802 1.7993142822999773 1.4414674694276737 0.8543004474004642 -1.313069326447242 -0.09667245042308513
Ni 4.210426649854753 8.3117633517724 9.108754720542214 -0.355281205474072 -0.6046247331730491 0.29817571871033166
Ni 7.238936197137937 1.4967414344093746 12.584652243012265 -0.6440173760380586 0.3334877637480644 0.6058102688407179
Ni 7.208094980383971 7.776440027174452 12.448611802220265 -0.618043063461484 0.30849072748309453 -0.09744146737862573
Ni 3.082089000835082 5.193917757516754 12.79165982034277 -0.3538439588069132 -0.5388199188630979 -0.881276718878992
Ni 5.445276445890514 4.567216471955142 7.579727022554333 3.129192727011882 0.18007569454108988 1.1667612152749003
Ni 2.877250841627355 2.843416049610273 3.6144520121172823 0.8169855130000897 -1.8131928571814064 -0.3707618176081744
P 3.2207543636402054 0.35565244828900033 12.60902031523123 1.7901223485151878 1.7186222835926723 0.145343176155911
P 1.8089140498875655 8.189174596861795 9.276505808434658 0.3973218274848899 0.8340944047662345 -0.020170047189971715
P 1.5011578818654545 7.997973836074935 1.627622577587411 -0.7374170692471429 -0.8458273769324466 -0.30934176262948015
P 4.53411159489419 2.05011860488427 2.461224263093565 0.021702938894730364 0.06711479137062634 -0.5873489768117368
P 4.540283534016913 7.4784406970469455 3.856984273179758 -0.24554549410912552 -0.5353985518863746 0.2552133562161927
P 1.2599718057283988 6.541996766050968 11.532615653368746 0.9750955019033659 -1.2991717425295433 -1.3484693032130906
P 1.565713778048783 2.3958950266339314 7.435344300573849 -0.3147572772180966 0.7744098444214083 0.5674236986427195
P 6.582520905260941 3.6010585346437813 12.111690450014342 1.275919456869822 0.2135422017296516 0.38688751952544337
