# total energy = -340854.78215312056 ev
CRYSTAL
PRIMVEC
9.35057817240621 0.00000000000000 0.00000000000000
0.00000000000000 9.35057817240621 0.00000000000000
0.00000000000000 0.00000000000000 13.68551632623823
PRIMCOORD
 96 1
Ni 4.99270383039523 7.1280673233998915 8.620054932412213 1.410683829068622 0.27278324677915605 0.6338355504090503
Ni 3.7241950404890454 7.0205169728827865 12.68521506692543 0.6625995099156201 0.7946683375601281 -1.0619298831901065
Ni 1.0166696671034383 3.9877036848919776 1.4339410896295985 1.8402807145371338 -0.5366643059726757 0.7629272977031054
Ni 8.193163635028464 7.852129346725574 7.828320904499295 -0.7435085268568614 0.09008759811671582 0.4627736293307965
Ni 2.814121964925773 1.8405678139268706 7.097158052084525 -1.6425302284241001 0.3136293342612405 1.5323209198568448
Ni 2.7677617981840066 4.1579496622754695 4.799702285891374 -0.166063696532714 1.236106181527626 0.6583476766178017
Ni 4.427208912274647 0.21545695806383025 7.075384295675716 0.6241036678332671 -0.8085993458189236 0.6637562492278827
Ni 4.501891980400201 7.59597025679199 2.1808419002216715 0.33695283947852933 -2.100585883453937 1.120401397063438
Ni 5.430684913530439 0.525330444497632 2.7535947371451903 0.025307625526853186 0.044286737732517276 -0.058546075865008845
Ni 9.133401675881961 3.733826136040481 9.034001289328577 0.008458929400630592 -2.5379377302775192 -1.0752304569537545
Ni 2.3208135105499355 2.576963249905314 10.997694711889082 1.140725710443087 -0.10412067917101424 0.2545299569959229
Ni 2.5107892079465635 8.777041789900622 5.410965479153329 -0.9225213273510757 0.4469559455722496 2.192401005784721
Ni 8.357780564332378 2.301121192849621 5.786414570540742 -2.159337647571849 -1.1594772800189774 -0.6936746340538699
Ni 4.072644337308721 9.213115355081953 0.7625387175825793 -0.9014650209014088 1.3261194747629808 -0.0010155857487079284
Ni 5.438847968303646 8.243694159649783 10.897352722110428 -0.5909189535511823 0.6058202961430469 -0.6514753749780007
Ni 3.608771503123097 2.58946497296577 0.151482172098961 0.06672089836631734 -0.5298609098975973 0.23899817990891095
Ni 0.6484242611653698 5.696044972418015 5.2080775683130325 0.9062372454790715 -1.6080993004397401 -2.7301932547142527
Ni 8.50040493369748 2.03883747419158 2.9412094135449856 0.5937391966087968 5.399488902612184 1.854686862660135
Ni 7.9276446163113965 0.07376577640361559 12.796231676783231 0.2577446072784787 -0.7942711021217095 -0.35885812419205293
Ni 8.937507062481393 4.281321191115904 3.3196273135125756 -0.07013275226134373 1.4449540631054019 0.7325687400159061
Ni 0.14720895785914906 3.039181031748603 11.233454580410033 -0.34749770487391124 0.5196562014504533 -0.9093912177270209
Ni 2.3140904448203408 6.25573318147312 0.6061587126196939 -0.056956619890701915 -0.9222765583301213 1.4625848888132875
Ni 6.725188310847294 4.261516666477125 6.68202136656263 -0.2290025021487798 0.031221677018443007 0.10376560982444064
Ni 1.6537900142764477 0.6484869100393451 9.483925866005388 0.7221436880278402 -0.22522092361916052 -0.10249831307624283
P 2.203734920841653 6.261324827239876 6.380324960769344 3.2369875126003733 -0.22777557172021418 0.20666578632479246
P 1.783781752486219 2.7615436636774966 8.886840954476096 0.13039298260398188 0.836640568226856 -0.43804115958112305
P 3.6058354215666397 4.394640848385665 12.345909700532696 -1.3353003699313004 0.49343609141165995 -0.9673665086902244
P 8.239458347722794 3.933021503547513 1.188042389160666 -1.5678710490473127 -0.851704918759146 1.1486593634678668
P 3.3111145471144905 8.694186316423655 8.78456900535587 1.0106885685166271 1.6790710036626115 -0.9364798464136969
P 3.23517850150943 3.8551685894103707 2.090599469962536 -1.9583740538381564 -1.794637462776722 1.6785328717709544
P 6.118260980699127 7.90926137955982 6.99639154605535 -0.8343186049618986 -1.2082305381632803 -1.043491473979261
P 5.527210932343521 4.0733175789395 9.004275801213998 0.865881210259528 0.711100285729485 -1.622828636230115
Ni 1.3472219572382118 2.547733342435616 13.252944773237074 -0.3595975734612387 -1.1316633431305025 0.45225961717335017
Ni 3.6177106558873424 6.112407518742622 4.2523091521183884 -0.8625734860425337 1.2570799555658156 -0.43594982426973306
Ni 5.641989279813306 1.3295119621174158 12.00672776177227 0.991097533758577 1.1059399702224695 -1.5778703263518696
Ni 2.115297152176136 -0.003647660557878847 11.939326923952988 1.8308031140640018 -0.5705275343790239 1.0359085194256805
Ni 0.04363353813710806 8.461403672003266 1.4057621871501735 0.7219791374255179 0.28551200719973413 -0.27338874157363885
Ni 0.4037869536963293 0.30080903592160546 3.222323326592814 2.0964242958770796 0.7738452301671898 0.9541757210315631
Ni 5.054632709848783 5.888638831712122 10.812940377362283 -0.35656701416503106 -1.3326899288916467 -0.24959292470562175
Ni 9.181744165203247 1.41247029195464 7.779531457539797 1.308966360022462 -0.6059516795145886 -0.37698825813386044
Ni 7.701426077791112 7.902042733185346 5.322297686263962 -4.763616524278763 0.3587617078235047 2.3907847546063796
Ni 7.0022926959607 7.785497126434763 2.790148017465262 0.17103569582600867 0.2206109356509749 -0.4050875874732378
Ni 5.450835409562813 1.449470529912924 5.072084629011115 0.2789104427228164 0.09946826800066741 0.30680331247834264
Ni 7.160626036710669 7.264922386012336 11.95164350556498 1.3732069151690867 2.152917345867802 0.013055804742693645
Ni 8.374789266087777 5.8652717367771325 6.62458356982107 -1.3005035739670894 -0.33432697181990806 -0.06588066185320914
Ni 2.2890682975430177 1.9699143622404778 2.2251692512616112 -0.035061362479507356 -1.075015255619155 0.4423896663578059
Ni 8.591591772355349 1.5221899766153688 0.8562848094952323 0.966098183500762 0.6413927939310179 -2.4031093376100032
Ni 7.427865561817507 5.736532976046869 8.918248611609801 -2.386126944119394 -0.15363524096137413 -1.1437472708782304
Ni 1.9725605758725713 4.9550584025407804 9.992328958778005 0.30681205422909097 -0.9700365993232197 1.135569105942812
Ni 6.65264652513075 3.324130551976237 3.9293579470066855 -0.08430904376172577 -0.030939884111966073 1.1285816188813853
Ni 0.2555438218876765 7.961615266931171 4.644330273259017 3.4191565993353827 -0.8504797881027933 -1.041601970266032
Ni 2.7914561633561803 6.583368091207848 8.447275883392912 -0.8282430881917799 -0.028352583000764077 -0.027211270307469265
Ni 4.724117822026831 6.067655651452164 6.429249991112818 -0.6762546388052095 0.09977114395306688 0.5923633993071927
Ni 6.854244991236539 5.473398354772148 2.603163570036502 -0.32285599506583107 -2.4388376442495483 -2.9787610805894698
Ni 0.44684917150509484 5.725153322371045 8.42064356654864 0.4490020294680009 1.2077731389108877 -1.2374655237689978
Ni 8.762782158137572 1.0979261917073018 10.03115536465978 -1.8655114640794648 -0.9602702639650752 0.4913678960287215
P 8.082424737343358 6.230767137665029 4.123678858095306 0.42738547963948975 -0.7296903900268465 0.4701820059797257
P 5.070107916778519 4.24788352345383 5.1803783504955385 -0.2653177916400463 -0.44814302390181526 -0.31038974427802024
P 0.43133843237818015 0.28209198352810105 5.944400069781475 -0.19481248653063224 1.1219173194873324 0.20872781106014376
P 7.60757432434474 0.3629352125752913 2.3848107379024976 -0.8988532943101745 -1.1309416344731296 -3.2317306350768087
P 5.499299456400767 8.756498569583625 13.107645203447442 1.180629231506244 -1.36463151479525 -2.213418231466336
P 0.402599430264259 3.6525976631712336 6.068965667458723 1.4876567441802508 2.0417940101267096 0.7860255742834656
P 3.5640663887236643 0.17873443227824298 3.7750126278612686 0.387618484154197 1.765985346257668 -1.1893223884048678
P 2.7466107902836683 7.67256084287142 10.635260690305595 0.28915834570306975 -1.0958843857586804 0.966376119752497
Ni 1.1120455647972713 2.6686176174734464 4.297690313322064 -0.9288051034772585 -1.3721905580894305 -0.2262784183493974
Ni 0.7812342636462117 7.555454201428521 13.090552346488193 -0.1585704734794624 1.2025486572871547 -1.2934350971560822
Ni 5.321030682917146 2.9421313805560256 2.051623454829477 -0.20629297636640598 0.3905467135445854 -0.602349306875311
Ni 9.282356386692037 5.500066203813599 0.15100996789959448 0.32214534215205165 1.0287405409223316 -1.1919834801767988
Ni 7.403526006749169 0.6765208785565884 4.376163170794215 0.20667067142079892 -0.9745447716062183 1.8877862163172647
Ni 6.98997798446435 0.41717230639718433 6.922230240193651 0.22086984573931637 2.252520596784437 -0.10413404890745291
Ni 0.6718670957838216 7.687895791128075 9.681408207585212 -0.584927768964754 0.5438659659274375 0.7604626382126968
Ni 6.925356138487675 3.080604093197984 10.72074087108478 0.17198469000283928 0.4430321850378112 -0.5080373862646025
Ni 5.451293587894871 3.765561998469194 13.029322890284394 1.7521268431080212 0.005743073131364303 0.24135073930148757
Ni 8.77916437115322 5.297672938560362 10.587471755214061 1.3433594927903512 0.7854295925706796 1.9933094322627605
Ni 6.20488473719282 1.196471935412724 0.33651421879845855 0.36947395203468625 1.2183259747260695 3.704072624822331
Ni 5.880812397754304 6.405305030444743 4.34961313903815 0.06006611205396106 -0.7060408689287067 1.2773867854439678
Ni 6.935697877982712 5.712361731386225 0.009297279909507659 -1.6440991155731166 -2.600248158280967 1.533392555654469
Ni 7.181580682468696 2.512921139777367 8.362808370233354 0.12153784620619713 0.810059732414534 -0.07249096808087516
Ni 4.537527033940514 3.2690369451907406 10.658102282745446 -0.28386213030113694 -0.3882201222939378 0.6031684603424967
Ni 3.357652374842158 2.0905274705103554 4.9945290632609 -0.3440531979687365 -1.497996692653678 -1.0970758349636203
Ni 4.062985190022668 0.8178904003265415 10.695080079316039 -2.2712068603400306 -0.472064053493787 -1.9469596413536276
Ni 5.15770413340556 2.5425437715316868 7.150490944993968 -0.4304060116333684 0.09918801775608725 -0.012928020915577734
Ni 0.9461569568574388 7.769105562840912 7.0744679390115985 0.42784596421567606 0.8113278004936803 0.32345326233019783
Ni 3.458264596330946 4.189405007358024 7.970855508313626 0.16376770140968572 -0.06615551278115059 0.3460445173671524
Ni 2.2943887765418207 7.9234088043844055 3.318107844554218 -1.0349356139894499 -1.2231599057796032 -2.255575838670993
Ni 7.9770156692352625 3.3127041454093877 12.81415954037621 -0.7374659202072074 0.335966307195544 1.629659543109019
Ni 6.054770554685291 0.7496311794280139 9.310133214308633 0.5274062777095175 -0.7260157693887367 0.18931572508211914
Ni 4.80316761017425 8.32417458626261 5.057482766085752 1.4349943807895285 -0.13934273559810198 -0.05955009164949099
P 6.984049717882203 5.302460434601466 11.651862098188134 -1.0311632914312112 -3.6732607816477962 -0.7814562097452283
P 1.427150699736926 5.795329411801655 2.815945327675802 0.9005684772290684 0.1117260023220979 0.13841739557035518
P 7.6034507193562115 8.279834144413183 9.76591592823105 -0.5641751097984349 0.8817857973049266 1.9196648101934166
P 4.526755167848034 5.140901144370677 1.2767270130908024 3.0701835954675256 2.738463465142845 -1.299069412623724
P 7.771779828207621 7.410566992137743 0.6384799212440568 0.4999528094842551 1.1036231491638349 -0.1801363725756962
P 0.3859722320996341 0.9799405959131074 12.009697505410267 -2.3833267556664373 1.020991750214848 0.0667358107646528
P 1.110184799734421 5.811823831755764 11.893931736882006 0.007955250291334686 -0.30848275706329453 0.3990537225743321
P 2.0483189604917316 0.4000710339175519 0.7369443149190931 -1.7972041950626338 -0.35347680527548153 -0.6516054727979617
