# total energy = -340886.56165662414 ev
CRYSTAL
PRIMVEC
9.05714422777188 0.00000000000000 0.00000000000000
0.00000000000000 9.05714422777188 0.00000000000000
0.00000000000000 0.00000000000000 13.25604608751354
PRIMCOORD
 96 1
Ni 6.664291952375046 1.8586708941888102 11.339036371858073 -1.2657114059885686 0.05256363302932883 -1.4810680352191394
Ni 4.528825675773051 0.8826739461404282 5.8113046076199035 -0.4142057477244221 -1.8083627827826148 -0.04272145012792643
Ni 2.5850629122811455 1.7273604182807456 4.568258669979737 0.6397164346698595 -0.2510625672726128 -1.193179814477745
Ni 3.4836221835488437 4.498294042838433 4.9618839662316105 0.7907556327692834 0.01603108532093368 -1.5776893206893152
Ni 4.175243825243672 2.998720799967249 2.335993259544452 -2.1778256790737074 -0.044411436235839645 -0.5097883075174381
Ni 5.596735428385002 4.756223393984099 2.5476795497959386 -0.284224141626246 0.2246624800125292 -0.3778529201270009
Ni 5.119496388755554 4.3559700796421765 11.393187225310903 0.12436014614634067 -0.38404722186317086 -0.8407430204310036
Ni 5.562209594879585 7.767388710015472 12.607759313167668 0.12574391386774475 -0.2158978464460217 0.2867782755066674
Ni 1.9281210755423097 6.519133103059379 0.17724378247226297 0.6730901250342989 0.08225550366680673 1.4927758105743711
Ni 2.4975890140662136 1.3089747013475734 0.10046274864256054 2.156496578578628 0.34169961013489536 -0.2063240867146576
Ni 7.915916816955488 0.1772591796173205 6.539777051723832 1.0380610469923088 -0.6679494613736239 -0.16015710124029192
Ni 8.768728453114093 2.503213500584279 1.3672547068190606 -0.14347526970923677 0.11000464875561701 -0.7316171747359141
Ni 6.757372222819741 1.0959687851932167 4.3719767705010755 -0.12782059389111536 -1.0235777657744696 0.8271094888079691
Ni 0.8182278369306175 7.618960231661123 2.525820132386357 0.25545632546493424 -1.1649380460232326 -0.6084420500366101
Ni 8.041240520579429 3.6471851497803054 3.753290499229234 -2.688049017246035 1.8071103984327523 0.29995389365667696
Ni 7.89699644282306 3.7364885911138357 12.420251974942953 0.35310553797899186 0.8699155282299019 -0.5950864546653106
Ni 8.65334949376847 7.61949460316606 9.600889800607337 0.7462045856317859 -0.5139995173853084 -1.9355596270468018
Ni 7.021967632060891 0.7211660459169354 0.23463165924483012 0.14327703765550162 -0.30606643431231806 0.039367446054028976
Ni 1.9056231294700494 6.5588305658752875 8.964838266853874 0.27193375429466715 0.6859785509611928 0.6758931417007327
Ni 0.2806220258171829 5.032991604964829 1.3035440377143497 -0.2200470927277049 -0.7138873615563189 -0.6516458391175939
Ni 6.438243748642567 1.912651473331593 6.829554944563739 0.03240412736231839 1.1194120365669753 1.527724558735414
Ni 3.6221059176248755 4.119877503045714 0.10331484333585957 -0.16582072728397249 -0.6750451918781406 0.8512284933433599
Ni 6.082977269301015 5.600358286045592 4.632962002083448 -0.3344858659952756 -0.4634418590424147 0.006263464411208568
Ni 5.352292164880881 2.8674193812033355 9.36542307267174 -0.4033927162693181 -0.23290723651982467 -0.20793616839678383
P 0.2428691318505954 5.694471070923554 12.27881017758705 -0.7106500855659439 -0.43601538740034584 0.30226248718519555
P 4.072997724917686 6.0009286004328155 12.52311939535773 -0.4543956896797465 1.252767958454023 0.42013856826908935
P 2.4073617440292336 8.398907143121122 1.1914319902641637 0.6025897050208913 0.4466638682531275 0.1690456619791734
P 6.363332109365729 7.998210028715777 5.747741569964861 -0.17380528815134583 -0.33553179076128664 -0.6795078556351847
P 4.912015330533597 0.6968476138702286 12.335639228565473 -0.4368324839850025 2.6308805384548433 -0.5618685731524453
P 4.098701900019568 6.196155342617829 8.090986884831398 1.120851340116663 0.7082916126360963 -0.18374183053876741
P 4.600141628821754 1.3501937643809299 3.515794971003708 0.8015948894766324 -0.7598813117879301 0.6218367261759614
P 0.3232992890589265 5.497351385610882 3.4627173891328273 -0.5530355482418475 1.2712055963339204 0.21949481976866067
Ni 0.5634123319442286 0.007086309584112959 4.488192609966294 0.711536344825639 -0.04830254376012971 0.6865614200478563
Ni 1.7443153921323042 6.596127885491056 4.620487597443624 1.1905629456801883 -0.09825316464664369 -0.050789828958357694
Ni 7.040181548949504 6.04288129214244 9.036023797026797 -1.4286213873836493 0.568416144462976 -1.3703213660911755
Ni 8.569190510312977 2.4572032082947928 9.918690497451905 0.9449416040278048 0.842441234069033 0.9324660972686134
Ni 2.5466968496555036 5.478956325839239 6.869561255995214 -0.572157356672963 0.9712679006271595 -1.0293028411837046
Ni 0.9905798558466696 0.3584881055162319 8.802982572294965 -0.864237246898202 -0.17737963576616547 -0.12582593205858975
Ni 1.3302499329593849 1.1349507336211593 11.169822653390506 1.2990529575634917 -0.49556085106414655 -0.8003116518888346
Ni 4.287470898424582 6.9921062277934825 1.5217804546161822 -0.5198222947146725 -0.12545903563747426 -0.9005697627806492
Ni 5.710964130423387 8.364435652480612 7.857865957231033 -0.8450683872792348 -0.2973395959622815 -0.8446426125957259
Ni 5.397215599872189 2.9960579995867156 4.954023270822546 -1.1981425577996592 0.8590186788117399 -1.3928100341119949
Ni 0.832336150375368 7.792585685044872 6.741918923468496 -0.21880087902542963 -0.2029708539717085 0.056511819043799455
Ni 5.645698349667868 4.566530566875635 7.5081053158191615 -1.018066091927621 0.2515577617414765 -0.13061204059332343
Ni 0.7529892276075532 7.649745464631982 11.593366413917941 1.7649306797409088 -0.2409018246895271 -0.7161920984300956
Ni 4.699634357325691 0.4893683670771014 10.052139365094131 -0.25510768387626387 -0.9108017249213023 -0.06148073301330057
Ni 8.125164018286984 7.103020015072428 4.549992221655044 0.38640440924143776 0.747498621852861 0.6672912589643346
Ni 7.233723662322344 6.1427000778358325 6.58552378111851 0.28816847098597465 0.8060418695043925 1.2666591146138186
Ni 2.6241082607181485 5.173105624988127 2.3641093521338714 -2.3767349613815325 -1.1444180716930097 -1.8863248012803902
Ni 2.3177503597945535 5.353007679268847 11.417194091598798 -0.07056726869560105 -0.2916510302179364 -1.0043993930738058
Ni 1.2505380072822654 3.5400391344683726 3.485677249556813 0.9168309618345177 -0.7869156901979029 0.3407773554309421
Ni 1.492073927513764 1.1623485946793668 2.2515924503401146 0.16352164683715065 -0.048187101228187985 1.5483034113280303
Ni 1.5400133915075136 3.9943998279711983 8.271958587836407 -3.901427418158842 -1.7422625487194316 -2.14684337175958
Ni 3.6898080701571403 3.2012294860500474 7.170368033268371 0.14325286928578554 0.3868456105439144 -0.8730443036668707
Ni 4.263523809288086 6.92060913186175 5.579469794489048 -0.5609121227764469 0.11349980639306906 1.3269028898962245
Ni 0.600723237276224 0.0016257573751895145 0.2274919125102235 -1.683756839174055 -0.1089803212561607 1.4141067387072421e-05
P 0.08003707715215722 6.087596412818265 7.8571105914088 -0.39511864918598405 -0.51488269132121 0.7026711811255254
P 8.616812974261425 2.079203297133041 7.774154396696623 0.5859981192107973 -1.542664210764382 0.12396136804602524
P 1.806556086741231 3.327812132711043 10.349498993303238 -1.0081879135819605 0.7676617270642973 1.1282383766093538
P 3.9397943058819638 6.090567156099949 3.4434039349442247 2.876622721955807 1.5440091548280506 3.3336471075076526
P 6.905954672624666 4.105802701034324 10.201057834947077 0.7558930165641434 0.3060749189527503 0.6049211813675452
P 6.344583820972178 8.008589515913366 9.911558902147034 0.1957105728648694 -1.0156443698600055 0.39378090421116696
P 2.600749885951498 8.4132083737363 5.6062200697404245 -0.6992351588607828 1.3975655465191092 -0.6666106879575423
P 7.219911517491347 4.207242715530828 1.2578969369053377 0.5698965856632443 -0.8196656309354142 0.7363606029581706
Ni 5.739276763040894 2.692634613368198 0.04969745567355089 -1.526218920724165 1.1505666077929089 0.2898998518547846
Ni 1.8504379501551205 1.366243023817341 6.765925789756392 0.04208484498519204 -0.5839882878696201 0.8800078794688972
Ni 7.3435053065823555 0.6351947279167326 8.9467701699861 -0.11502009969233738 0.48230501449550484 0.12758816616533508
Ni 2.7777536541037473 1.9966655424806623 9.115864334150867 -0.09459345640686935 -1.799592492789152 -0.7846808873301132
Ni 6.489063384476486 2.311419416032673 2.2559136138147826 -0.05468890690244775 -0.537026574408101 0.4838281360082506
Ni 4.336379476842539 6.570577681839749 10.418337817426513 0.3815933610060396 1.2466932130148531 -1.0052175180997267
Ni 7.857027265682607 7.432147576392827 0.06937953562911821 0.49111155704354126 -1.3061741419893054 0.8641310603376409
Ni 7.891861042089174 4.110439958839878 8.246029795559568 0.9541847198926277 -1.1232617493303687 -1.8320796667835801
Ni 3.256641093968763 8.180494111908336 12.158962423317092 -0.5463028575037043 0.3595008999823744 -0.24899514322062277
Ni 0.3261368923215832 5.070886696094595 10.013510645288097 -1.41489452471586 -0.03372027507058064 1.3771815835461187
Ni 8.977812625850861 2.3103325587344963 5.640659860376403 -0.28827774287032937 0.7177337318856026 -0.04212418286355971
Ni 3.6599828944663377 2.467519295483321 11.24996841627248 0.4092185789224759 -0.23814611632126081 1.4303232005661044
Ni 1.4819389832082648 3.2802440116275036 12.539146011933763 -1.76981988951241 0.4862825110860141 -0.7132486995310554
Ni 3.1392423914773624 8.322818075104593 7.749816038932783 0.8391039421656838 0.4624512129943713 0.27743925749392867
Ni 5.321045017558297 8.049799521802571 3.8147323537240005 2.2699400778124645 -0.03681973993151078 -1.050981611708719
Ni 3.225258089483907 8.595537742649615 3.2604043373637004 -1.7082975046278968 0.26048103237303527 0.24179862547218353
Ni 3.3024340147986138 4.5516134504581585 9.279828531868239 3.79287749957188 0.1902742323406465 1.5241805501378975
Ni 6.867987124341688 6.295937899734613 11.259540006211758 0.8755891815759114 -0.736317665535377 0.8695211210049605
Ni 8.042644377922908 9.088119584471658 2.3381805598570327 -0.5633592987653588 -0.6190815320283274 -0.24254553094053716
Ni 4.74738362129226 0.5585667598231902 1.2659577952001493 -1.1304348700400402 0.14426614104164834 0.7399580905014417
Ni 5.981383283353935 5.419949031692388 0.07633723376628025 0.2021712408885486 0.5751431787741642 1.0179262239156468
Ni 7.820282431860079 8.730797133407721 11.319032763285128 -0.8448644987985449 1.0230283210289026 0.9371010249374636
Ni 0.15101067015193478 4.951576936187233 5.948822850129387 0.33106475612886854 -1.001298899771611 -0.7801112656815598
Ni 7.521016274807087 6.395276656787977 2.416431568182519 -0.4306523233162196 -0.4536503268732897 -0.861408004979523
P 8.672967268000562 1.6653008665548483 3.5205535945408926 0.7442011820485118 0.0027155991589501616 -0.8145383370111778
P 1.889474241447972 3.173143282036328 1.369999021496957 1.4330850795819576 -0.021309045890421367 0.5489510937598289
P 4.455245436686479 1.3984502284199813 7.955430419745122 1.3868301623794759 -1.4853985442736934 -0.3162012087534748
P 8.638042920152479 1.5767853967624967 12.163960155459876 -0.37918578000581155 0.7429904495698624 1.266947592388515
P 6.166692452693086 8.053177836571072 1.5594282857106128 2.419419901844569 -0.6276461337688869 0.168841002167535
P 1.919688874337288 3.3921993704838687 5.885764295403583 -0.8632825962944164 0.5283624709751997 0.20433353864719003
P 7.021080031934047 3.88187386903329 5.921329889057589 1.1654399253603154 1.2493260226520098 -0.3120895005779463
P 2.5269160468286853 8.422020974995682 10.026144455664987 -0.5072457436012425 0.40923297710017914 0.7103335827667896
