# total energy = -381167.49506118125 ev
CRYSTAL
PRIMVEC
9.21344009645929 0.00000000000000 0.00000000000000

0.00000000000000 9.21344009645929 0.00000000000000

0.00000000000000 0.00000000000000 13.48480088996572

PRIMCOORD
 96 1
Ni 1.7606330680122133 4.2062853862714675 9.420144258618135 -0.5680577326822926 -1.4927220745183 -1.746851967862327
Ni 5.334231542185976 2.057010999981908 4.567342587086613 0.4272006173221933 0.13981067637345598 -1.5191162482411127
Ni 0.14249045345925504 7.921862967994752 2.833601707206492 -0.6599705569332053 1.1683928373410524 1.35434684503979
Ni 6.221393661974646 8.900450051067905 4.418268209535541 -2.0882972958945714 -0.10609965727425599 0.33996128728755
Ni 6.082805100277053 8.729946133851069 13.586475563131751 1.3597574745324001 0.5564304328560095 -1.5798462191313178
Ni 1.4754771057372178 8.193705509737038 0.8961673358638741 1.2716758511021198 -0.22681603602042225 1.1497919344104135
Ni 2.3708760407205185 7.010884106284244 3.4865489734574338 -0.49666873941634465 1.501085101771015 0.6893243275049741
Ni 6.358637061459245 2.9360652927333564 12.82032368321759 -0.13492789435985797 -0.23267917966941862 -0.07736166590961516
Ni 6.646925593271349 8.48664682865573 7.994234537741765 0.5644777286405182 -0.4444684032637055 -0.031861881705603196
Ni 8.330525090990145 4.869487211036531 9.710243231353891 -1.356950086990592 -0.4449602552984595 -1.4546229536537334
Ni 2.1290600993353963 1.16088420325322 12.765911871702002 0.7933588747200853 0.010832314728813602 0.5615458997057039
Ni 3.2314481732030282 2.3853964218689967 8.38764012574746 -0.9357493960055755 -0.2633724949882174 0.5000535967281775
Ni 8.608853894362207 8.743434609740264 13.616007401770847 0.07618178666890105 1.2199588823438023 -0.10641847406625544
Ni 2.0815556036491323 4.44635998753155 11.606974468281695 -0.24772836069305726 -1.0554576452022018 1.8488921103552287
Ni 6.663279448943016 4.903420309875265 11.476590474739384 0.705211945269508 0.9324025910205297 -0.037651748914502896
Ni 3.1308189835433353 6.173124450783734 13.167098209631485 0.07591696304328861 -1.5752403449281902 2.103506913755474
Ni 5.41221409678034 5.69525096789788 6.455309078718384 -0.6215767876463553 -1.7281909011177137 -1.3072318938298584
Ni 6.9724732756954095 3.871699319388868 4.557430768533609 -0.543876764560715 -0.9263435293106432 0.2790950479297967
Ni 7.897797463197908 4.590080435206111 2.469175151450992 -0.3794709153463981 -0.40167753335042433 1.2500572443910793
Ni 2.211216342165966 2.200436617582388 1.6907786100226634 -0.864923217221633 -0.018030118028833465 -0.8772192609801667
Ni 7.49460812345264 7.590989917357606 11.887606631607515 -0.23748251459533293 -0.7874563931927212 -0.7501406874613984
Ni 5.313464448842912 4.33766903803371 0.9776463908680395 -0.8003077952340927 0.6027923079500005 0.19009939732567904
Ni 2.2518660386298524 4.718875110380332 3.933044244365261 1.1647477843892973 0.5147952738137264 1.0371804441595684
Ni 3.3676412405487146 3.175679222002688 13.343857131138739 0.8117042099964924 -0.9955493988823434 -1.0410784936623942
P 2.7984441422163413 4.545671655297695 1.2641908185231592 -0.606382082183788 1.0092878315143585 1.0329147269046792
Ni 6.023470547868298 5.89609474242559 8.754251188083103 -0.27805220848757917 0.2226433926999714 1.0422444889460372
P 6.6720506436469185 3.568328386599569 6.628156895024163 -0.37080141259685817 -0.2986295184182986 0.9720721416960099
Ni 4.023214337146938 1.1300744605117796 1.5204921299854623 1.8854693952586303 1.0660593319774478 -1.0297784952685425
P 8.242002361247394 0.29934834496605867 4.077007926850938 1.8785454144452873 0.8462408103207814 0.3128544037684289
P 3.578767213909992 5.303163823129715 9.237857273221865 1.6306645873347656 0.43971906150417817 1.0173104447085188
P 0.5743787368843427 7.692300901563611 7.219141935831105 -0.7372275789441561 -1.1343755998553429 0.893005834390462
Ni 0.28546184847685435 6.17718757774216 12.97746166329477 0.8645797178392852 -0.024160656406603552 -0.7059092284468488
Ni 4.177686869085632 7.703181973985155 9.029908093908809 -0.2885947598901159 -0.594475303443873 -0.14004053299607494
Ni 4.908045456662407 8.389021220375733 1.870409360720262 -1.065719946360158 -1.4478822924957904 2.4922723670299205
Ni 0.45334269937835275 2.125826181960323 4.9395498927659 -0.8858679377941001 1.204884761619499 -1.078760324483884
Ni 4.926702672287831 4.88422871474057 3.625064748980488 0.24507215401713278 -2.0659572376364745 0.890688242000879
Ni 3.1198918439227166 0.09006045284787896 10.929228307424635 -0.3697158928421633 0.946577339859015 -2.4342690510422593
Ni 9.198265279648744 4.208358410229847 5.22499607839507 -0.28810419340694254 2.316734155347868 0.4459637568623094
Ni 7.552035493819684 0.9166663181083211 12.004749069447675 -2.261727460094685 -0.8013308371819683 -1.0137432961825508
Ni 4.777785844557596 1.1443276519056218 12.551234117292033 -0.266584831277928 3.070594971973331 0.6988212112518158
Ni 7.851997453877424 8.024694169770235 5.692662912653839 1.7982930572514386 0.8495621613845304 1.5621434025349161
Ni 3.9611249662334913 6.217441096294 2.039684205065774 -1.594820066832331 -0.14280806843888308 -0.7726455534321338
Ni 8.76132710986104 3.9630782154742765 11.721716805050043 0.7413176898531297 0.5661018945075025 0.5449602274328808
Ni 5.294318920907291 0.8285766200368758 6.582390054087012 -0.0805932854730354 0.3882679448127378 0.15267750503379512
Ni 2.8125775588925888 0.11509797554520693 7.898802649481728 0.9132830965822594 0.31880702180743803 -1.2013140135491052
Ni 2.059249865856959 3.6705330744676314 6.511662162002998 -0.6566060113363466 0.210761810771037 -0.1988807430627349
Ni 3.7790950358080604 0.20577480751671098 4.701367732043823 -0.13199066610840496 -0.8284027536980958 -0.10582403501536612
Ni 3.9821961030904514 2.5792195552576582 10.76751861851124 -1.435630728821947 -2.776656431272799 -1.2892814799990246
Ni 2.2804737692555026 6.0623512638877 7.675602463242862 0.9436249420989103 0.10087054766483272 0.9462608370598607
Ni 0.05539120016792482 2.6588513155789117 7.332819198956835 -0.13090514635371003 0.29887788698367884 -0.4544149729534561
Ni 0.6434030639465587 0.08511099297924801 10.831261801871484 -1.9253888571613869 -0.06525871199849406 1.1148840667896347
Ni 6.450587190813184 2.7672474350026697 10.365712216082205 0.05512265200575668 -0.37349901403367936 -0.025825959924168425
Ni 7.55010067145853 4.827962237790217 0.3025868690610396 0.16158226372259268 -0.22025638052503357 -1.7983416511011865
Ni 8.400823636778778 7.2502953398776455 9.292254343233749 -0.1093158502187085 0.6104891623736262 0.011166043919148511
Ni 7.110444536925395 9.13442535517044 2.3135067150243085 0.34448282930698737 -1.1680069147565433 -1.8034787152174359
Ni 0.12884074237329685 1.0737803432419823 1.9471914041067282 0.35887637902449804 -0.038143858059573016 -0.5362634709898313
P 2.7704905658175583 8.949603752481059 2.640067875828022 1.7184631323069886 -0.4781282574099959 -1.6522081178334966
Ni 2.809979368864752 2.4323665380459896 3.9768836336931086 0.7936746061882911 0.09495135396692034 1.2767936319446591
P 1.6433644060465866 7.88122248497068 12.30515051058459 -0.6125792121334354 -0.29071232045375095 -1.109215812760264
Ni 1.7171732724047444 8.086157026776261 9.303527908191413 -0.6117076081617594 -2.239744528065691 -0.4526943907179236
P 5.465679688026925 2.8094634162351104 2.499245976319268 -1.1137954617111463 0.2529785533484031 0.4492390851794715
P 3.1235495795292816 1.5883048897120025 6.285414169873323 -1.2830941202413901 -0.8630614814225459 -0.6005626472885335
P 1.6089614217772867 1.9937791625313979 10.606335017011281 0.7646062280674252 1.3369109089515299 0.0619890401082868
Ni 0.8443518716881601 3.44241751808745 2.8077644579332195 -2.2936034828676757 -0.9258977000224764 2.510647784213315
Ni 7.473352717799378 6.244353553993686 7.167306202087798 1.5600965473082165 0.07551998471518608 -0.42031134640152773
Ni 6.1895059467748474 6.441705434831502 2.2865905719486967 0.726324301768091 0.06150927225839084 1.434930874541445
Ni 7.346327023069642 6.136731363514389 4.658931549599805 -0.4060571504753587 -0.6023842738783044 -0.8605001484532728
Ni 0.9544478707577905 0.49621928424553036 6.3094842813900724 1.3477856468825047 -0.6423739268973646 -0.5235033431106855
Ni 1.45530888598213 0.516348807553395 3.9230651677016084 -0.8241668612398774 -1.2869633733888095 0.18051252496819234
Ni 0.6998878994205269 5.7582156155937545 2.3788401380966255 0.7314433681622113 -0.791642663359927 -1.6016440317326996
Ni 5.0345551987625035 0.7079192549072834 8.93698410396642 -0.7750793596846071 0.9612822501693573 1.136986555115629
Ni 0.09533606848596177 1.9771212633458342 12.627328838068298 0.6323746495928078 0.7119451502282836 0.991109360833119
Ni 3.1338041380434034 6.795372535571016 11.094524788458019 -1.5776525539141086 0.07494328627610965 -2.25675417524981
Ni 4.315464648079503 3.2613826391620417 6.253778902924456 1.8164581581962393 1.92898557337371 -0.5722843691691305
Ni 5.038185294049622 3.7635427494002998 8.459231317142143 1.078826401835129 0.1702373682944294 0.7666777658844731
Ni 9.100916074563198 0.2708345914265221 8.198314072332511 -1.3454323161589796 -0.01911538067321224 2.072978149038998
Ni 7.7267499530319865 1.2552298269590667 6.046543765197063 -0.27998542095455003 0.0665018403769758 -1.4566361274290203
Ni 7.023911910182689 1.7725552591328544 8.082155629864596 -0.8335354469389711 1.008331124028044 0.8676881815612798
Ni 4.604766658271259 7.056407712410278 4.445439564894029 0.07326307036020932 0.018162529841639685 -0.20905125583783354
Ni 5.375305056881354 8.898183544873408 11.07059011450655 1.817278854325322 -0.6823980326987861 -0.9372545197961922
Ni 0.7874957345896465 3.8895365388707543 0.7026159989497556 -0.4692931756168692 0.5549067971226315 -2.660280074662883
Ni 8.791952583806182 2.3539048845812443 9.520080597603739 0.8533082586905241 0.01761154243417612 2.2771155125149813
Ni 4.645665117610151 7.842111432955903 6.717466452527117 -0.4057874417537399 0.11940074525853629 -0.15855119020575276
Ni 0.27700759610258824 5.128596778954454 7.54184635072825 -0.9854156528824511 -0.1950562271103221 0.15360850148849675
Ni 2.2477476310325364 7.507359524156633 5.889405785119883 0.43254131280881636 0.6981226425228945 -1.1299018803547058
Ni 8.170340226366136 6.8245330725855675 1.2710419323696112 -0.5280153720484262 0.29192562403556177 -0.3922120170621503
Ni 7.45807683458607 2.1616572494009514 2.8924894077842183 0.42640023290808504 0.9262095748359404 0.85666766208106
Ni 5.259621106563912 6.625366144104192 10.764767485382473 1.9799466378026096 -0.4874557054585088 0.9492973098933393
P 3.3073853441584573 5.448533476531165 5.766949956538398 0.6358114431884985 0.07280824221097783 -0.5062383853826508
Ni 4.440850350522165 4.427582997188531 11.550284173099854 0.48683041316968423 2.680764824879796 0.7568103861720902
P 0.3118187357556938 6.211701123289241 4.426695742934344 0.3030636429302523 0.40022948804998815 0.042093843846256536
Ni 0.8570737893847453 6.02011685577563 10.524886366358507 -0.4624470992293132 1.7025536601655837 0.5997378373943929
P 7.35714360141248 0.2027905743606247 9.982851409944805 0.13995131571637834 -0.06696052518094919 -0.9370825129947022
P 7.761254285139252 2.0962602535939108 0.7437153112766149 0.3728117581586676 -0.23274962789603787 -0.5979684041987959
P 5.902848193810002 6.640900003632322 0.1811417548272626 -0.012783782028229596 -1.2435873203960195 -0.8552458420328689
Ni 3.6628767059813465 8.494146568665158 12.955265565436395 0.478040582792196 -1.612633440864668 2.1892948560555716
