# total energy = -381166.72197107144 ev
CRYSTAL
PRIMVEC
9.30945250170030 0.00000000000000 0.00000000000000
0.00000000000000 9.30945250170030 0.00000000000000
0.00000000000000 0.00000000000000 13.62532475011441
PRIMCOORD
 96 1
Ni 2.0306709107660437 9.093734032099084 8.070743413786053 -0.11219959952440675 0.36975085984515677 0.3487187217652059
Ni 3.9617958441386922 4.219202210446312 3.6160520814515786 0.5270720342985502 -0.8641755404223311 -1.4309556919437807
Ni 1.9184268399316506 0.4855196088458525 4.88000577982235 -2.0972336791522523 1.0445471689372852 0.4880280330222112
Ni 7.930117614598601 0.8823536477823772 7.591063624599685 0.5179093939626758 1.4193728722021879 0.4253129133811772
Ni 7.859887103661 5.9863225161429625 10.181755832033883 1.3881506809631126 -0.7850267007053061 1.6330798816444776
Ni 9.195588753754478 7.892321236761027 8.863191953359417 0.3511640979819049 -0.2568562911362544 -0.34365879074379524
Ni 3.0248925274949725 3.4126312311735387 1.2510349709015107 -1.8691588310240648 0.3021843256490925 -0.23052330966868043
Ni 5.147242928148808 3.246178217445501 1.584802122729501 0.23082001497349278 1.5768331433366072 0.1389539848001155
Ni 3.9790276410296657 1.7484176152839201 2.7662675538329347 -1.645510908318979 0.5083222644948729 2.561254293516273
Ni 4.702530374133799 1.5851577438214706 7.1958885301288396 -0.1416893814534076 -0.9141842682402902 -0.21155216788281633
Ni 5.382995507547512 8.605592881381542 6.944896376710404 1.135039201581271 -0.1295892557557639 0.19455074822881332
Ni 7.003342982459139 2.581641557549052 0.8969946239954693 3.077660620570861 -0.7102374235085575 0.7626442192450478
Ni 2.7480573334664125 5.936367993119213 5.697061995636617 0.9213522467436391 1.02137150215177 -0.8698023996908052
Ni 6.253969280386872 0.20516357981774277 9.265534395440397 -1.3806705705359834 -0.26521186218980136 -0.113551742676927
Ni 0.7642148315177495 8.069200837478741 11.066583932335774 1.3089043964362748 -1.2005470534760936 -1.6657532035077829
Ni 7.25653216670754 6.393862425649245 12.52413980125422 0.0725596165352815 -1.082598981503684 -0.31348560959452465
Ni 5.636715330598068 3.6412620792801875 7.151865059400734 0.41609910809239303 -0.343618424424163 -0.40966029444558477
Ni 2.4169666492808606 1.2939115170607514 10.30537791592076 -1.0905884274670639 -1.0269947618758184 -0.11200882366983936
Ni 6.558174265263331 1.5962918492140172 3.2258910581884463 -0.7047645733194444 -0.25442762709010375 -0.7341024030516132
Ni 8.360577396576831 7.176405707582417 1.0079186144413481 -0.03813434497787625 -0.33685333778618765 0.2876141411444014
Ni 6.492524005039051 3.92426013097586 10.907767462632409 0.9206094550403435 -0.039047600820765006 -1.6851118105400529
Ni 7.262611239300628 2.0772181741128106 5.3328976189526545 -0.6835473158118809 -0.5809785545090188 0.7971764486939626
Ni 1.036942695028591 5.330890500957142 9.772532773484983 -0.8209480971922636 1.4567747098894137 -0.8220953234228294
Ni 0.3809353556678032 2.3496779253867746 5.627395637530778 -0.9130889782935823 -0.8243609795285545 1.1706932033394546
P 2.672548362865287 0.46670799783689015 1.1725637324609977 2.60493270824083 1.4414753605281818 -1.1658713564707792
Ni 0.49138177119174425 4.781288343716528 5.241512307769214 -0.7325831381936093 1.1414918991851501 -1.3667447044835108
P 4.194802134999938 3.9265781846905288 11.3017165021867 0.8248736574989147 0.517463821784825 0.8547884427804763
Ni 0.28740607753461095 4.554538005049089 0.5162994522065354 -0.6159321877660683 1.3181716806708135 1.795174823337431
P 8.564324077698299 2.024200841160843 2.30386517785562 0.5959117787800834 0.7711414580827816 0.8386036054904976
P 4.76786411296732 0.9142450397917811 4.998001230515871 0.692601455594349 -0.13550022192356018 0.2848772018292126
P 0.5965245915299547 2.0816960208467696 12.010710453305645 0.5388543716454591 0.5057943558666966 -1.3260778228917678
Ni 5.290766759952229 7.678250372629247 10.966792185391908 0.2657638780385294 -0.737439437844646 -0.6624501288219494
Ni 7.850577650991647 0.13121487348400143 1.6349298015729012 -0.9247175636714461 0.3343074314358823 -1.5818596500169209
Ni 7.681126993504077 8.215163745881531 11.004711448004718 0.0316623641002874 1.2281195637777238 -0.20233887681466442
Ni 7.374408456406893 5.107966347336807 0.9848674786867624 -0.48738217190809613 -0.6433272919495695 1.135796905682902
Ni 2.343831589110421 7.3233833463261675 12.917857035437043 0.8757146514101821 -0.4762552087569991 0.8149101185282999
Ni 0.7702473568474905 2.359015306414136 0.5850879289256541 0.07164121848607018 -1.8430996720431678 -0.6432457879793567
Ni 7.891790597958874 6.6917183638052045 4.733043036202871 -0.10340925492628641 -1.3075100871919094 -0.35758902767164225
Ni 2.2630162304877643 5.785862071813777 1.3095793259032729 -0.10816348178182016 -0.14673954228280534 0.3642484419696888
Ni 7.085275475402117 8.933965205387642 4.797217748179059 -1.7608007167329351 1.2997037037736132 -0.2372179480800366
Ni 1.9047884917710483 0.23576840546824185 12.509424349419772 0.4375914736382141 2.0594024672370916 0.8734482239735085
Ni 0.018429923449518805 0.7366141662436507 9.923419451404595 0.8092830021495095 0.37268217455933883 -0.7031193244065376
Ni 1.8938033376212111 7.964236758631782 3.441307138230948 0.8170785869345284 -0.8334665413742484 1.115900166758975
Ni 1.1447927042030495 8.503356472166702 1.441777277589158 -1.4325353777260748 -1.2757747037618417 -1.082397149905523
Ni 6.889413900691592 7.279023804356699 8.671361371654722 -1.8629298193952173 -0.102672633870578 -0.6186279894306765
Ni 0.8737517135158948 3.594845148270792 2.567310586109849 -0.2841603782678461 1.280226311775292 0.3322832019170019
Ni 3.824146276969634 7.610244820879621 8.553066156585249 -0.46999714366242934 -0.1544058005788115 0.39757199582248304
Ni 3.727272112492343 2.2228831800301823 12.735890749780795 -0.20727462355338497 -0.015030411970561208 0.014030509951137126
Ni 0.5072981424205376 6.138047975748084 12.598629386788051 -0.8984540019892268 -0.3978784713193083 -1.2021339383472394
Ni 8.960590240021991 8.58415321188402 3.377214349438251 0.2068676179229534 -0.342860463212216 1.1257464634254353
Ni 7.870639521494104 8.053477171920203 6.670236801770672 0.22450975648474883 -1.4335399077311892 1.4051888673923218
Ni 3.6816744133178507 6.438501251198794 3.28982093155943 -0.07394004182257588 0.029245527128678665 0.7161190791003151
Ni 3.757015813770927 7.744273010960301 1.4436307896156264 -0.5631135013031399 1.532157140585471 -1.9461841966401838
Ni 2.427998350694044 2.1603981337134828 7.0521412714613545 -0.8284084101250507 -1.3475141383886728 0.0863507567821029
Ni 4.587428301329915 5.748866306905768 7.586649082143878 0.6987044831682934 -0.049371608454592396 -1.6370908025760837
Ni 1.4588750183616923 1.3895289054276794 2.768053106854916 -0.510471706737708 -1.2617300527433173 -0.5153241497340028
P 1.5756714115513992 6.323557439090289 7.8206095919037315 1.1426355258712901 -0.04172283366008298 2.3484278869067237
Ni 8.733672331206504 5.801865020952396 7.644392824216076 0.836156943722218 0.6278649346479123 -0.2725801296294144
P 6.298151942755623 2.412181590608813 8.824632200402956 1.6318110422343834 -0.10529515909508963 -0.5091445032858521
Ni 6.166814184496386 2.372290585920634 12.534617590233577 -1.5263063382316489 -3.2365051736473167 -0.3165681051745903
P 4.5142653128014665 6.460127109749702 12.889121547882553 -0.16568805836085013 1.2073473642273786 -0.1121324937318972
P 7.463481299547266 0.3261371244201886 12.955967141829577 -1.474782459320744 0.5900254952026355 -0.6772897649379432
P 1.9060638867867497 5.096171270804735 3.7169609627157674 0.9778450396240449 1.150429310884096 -0.5202084744094976
Ni 5.073204851069441 6.976159380664626 5.084249585716362 1.0984840281650567 -0.5008100152782279 0.7426932300444177
Ni 4.980678200988738 5.804089980140371 1.3381863430109289 0.6088531694320998 -0.9851986517756388 0.3939624240943538
Ni 8.213339093158337 3.492832165920018 12.654029939623372 0.6210849356116014 0.19537581523327 -0.9830538375184941
Ni 2.916027787979554 6.12530333504374 10.940768541399997 0.39135661104039055 -0.24910261533276457 0.4168992353961853
Ni 4.654223624232524 2.1621296919099824 10.061947830905641 -0.47071628121664094 -0.7542721931312687 0.7366357109964282
Ni 7.3828242016199885 1.5814618911117373 10.768080987219294 -0.0882322900755319 0.04769164964900819 0.509366132378355
Ni 2.3540440586887015 3.5788701274901817 10.42351021556852 -0.5336782267611583 -0.22329593868230574 -0.08969781887746488
Ni 4.290773282568301 8.751844382817083 12.736395322115476 -0.5075092816752743 1.073715820081441 0.47856045985140816
Ni 3.355294312182992 8.542716838052728 5.811255465859972 0.9842074915069631 -1.0057546215501194 0.8177565868381594
Ni 2.2546842703486933 2.8647140848660793 4.396497012753079 0.18053077980063745 0.11213840726916816 0.46751011557451744
Ni 5.193864667116929 0.767331636271449 1.2250615979540147 0.4410210681450534 -1.0953431685432298 -1.5200660137488917
Ni 6.3166405157569585 8.024040682579708 0.23957317877420659 -1.157417312166155 0.1301677539670532 0.3179050788184589
Ni 3.454179318436863 3.8468706509355255 8.435247585492448 1.127757066097561 -0.15709106072045848 0.16276831361089386
Ni 7.91199211025137 4.0169636606572805 6.271805260756086 0.050703439892138484 0.20529873077393673 0.4675864773384076
Ni 1.8509798553421857 3.9675583953410225 12.653894021614398 0.48663629488100696 0.012971986779635724 -0.47420423976524134
Ni 6.219561543320942 7.84289735253943 2.9643531567861676 1.02226341783842 -1.4306337898279877 -1.3426521823106812
Ni 8.00300131954697 3.996250128467969 3.6160930430433242 0.08131088036535028 -0.9087381575240543 0.048658384437651685
Ni 1.0600301376485872 7.522531157828974 6.30814377830564 -1.1261280151345703 1.9670116749084963 -1.8442132168223204
Ni 0.18523948921479275 6.2187423114860385 2.677090444822665 0.42020130318622473 -1.0324871524489574 1.0448518446618973
Ni 3.7917959289436314 3.785707546897874 5.911878546927212 -0.25550903307974066 -0.26308196033099207 0.2275961087195564
Ni 4.233175698903012 8.781764963696384 3.384612571474586 -0.6539744872507705 1.037611103939084 1.5789982693087257
Ni 5.048432397516291 5.460487391567209 9.903458122990967 -0.16984296106948815 0.36424947041095335 -0.3419443791558498
Ni 7.011256017228089 4.605786541993879 8.611287473579385 0.29297129169125674 -0.6258705299257028 0.8847870460250955
Ni 9.076111238195997 3.2775603823938915 10.080873948182434 -0.03338911698340701 0.2250458314938769 0.3046942365551398
Ni 9.218853075975193 8.451074585975615 13.031083253528054 -0.5470847299750513 0.5770712490348127 0.36198767095997014
P 3.851041285731396 9.081380388406851 10.056824839101695 0.9410702939978567 0.6651253616612675 0.3923400579995824
Ni 5.865104132935314 4.486532453299463 4.936346587377278 0.2961851706428641 -0.5065235207232374 0.7174794497829514
P 9.01619560081604 0.1868453698002562 5.6191791146048065 0.9871981987041708 0.8693617126089609 -0.6047049515916811
Ni 1.7418544511520258 4.354496486090024 6.9841506148359995 -1.4029934024028998 -0.8448614134747515 1.743519046834352
P 0.4825405839916594 2.568692108885981 8.160071335929565 0.17751256179960395 -0.6763600540348224 -0.7207902593237393
P 6.6245134249851425 5.817383878552207 6.681001321892245 -0.04670331759380989 0.7779587381149312 0.023870635970010504
P 6.60555006989767 5.559614443590483 3.354364297861323 -0.5079882781942219 1.7498966682259218 -2.695805264152686
Ni 5.708258474362049 4.464199076345684 12.971077314457204 -1.3313758380659135 1.6448743031762445 1.0636705200302974
