# total energy = -340894.57705260406 ev
CRYSTAL
PRIMVEC
9.06773708281797 0.00000000000000 0.00000000000000

0.00000000000000 9.06773708281797 0.00000000000000

0.00000000000000 0.00000000000000 13.27154980161969

PRIMCOORD
 96 1
Ni 6.244596982234312 2.2649484707562486 11.383685366037806 1.0985413637655532 -1.3473866116718731 1.3418093746944117
Ni 4.564517562221628 0.4681591117479769 6.069624111273724 0.14603917378167108 -1.1047384937152005 0.5916128942944133
Ni 2.7729503130788324 1.491715314724374 4.864805654800371 -0.7289645676044155 0.12678495353774938 0.2370433701753853
Ni 3.3303713232549423 4.41713962917147 4.638008852075292 -0.356276993728438 0.20489403913635035 0.8976834423717895
Ni 5.011557007208568 4.404934454872233 2.5495974369502252 0.3429334825419965 0.9911489558218026 -0.5089107900084913
Ni 7.260872698996105 6.047409968630134 2.714496051858471 0.4474120592730617 0.24408382196193446 -0.9121060455550226
Ni 5.136555764797716 4.873419098386437 11.397235285766893 0.4647490078896125 -0.5107542709751333 -0.25531542901169574
Ni 5.795308738416606 7.682214176699213 12.41841483481771 -0.3207466620323121 0.6655475368003506 -0.1613243820755157
Ni 1.6148642539204725 6.694937083569636 0.4406285547718136 0.5664939877395986 0.07862999109907748 -1.0398891013399834
Ni 2.9349363707917475 1.6835070246821588 0.26279934658666365 -0.7125848406948114 -0.41870337848445954 1.5549756811418833
Ni 0.7417798959339796 -0.14111666049917373 4.648346979280761 -0.397397932138464 0.46989352820502944 0.6507845195585631
Ni 8.480800726000528 2.278976260236873 1.4312035839286064 0.8468735588087737 0.8572281625702204 0.24770316388207658
Ni 6.702481440937366 0.8631660670143484 4.801447561290984 0.5085459504699049 -0.47734021429106177 -0.07380660156850515
Ni 0.7759462230083467 7.759770533148974 2.530605968114918 0.17663118763591518 -0.8638071013393188 0.7120189408890124
Ni 7.699134574353281 3.817734995662916 3.757136214589828 -0.10351646992811205 -0.07500087898692244 -0.23924886246713636
Ni 7.79083660086754 3.955863836747826 12.522012825791975 -0.012106553455546893 -1.193303998760435 -0.23580744088575514
Ni 7.870986330162461 -0.19804300799782515 6.902532952729606 1.2564616052555264 0.5384208836524662 0.1376920873685564
Ni 6.987054238138688 0.7680591051736684 0.46051228894965063 -1.597070039208772 -0.41748364714474556 -0.21314316651902004
Ni 1.946407929925696 6.554423427595648 9.213972618990773 -0.8543019900623611 0.07948411156925667 0.07284012389017777
Ni -0.07020060801622512 4.730176053508979 1.1736326946234736 1.678954275579089 0.9574464213630349 0.8862368910977446
Ni 6.396490648420444 1.9963530265380298 7.017106532835965 -0.20038638107398393 -0.14117027572514396 0.6630574233886452
Ni 3.451969679386278 4.380941222185915 0.3461128093979317 -0.9587425144666392 0.8285379937243794 0.933528991315489
Ni 5.962807980359785 5.39615601369287 4.5782733195856276 -0.9207269544548143 0.7692753514083203 0.9145668483906894
Ni 5.228529823428599 2.7748998765813107 9.443610343787139 -0.45943505187586675 1.1008615272582976 -1.3917520251611255
P 0.3426933656919566 5.464154975111878 12.227159028129677 0.37966503363507514 0.9329237536313223 1.1447955096370865
P 3.96268277513789 6.346754109764188 12.571024852244287 -0.32267704628580557 -0.9640312736694043 0.41843161288031167
P 2.4815495097502254 8.713995724108624 1.5340716220565953 0.8552288727520045 -0.29942218952292304 -0.9215049702714194
P 6.259812645290866 7.851055443751076 5.843158280957206 -0.05334576261099199 -0.18282086138639483 -0.7839383527371337
P 4.807922832440379 1.2725390383596815 12.667721388419778 0.8756755706421308 -1.0632416600229946 -0.6717973743648044
P 4.034073070277488 6.197907203284257 8.243039215428022 0.6963051296981815 -0.6350223716282999 -0.6622110162279499
P 4.738518371752142 1.0592839944001913 3.853752954677776 -0.3299404127164382 0.09327885136050386 -0.8834968664587624
P 0.2878743603234261 5.826764718835666 3.4210604835216336 -1.8380937341881443 -0.9335516170233084 0.34890281275155394
Ni 1.3711597483734335 1.2086477619017102 2.659658004241777 0.30732036132407714 0.6869036338786234 0.1622733762523463
Ni 1.6148007797599266 6.36861642420361 4.970288828342847 1.4130559288452245 0.7634016662363626 -0.17724182463672056
Ni 6.086981573861838 5.540849896525662 9.225173994779666 -0.6429663090657249 0.8106593136717458 -0.28446942486783267
Ni 8.846475364904958 2.2476109571900205 10.46788199123026 -0.3246243998201635 0.15758959762343183 -0.5738224030802118
Ni 2.468074852240071 5.044137387043012 7.064313172807608 -0.7706151532656664 0.5317175034903617 -0.7470584489916489
Ni 0.7701999979315064 0.05326570198260218 9.201391133596871 -1.2144731766388825 -1.1191814086134082 0.9640927230349591
Ni 1.6788915464367562 0.944649660454453 11.584271874326076 -0.5905708261831442 0.5394827492580774 -0.26049440210947394
Ni 3.9991260110284075 6.798644794164273 1.50042850341987 0.34755529758472403 1.1476643465444494 -0.05285211080402511
Ni 5.9979635975649455 7.810468251950637 7.921694930248788 -1.6990659587272994 -0.141548227889853 1.6880950615380927
Ni 5.176471944043811 2.9293415769264946 4.912345080728018 -0.1424753676898127 -0.1302582567983305 -0.00421969450830241
Ni 0.913574524998667 7.51316435169127 7.072316357678713 -0.9750821321669271 -0.45829528184446877 0.5330714464150949
Ni 5.060767617106015 4.431502924929266 6.95546042811387 -0.19983513655620425 0.5508305701707288 0.5757515017821246
Ni 8.290242228304777 7.063232298530885 9.045942007646454 0.2514263783699347 0.6465691959256348 -0.10542114314999264
Ni 4.82649355826864 0.24085814283342027 10.466037613479541 -0.31508689264337353 -0.194008245461782 0.2961419761097545
Ni 8.087496691784228 7.227639442081761 4.918569175556397 0.4285633019976748 -0.31403376878851075 -0.6438060313582009
Ni 7.053294058536855 5.93337410534097 6.812724269747057 0.48635707307769144 0.3308205013285464 0.32173653674940716
Ni 2.1499242241100145 5.441603512643673 2.484235373515035 0.3461710156426877 -0.8739503604209078 -0.1454287938911818
Ni 2.432520254597195 5.1563778383624514 11.495391727634939 -1.0845044260565129 0.6763333145619449 -0.10143927568410917
Ni 0.9755071702169388 3.4366180002714124 3.8264137269569725 0.807980481288002 0.05296446801217329 -0.3239721109481453
Ni 3.408118102186342 2.780920854095942 2.880218017306368 0.2110104364467334 -0.6581599860870277 -0.5654496056354842
Ni 1.1945746337349814 3.1840543154596217 8.10196245297262 -1.0166391296731074 0.41503955647962715 0.7011604009079537
Ni 3.484758617176801 2.696445814146686 7.175024803631615 0.27591022244391195 -0.48262280284623976 -0.17869012704747292
Ni 4.128921601607375 6.844962795888276 6.148575992481773 0.31658481734513866 0.12841966092769497 -1.0466588159636492
Ni 0.6873226932805603 7.553171208309575 11.399624634524583 0.0699067522934667 -0.25233706310966214 -0.10863939297697418
P 0.27051961805647873 5.5805484500784575 7.939067807990177 0.29574628333323255 -0.9933721887253666 -0.49847468227683184
P 8.531081328890034 1.5684737102987039 8.218088429691184 0.13390176708818877 0.5554626696261015 -0.9042430978671782
P 1.8778558365362177 3.1694824617457473 10.393242725844438 0.24631322551308546 -0.9599347350025272 0.06274031645201453
P 3.9503234493058983 6.217021993345767 3.64477878946024 0.3018917341093382 -0.3824551947857026 0.7344235338364578
P 7.102803903762589 3.8639532522774886 10.306712029867219 -0.0976237585927609 1.1200283299947356 0.17445037793451246
P 6.623510517481154 7.720625111566649 10.24304835361349 -1.497512553928408 -0.17737192245668162 -0.5792340610140863
P 2.452197244366397 8.377346912048074 5.948228872456135 0.5337229639561646 0.887601118435123 -0.7282927383483715
P 6.992150306456795 4.0985356141803715 1.4178395528125465 -0.6022001828919564 -0.7647684646769022 1.1661045555275078
Ni 5.383987110342516 3.1952439031901267 0.26183000547775687 0.5177024201581922 -0.6863778432821405 0.46403526965203956
Ni 1.4078478131689136 0.9391818149102921 7.175900747047147 0.2452539310106357 0.3813776454508077 -1.691218437658423
Ni 6.8654558820073515 0.6969145457127548 9.261046869998992 0.09840177440936602 0.1070504512232995 0.028228655828390094
Ni 2.8146891075063145 1.3644314873555772 9.265798364302707 -0.3146202374196001 1.457699021475896 0.6868460411678107
Ni 6.245948075080216 2.20075795896999 2.5830818701855858 0.25997941014626835 -0.19697041341389945 0.08933966420709775
Ni 4.047284763408238 6.8038768785406925 10.341708961671014 0.9209681239313429 1.0305241151853155 0.428923513550571
Ni 8.078084380549006 7.112306892370019 0.35687984057394573 0.18023253183392832 0.2875398362630403 0.008150654131592416
Ni 7.550877070792704 3.942443585660997 8.164485407883967 1.3690712957341582 -0.7999858931182997 -0.22752283227945977
Ni 3.4265890829051737 8.497621378545169 12.511873282031644 -0.35766256122205503 -0.304854673392404 0.4297148991036147
Ni 0.3574864721940193 4.7070714590703036 10.045501350841644 -0.9307879382352421 0.4067017260378931 0.05419216977168731
Ni 8.598291397170827 2.238017291210382 5.873377422019345 0.5403067878212694 0.18131933714020385 0.06983681828747973
Ni 3.7116061992303164 3.0336386904404864 11.577754891585464 -0.07143655867443181 -1.3002873441912253 -0.5396370154477546
Ni 1.2200187043766317 3.065221619180639 12.695909356344453 -0.8419121010384403 1.3009344908569207 -0.5453492353411834
Ni 3.3226909498288983 8.34093087936922 8.134783127843416 0.35352462779428145 -0.14352103534550764 -0.18438949142509536
Ni 5.620346748740682 7.870034217754274 3.723492189179381 -0.5566042394297124 -0.20427980259111914 -0.12203175512348016
Ni 3.195860509321143 8.397441017729435 3.687274739945662 -0.3402255966925302 -0.4009493969351482 -0.0766389288109777
Ni 3.315844808227171 4.412469744502743 9.274198716064085 0.7891857171790021 -0.7212126915731386 0.1079156274370722
Ni 7.456581671433288 6.02466808368029 11.349988747751478 0.06306607522254945 0.19029480116593678 -0.36174187349775117
Ni 0.5450589640229516 0.06837345896622778 0.6501603858284309 -0.4809338451795911 -0.07266863130932001 -1.2674103909575463
Ni 4.677583177628162 0.6337786117652787 1.5715503935377317 -0.13377604014360184 -1.517129299718071 0.46345548588916957
Ni 5.980535406626509 5.634746315447361 0.26652346626325873 -0.046314823906139585 0.21453850420464984 1.008838659792082
Ni 7.649407103434248 8.950092398127387 11.639534292044702 0.9746213904804247 -0.06120125409966879 -0.4163521046434636
Ni 9.041059937926757 4.783956802965725 5.849196487172557 0.18223027899024744 -0.24570181718133172 0.08984257198544528
Ni 7.675059732031977 8.771793481154198 2.653062132187345 0.5260903871115714 0.6667544126242582 0.22455757900354872
P 8.466537175352162 1.663657747905761 3.680267192621404 -0.01277426894653284 -0.6058251812390535 -0.2524522485312878
P 1.802375991910025 3.2287038535349915 1.5282854989359833 -0.3428771753827643 0.608397827062236 0.3900011254537606
P 4.690676990175041 1.0965977330639085 8.26370277500685 1.0352706287313653 -0.6020883399044404 -0.6761484522446484
P 8.737054979861197 1.4894393126819456 12.527228588241398 -0.28630210720119725 0.5301439883556547 0.4185311145726534
P 6.18277314986269 7.654031649416871 1.518159556781482 0.45833127728872675 0.2635879534331331 -1.0919405706195837
P 1.70536027138436 3.1203806646949506 5.914691846344893 0.3032017111700133 0.21179333735934494 0.08770624236873283
P 6.93160502503331 3.84617141958744 5.891864724665174 0.05412969196486807 0.4359973896782169 0.0777560731345564
P 2.541151746502744 8.502155247155583 10.345239938544806 0.07032147123338212 -0.821452804742824 0.1753965438978657
