# total energy = -340871.12223783287 ev
CRYSTAL
PRIMVEC
9.26207814660911 0.00000000000000 0.00000000000000
0.00000000000000 9.26207814660911 0.00000000000000
0.00000000000000 0.00000000000000 13.55598759276837
PRIMCOORD
 96 1
Ni 3.7391101828834437 4.921849767436535 5.602635661495231 0.037971851258082986 0.810653657244791 0.07560740222266979
Ni 6.512852491668047 1.6946453779442017 5.709063422086508 -0.1934919679469958 0.21673345497343965 0.5412490971298807
Ni 7.05238706397113 2.8895275468598776 3.4933779893489203 0.32963805098467097 0.5662019104204764 1.7721603647201287
Ni 2.6431284837036104 4.5942871140671935 -0.03740860715640521 0.5466324729289812 1.3030286543817884 1.328567422082841
Ni 0.1600023988281215 0.934775230201341 1.4017025200214466 -0.41000842181362285 1.148713870854886 -0.10334034936156396
Ni 1.6234385216668876 3.6711450539340515 4.419902560396798 -0.3591538010556008 0.3015343507699194 0.952643857768069
Ni 8.437892061846664 1.6590141635713054 7.3093476747617645 -0.5145985844218879 -0.722765123661923 0.7619052841964943
Ni 5.384638760770596 4.738303166129623 3.8094362155353707 1.1192978795866142 0.9383490384119517 -1.0840580825477137
Ni 6.904277173397439 4.480706250574907 5.760833807513413 -0.8989800496960259 -1.2273184080326671 -0.33860374481839106
Ni 6.643920158574951 1.5572054013184131 1.7169336426353734 -0.1495962950053101 -0.9779013467832772 -1.3744564713054714
Ni 2.295457858823078 5.467617718287305 9.647837148343479 -0.9250170971897359 1.555027103205109 -2.7830307102302587
Ni 1.0363246542679994 9.33617470441369 7.352699757421962 1.8514642419577794 0.33936659112634454 -0.8684749391286333
Ni 0.4835629082591904 0.8549861323753071 9.935427451343932 0.5056010089089681 0.6329179236907875 0.6748176492483668
Ni 3.702265636282097 1.2192877446558845 0.21655386895980672 -0.5286190670706961 -0.17716057777682392 0.31205761889874645
Ni 9.626818714557045 4.331484910631644 -0.05155457900764632 -1.0655445971245583 -0.2878265142655237 0.12907632067508737
Ni 8.557595158949683 4.09361622138685 7.444596243713878 0.4316887350005339 0.9611374970613771 0.8552820945874431
Ni 9.12536054523992 1.1964567221892377 4.0417180192824445 -0.6858394542801672 -0.12863794758608812 0.9970082428160572
Ni 1.917852197588711 4.672301597733143 7.088452669805968 -1.7505641266065917 1.397139257614968 1.1521169829991642
Ni 0.15551029095943042 3.1596190057442106 2.583106512915433 0.5610293650806015 0.8316816815596837 0.12503531783649435
Ni 6.8668213296428275 4.599075608434438 12.371804123319563 -0.1733381187069402 -0.5374320373766357 -0.03516652059880395
Ni 4.624620419778458 5.917430540231601 12.533717288855543 -2.480643781652057 0.2134658399657614 -0.10236795814596564
Ni 7.4630490818722155 2.265541346625403 12.46948848220353 2.8904552569635253 -0.6171164378821565 0.6535803371361453
Ni -0.035379285849126405 8.365777521917533 13.506264199674016 0.6726862047276608 -2.2086915154146287 -0.01640980881659109
Ni 8.240118908609219 2.76976887728838 10.167248003602632 -0.6014712751457318 -0.021764131149968967 -0.9418429104978232
P 7.821074710045937 6.303770341095196 7.946913007668998 -1.002270776766577 -0.31483749563672875 -0.5424287192602788
P 7.7912971290194575 8.13857874662064 3.733847470118515 0.5633402726019654 0.08927050153205916 2.5531067247084738
P 5.875621519779495 8.926040624963152 13.862216974773483 1.1290588156281198 -0.6380948399060365 1.6080291093234371
P 6.013617221090069 2.8169221167925174 11.041094505571786 -0.9125547030566671 0.9568458116645585 -0.9633985251814119
P 8.721441320180912 2.9485269842280477 5.573503647310914 -0.4168380431409467 -0.45924659001414453 -1.035359846011062
P 4.575744433751484 6.614726088467498 4.701338212513239 0.9503946567225761 1.5800377663168337 -0.9975162928007273
P 1.8102546365359593 0.5861070795116167 5.3497077595005305 -1.1255492598129648 0.22997926423975232 0.3092348047379706
P 9.009769810804324 0.48311091884889734 12.008409268482996 -1.2087810113501118 1.7088538913519988 -1.2581194525739234
Ni 1.8912422472655162 0.42173946328449696 12.477201940828367 -0.4775813837675904 -0.26321745746759184 0.22725646599195057
Ni 6.392565883646004 2.818496670066079 8.90758500818139 -1.1653383667854447 -0.7909140127240185 -0.9622440998619946
Ni 5.61135590800734 7.013347404864875 2.654642172964579 0.6884067007867112 -0.2711703937660814 1.1498996636328713
Ni 0.7018589741058029 3.10642689133206 11.472459120396787 -0.29537424470579454 -1.9062809326873427 0.10304801493212576
Ni 3.234225044676802 7.939147681406914 3.264389780567015 -1.1060345868188046 -0.6587945343472331 1.5867912829905833
Ni 4.7705351978472414 4.688704738012425 10.628409649818078 2.2462476192915313 0.24988320225253094 -1.620696163268144
Ni 4.703135055660716 -0.02427498043928357 2.1282495632488914 0.49996257967626795 1.0440877128023633 0.00041446182959928627
Ni 5.547086348211778 1.115626566787037 12.309514795817456 -0.2078443800139259 0.5229276731128736 -0.4978121089921685
Ni 0.9426387344910704 5.997251129123106 3.266952597571689 -1.6066229730045298 -0.9312898175723252 0.3733414054098925
Ni 4.607930155078703 3.52309999790692 12.784584378477492 0.7117610592419354 -0.9342609843855072 -0.697291919091483
Ni 3.806862284037001 3.4380833832126605 8.633659048972032 -0.6788223995323858 0.5726846899313427 1.3421826988734304
Ni 3.420652152266523 2.0227452318421686 11.066186401297708 0.5486212212242358 -1.6890782513869684 -0.31700159316758314
Ni 3.853209722748198 0.7207841782462081 5.410750411293099 0.668705622813358 -0.17677748340579233 0.00132334679711385
Ni 3.8879610397035154 7.026286527942322 1.0574912813037103 -1.2191854945128875 1.6314220343260808 -1.2084279988860671
Ni 6.288173001608854 6.883956174090413 11.31446474009636 -0.026137834737632405 0.8609652610151494 -0.5156131417293314
Ni 3.1017124935894542 5.431365944683063 2.604538961592034 0.3307801350089142 -1.2683246752416997 0.6056457182383956
Ni 2.0633779683781435 1.0938143729091658 3.0854380961954804 0.35002304239892623 0.6018145174177636 1.6151217545041603
Ni 4.688473186060431 1.3328130356796926 7.733514728710971 0.3019043325148284 2.5133991217062066 -0.7503394337357658
Ni 4.859404837022688 0.2895408966440535 9.969168275580746 0.11062582727938367 -0.20246768908304486 -0.3220532966588776
Ni 7.673816930655587 8.10476289955138 1.688032254195242 -1.8956072550235807 1.4220429628351832 -1.0822295139794071
Ni 3.984212555108542 3.0320709285076224 4.1601559165197655 -0.34438024229085207 -1.6111288312946832 -0.5471991440657286
Ni 8.723293735796867 6.053999881517891 1.3125642805816873 -1.6084937076646815 -0.2187168039520556 0.11368261182783647
Ni 2.1389750496652713 6.992202080608749 12.537485102218394 0.43607966497937806 0.5581849536532709 0.46974440422167485
Ni 4.319351588347138 8.48793506971169 12.422069421058502 -1.1202345324682708 -0.7282001786345653 0.7783518597882918
P 0.4112492336513433 4.245643970988286 9.333731368216247 0.8688665181400972 -0.37925828511495974 0.7158979642284445
P 4.179873954543799 7.509970769424358 10.639159217637467 1.0206806467323326 -2.490570039626833 -1.9017210812308025
P 6.689480320649366 0.39768955134255196 8.083990837041867 -0.10701702688220278 0.6239077497723771 -0.3225477197967929
P 8.180767512274018 6.284357025439987 12.286225300485862 1.1992527601447025 0.3523509192011544 1.0965803833844403
P 5.296769426027765 1.279324534768989 3.9233468090072976 1.3782015401702006 -0.01658130139744886 -1.7239254409731406
P 5.061910912158899 3.693642641589826 6.896635958981625 0.9886994658400456 -0.323983680912371 0.23038369876702258
P 1.551064643551522 5.873037399995237 5.273035350948341 -0.22847208356660653 0.16572945312174683 1.178082039604358
P 1.5200459440623542 6.250661585385763 1.0994410853426295 1.159472652033287 0.16829052898070374 -0.5143738700055915
Ni 8.64855802777116 8.557030172186817 8.663808039329508 -2.718383149453202 -0.37684221947429936 0.2743750167463081
Ni 0.9006870780365352 5.358992066567697 11.428361440451168 -2.630832715936043 1.70244567383281 0.2964497371581604
Ni 6.3162926706590525 6.394566492511235 0.3593093521955783 1.46679661290179 1.6791815610985468 0.19821894110901994
Ni 7.061547259192027 9.148756554469433 10.661905955193587 1.0639939648079868 1.097367140951794 0.1333286681935381
Ni 4.628853189460916 8.5082190207064 7.263921812819506 0.5872461326852854 -0.3892783883551231 -0.25158938631036026
Ni 7.8794628502608415 5.545270980908142 10.170108133313667 0.5493766113330216 -0.7161692156119601 -1.0985691316796953
Ni 4.507557014928176 2.977785888882058 1.4687099500973904 0.17162190734678187 -0.26069443393542197 2.1730526831650963
Ni 6.714747269650993 4.2803304533970445 1.5170237279849232 1.037083513570388 0.06529727854591336 0.5210944765588768
Ni 5.8440656197616985 8.531161188110005 4.981730954637898 -0.165867778471824 -0.3843125597094155 -0.5706586606402495
Ni 6.323118822203847 7.66786141445029 8.862010026782048 -0.5530571455084023 -0.6490184287970757 0.5219917915621656
Ni 2.9967453627113585 7.415284545214813 6.019183730016014 -0.48600020395890486 0.16440533499368462 -0.46829121671491614
Ni 0.6847648828017693 8.198337674391352 2.4559928271407867 -0.053449378068391826 -0.5384296254032147 -0.19457183127473587
Ni 8.053034193475833 8.696600426770953 6.079589150836694 -0.3642093612016372 0.7109966702720851 0.14220128809281962
Ni 2.529955151646834 8.788656220805843 10.188693419188546 -0.5366252252046242 -0.4120228811404904 1.13470521528062
Ni 1.303757896743437 2.348057200238123 8.120917816138125 0.37987277877050707 1.2467114678472981 0.4494833399797936
Ni 6.061159467873558 5.163997536754184 8.503196195763739 -0.44778924010682236 -1.3148719268736193 0.45426379208757256
Ni -0.18099675121154862 7.8058756399170255 10.948995179769923 0.8872920718351364 -0.6563810398097341 0.3969328195765874
Ni 5.624619203817579 6.474183315684986 6.7429919767552695 0.4138632767833388 0.31378899976755636 -1.97070197927589
Ni 0.33974969570670843 7.035113288352349 7.144737392088955 1.8140274372675598 -1.1008412155433234 -0.6367609515859615
Ni 0.858082445077376 8.020524299415822 4.820726398961546 -0.31012517776272397 -0.2539519730052659 -0.01661266885601655
Ni 3.7185668937025014 6.61429077079775 8.298663577943673 0.5823368683091261 0.034782654896823965 0.7792877413389999
Ni 3.0358683805203306 2.9030687050125095 6.396731966366287 0.24993668119828572 -2.759506658966389 -0.15561216218208682
Ni 8.278324980688293 6.353989328443739 5.337236371366113 0.09405635295647671 0.39072771920713995 -0.8618690037763416
Ni 2.742408698640724 4.1371757745960345 11.169198307493163 0.6078761502308111 -0.9420316294698614 1.8735680158353538
P 2.5279174944692833 3.101110458514269 2.4352383625796254 -0.5936785185741905 0.8204986683596708 0.2018683649361491
P 1.2262620894499554 7.535154359723267 9.1013134119214 0.5592195655653724 -0.9856773911842703 -0.03176315134420982
P 8.369426780680964 2.823924247820828 0.8108523303251768 -1.2836484500829635 -0.6579887506164862 -0.23629980714114143
P 4.703792663204379 5.049925783123669 1.1708415190518109 0.8478287236331914 0.3983641527064752 -0.8607454316948595
P 7.800373965537639 5.132626878297985 3.5891645484343426 -0.5349295826697561 -0.7079627685417679 -0.7624794115324095
P 2.3034880805182434 9.150053245400603 1.422023519328474 1.2146469832125855 -0.522914303376435 -1.9417305317442042
P 2.195408891405343 2.6104426101600824 12.882675342589161 0.8784366783270355 -0.4486937541989628 0.0571589657094951
P 2.9594932846745015 1.193724409155704 9.00665219532267 -0.3344596407430304 1.5642020848361577 -0.5108995383037459
