# total energy = -340872.9948681266 ev
CRYSTAL
PRIMVEC
9.25396120993379 0.00000000000000 0.00000000000000
0.00000000000000 9.25396120993379 0.00000000000000
0.00000000000000 0.00000000000000 13.54410763547152
PRIMCOORD
 96 1
Ni 5.550275969191991 8.698001559781575 2.7140220497617586 0.4014803297379537 -0.6885583958732271 -0.9012089390265446
Ni 8.289494704047803 0.8805504825073783 12.873457256089342 1.8001465655204094 2.55348621953508 0.1281761774583212
Ni 1.3332366735972252 6.2452762044713825 2.541158983106692 0.9921658271220912 -0.43476634548459314 -0.5351080172291495
Ni 7.152173639428915 2.2284463557731398 2.6023378448759367 0.029763090195045513 0.62955594919709 -2.3110648728772327
Ni 1.6601883707685254 4.33876589899097 6.706540817436573 0.5056120646525615 0.8493569873522597 0.1858953865466605
Ni 2.8108258853104138 1.9970232983204812 1.6479657390393398 -1.2785065008707077 0.0680810119386376 -0.2354343738170526
Ni 2.0643551187789564 8.521093586760044 2.2037077417500996 -0.6047556023239584 -0.12692019356403303 -0.10213604464081764
Ni 5.774055254833393 1.3547706409153768 8.894889760064226 -1.3225001328428385 -0.23400252646653247 0.43063972491072927
Ni 6.868706305140294 3.494702859431052 4.6686131605687375 1.1048554789090392 0.12036053806864434 0.3014770151694227
Ni 2.132057097678654 2.486927995279204 4.015800808231642 1.0190012021473807 -0.4767763713677917 0.28076060855767776
Ni 0.05122715207696263 0.08507999231901776 5.445530384286895 -0.025196810980601766 0.10456625134886507 1.3209685266896605
Ni 2.694623896649464 5.7933590175431755 10.931842049439439 0.11918065882793022 0.06644836143122104 -0.06883563071647501
Ni 7.010227131180901 5.98971881665098 10.766780071933146 -0.396716075580091 -0.12935734225061596 0.3768918417653122
Ni 5.860070822612602 1.88111743641251 13.405876500814738 1.6339807961921922 -0.8469506919036123 -0.7549422226150998
Ni 1.686460366134332 8.513403545143634 10.595852933925677 -1.0389817590343655 -1.8898870647103516 -1.9451722104359017
Ni 0.13486445187131352 0.8338531443548829 2.050997951427422 -0.30854754886295893 -1.0144971436294399 -1.5482265353435078
Ni 9.081309879629087 1.9861684020316148 3.928292576538201 -0.48594492524093735 1.39413595201227 1.6437219347393561
Ni 5.182634605369246 8.334839113097628 12.383310105351619 0.49596142893667494 0.13983278786064304 -0.6274407026263001
Ni 8.48253233114563 6.964817944403862 1.933150608495236 -2.1518685928883134 0.4689938992088955 -0.6407443617137417
Ni 6.344969126653782 6.76575598867513 3.903141235853197 -0.07810625738512354 -0.11999158476499978 -1.9628984240710712
Ni 0.6551665600232741 2.9152290736573785 0.1409008106515586 1.1821217568913707 -1.5655151472206263 0.8093287677857803
Ni 6.11008508777569 4.577184950982744 12.839190763789219 1.5887993145595476 0.018668008723148496 0.8014804753859551
Ni 2.864674684547339 4.508918480460181 2.493591772617322 0.3141880349781879 -0.41624566097258636 0.1646976694231228
Ni 6.272408818213032 8.221885264758411 9.828756013653168 -1.7548390998328618 1.1705844456757324 -0.16532424726352818
P 5.148561520854663 1.5053788566880104 2.1094274613744823 -0.6814228132697102 0.2475067316005544 -0.4425650155934055
P 1.8040874647939906 6.684478448943576 7.228449413223442 0.8689454510071487 -0.018359476343794187 -0.2786798147692491
P 3.309096163040778 3.270692224763885 5.676010463110537 0.602075484388634 0.06966146905188003 0.4780369832477703
P 5.308368173891689 3.6438396953998238 8.86127289582845 0.31752995486722735 1.1035210763683319 0.19262884861575214
P 1.8162934393933212 9.48873402192228 4.276334976294288 -1.6585898529901242 -0.06005479920005142 -0.003494900527135917
P 1.3143678470558795 0.5274878088922033 0.13063909326475226 0.2958882082277356 0.7890180812528863 0.02616405998987752
P 4.680746028875927 6.964938245897259 10.698435868137928 -0.32197539223309063 -0.305370436686558 0.5068150838217271
P 5.7064643234660615 1.4182898294292543 11.17885895662472 -0.4883573913371718 -0.871955441478066 0.21016222951382518
Ni 1.8103061266065381 5.111647470303693 13.647990659446023 1.2975964276226233 1.1963798094722815 -0.6381969127015396
Ni 5.380761911033891 3.9016920655558085 6.553627439971223 -0.7692007894166429 -1.243542583201013 1.135519226541483
Ni 3.569484118519141 7.800191514556068 8.878704582221747 -0.9759645347718805 0.1967189595247257 0.06187128358349989
Ni 8.46051715785389 4.034727009331377 6.506859771714895 0.34721128398174395 -0.9427962755500279 -1.2372544361994562
Ni 3.9597421631006156 9.294215761059561 0.9311603953836015 0.7850922638359189 -0.654895199292827 -0.3922197303716342
Ni 3.7374805270682274 0.425450858380757 3.595391507820343 -0.05720267446323697 0.3976609559918636 -0.6471296964147952
Ni 4.1429890994280925 5.88828614979483 12.724784043568203 0.30760215423055415 0.5154948709839122 0.6895955788884899
Ni 8.93869708618687 6.446170444484168 6.219860200500904 0.15474467197546896 0.5959061223531285 0.6472942470171175
Ni 8.401328823102322 7.595808531234755 9.448585711991125 1.2618560367982203 -0.43724206071859534 -0.20203034443531012
Ni 7.688153808358878 8.350839211719496 11.606893520925215 0.060637411176398794 -1.2268594661183774 1.6302025600966827
Ni 1.723420686490455 1.375962211675397 11.457935286404334 -1.6600679801975475 1.539721068975658 0.5782141043900042
Ni 7.301662125916849 5.228950680327282 8.058987788737172 0.24458904373312718 0.8724393230930202 0.6207735750187696
Ni 1.912368062812767 6.614028043617797 5.058439970566186 1.2806924527784331 -0.07857291260889694 0.16104181783809038
Ni 5.705474149635791 6.783690165152387 1.3628484234989673 -0.04344470144719614 -1.1140700555287717 -0.13517420604270913
Ni 7.471527834594111 3.014172424996303 8.571171396877007 0.4026571236548743 -1.8511112294937344 -1.3287268304788409
Ni 4.44759248071055 3.8133167377138024 11.248083212113949 -1.9915371708536864 -0.2580423410245556 -0.21113822027384932
Ni 9.049346698229476 3.0549638852190846 11.608789657540381 -0.5366493935743403 0.6265526435943919 -1.5338844076892229
Ni 6.636320835740455 3.381425122455764 10.75427889597694 0.6729926802244861 0.23682611195825665 0.4052287410367924
Ni 6.829201145500762 8.979830942967784 0.4947463693699204 -0.1539201191916446 -1.645200833277728 1.5707697107513463
Ni 6.3550466902160805 1.5083308702567642 6.526891821157784 1.3820185999234458 0.8385089888941624 0.7351393289565598
Ni 0.7860832721189436 4.5347647936185815 4.5222284526104595 -0.4144595156064411 -0.15858050078179142 -1.081135252473964
Ni 9.329473352586056 7.466105013430194 3.9884007550162077 -1.3111350855390065 0.8886897235136114 0.2634162037419593
Ni 2.006101434091477 1.3053915048562204 6.732139124439354 0.20743454617001691 -0.2714385598258035 -1.2405942992059666
Ni 7.921936625874333 0.356288604430434 8.190311675118187 0.08704161220154041 0.006101742022363685 -1.0082020546493475
P 4.753917098744695 8.06344819795391 5.219899381043274 0.14950013574707802 -0.5394364694011743 -0.5879418732007293
P 4.983526379835361 4.982369634706538 2.6828982026276207 0.8844569163791864 0.26870933382009854 -0.626136639102896
P 2.2265492937618716 3.803192904346352 9.990336651019756 -0.28035334581693006 -0.3580019468393447 -0.39576553874136355
P 0.7181175553298742 0.8668499932016097 9.545155422325704 -1.0138715942302992 0.049534873505334046 -0.4066184222954674
P 2.964987622118789 3.4262235478047853 12.953489212666181 0.33627124003047243 -0.43538238180203725 -0.03995185780258926
P 3.548958832953322 6.978476790884993 1.0178922197465772 -1.6177990442260075 0.6606974077969008 -0.7182975748088726
P 0.9017688897543873 3.47589881061692 2.369121369775552 0.6481437395016063 -1.4247724459512041 1.391958741855293
P 3.6497899923424844 0.6922888246974319 8.05706481563502 0.43873690009656696 -0.6398506462548786 -0.6828767721074175
Ni 2.974139789578029 5.411179680941395 8.644161089109577 1.4045656319860262 -0.7359998771846421 -1.0736240316985832
Ni 8.826548332457314 5.400139705431917 12.514565512421006 -0.8215710754882432 0.49882383808613445 -0.21148249098714544
Ni 0.8842844557832159 8.58042073092707 7.912670634694417 0.42870779799533915 -0.4830259518219295 0.20767365876401653
Ni 3.9238090324188866 6.918039171394297 3.1645261568405956 -1.1193228192872788 0.2870955496367701 0.4089594117238182
Ni 0.1530910535171371 7.9675956695991985 0.0704439275530579 0.41830434327382804 -0.456224258248053 -0.8541407818941483
Ni 3.7554054495844547 1.2754919567664276 12.321968373868236 1.2250064720700387 1.3380290817163731 1.4865020617505174
Ni 4.050773377758397 6.523709383959369 6.730242987824189 -0.7201505688572114 0.3894665931065292 -0.7094604361332169
Ni 6.282912063982736 5.905711358415406 5.954436239429701 1.0145930457773558 0.2546831947443356 1.1221080953418998
Ni 3.3526082878065493 2.941815703698225 8.083529293390262 0.12288381871113033 0.0027860473855693953 0.13201714847096618
Ni 5.558141836067981 8.480894380043217 7.466473321079211 -1.1407591347841837 0.7853732854114474 -0.5656334395115162
Ni 6.972646795435729 8.343473058739157 5.508523947814236 1.187405373887813 -0.11919685677784633 1.0078539272813094
Ni 4.785861772222245 3.0570830422950865 3.7563363980641307 -0.7672899455471753 -1.8084239750378532 -0.49966895969524916
Ni 9.108701604279593 4.836064510813123 1.2536924007666983 -1.2550724382174836 0.23276762561816688 -0.1849790453799782
Ni 2.67497773738155 8.294834239562446 12.614304704408562 0.15057794219228907 -0.5471014421455996 1.2816746141860442
Ni 0.7726974174882147 5.876394809870539 9.014213109780787 -0.9973134327613019 -0.3638707469152959 0.22569580637305
Ni 5.326987143485209 6.173761593627086 8.777841033968977 0.04178736834943126 -0.7728887797911915 -0.07608871273446251
Ni 0.7550510391990083 2.63677738624733 8.139737852689983 -0.4621557932411396 0.2794812276246219 1.3892025192663946
Ni 7.9406388811171285 1.2669875665793278 10.409729866509895 -0.09760833197379318 -0.729227334347499 0.16681497287644176
Ni 7.182471107843023 4.8491496117103585 2.4441561873958793 -1.0090996267629524 -0.5068099416154046 0.38197954070086476
Ni 6.31892848031374 0.9267841972122418 4.308190811745945 0.06146222107053931 0.959977929535637 -0.2977993092075194
Ni 4.261597117956992 0.9591267910141069 5.713351121265018 -0.3004706853920954 0.3859719496897095 1.5160229540277699
Ni 3.6824749827024807 0.49738652445194387 10.191426149610287 1.1585162016572887 0.20963181093165187 -0.06906343045656493
Ni 4.2249606862369395 5.092908199216775 4.694346575402565 -0.6960179374750658 0.6452347933849275 1.3132184504305966
Ni 4.598820711872232 3.367322085845166 0.9027821984872354 -0.4689504475654697 1.903970025165979 1.1067755787498874
P 1.1186280633371244 6.806121766690504 11.870664724556356 -1.1070619996420548 0.16111509427818707 0.7799102054143471
P 8.633427419710213 1.8325433949630137 6.609632412128272 -0.549531391743331 0.23050505483623526 -0.42945058969863464
P 7.626577951661422 8.83803249809626 2.8798974504426376 1.4638218465441821 0.2609834259307505 0.41960275037027733
P 8.419975554578933 4.511759446496568 9.764597376432077 0.7804385671139914 0.017676334233840522 1.7276406850411987
P 8.035464219797447 5.405951192959119 4.458733324395261 -0.16881606246687056 -0.19315026833686091 0.011944573956385878
P 7.01294779572389 6.665887241233147 13.285090099859243 1.2222309662074304 0.5935383934519003 -1.5030759069487984
P 7.711168409441922 3.1202875961339243 13.838556553552584 -0.09311892874387188 0.23860582956649873 -0.2693726784357103
P 7.317375351746767 7.287013105605446 7.576045772057856 0.2949518124563953 0.8354881997899676 -0.05407647012942945
