# total energy = -340869.6249069454 ev
CRYSTAL
PRIMVEC
9.25630811278951 0.00000000000000 0.00000000000000

0.00000000000000 9.25630811278951 0.00000000000000

0.00000000000000 0.00000000000000 13.54754256502960

PRIMCOORD
 96 1
Ni 0.798315831336597 7.343973225464473 9.818771185476102 0.7192231719469355 -0.671570860176295 -0.8839167276050003
Ni 2.0033427256135927 5.249048589176661 1.1208315173321117 0.7778443240242539 0.1644783543234651 -1.2698763359995358
Ni 5.120598804011298 3.3439800848717582 1.5876224981634692 0.16380601084678886 0.6115111758802372 -0.19684854312405456
Ni 6.491430239742002 9.171936684700018 2.673417964344077 -0.020535915169822696 -1.0692942939749779 1.9764257691335445
Ni 3.1519209516011557 4.274276057218792 12.00266189981669 0.3266234325280633 1.312771592701165 1.2724764926265442
Ni 7.8554675454509875 1.9742038682452445 4.732007889477594 0.26238956224965776 -1.0072661730986394 3.067512219282949
Ni 4.474203052231165 7.143935154756921 12.244647706808193 0.6718379977947526 -0.14492999987789235 1.3275749762625846
Ni 3.294634707288955 2.7985243710845853 7.648685328784548 -0.02420642204287444 -0.5326991506773406 0.38726212925604275
Ni 8.810672242441676 5.157975775438677 7.558390970543602 1.1621036618982308 1.4808060398070046 -0.06230888534155075
Ni 0.5949001338648428 4.080615582676041 12.886435668500026 1.3666120355603883 1.3126805756492554 -0.9180612346971931
Ni 5.339223541045292 8.912306503529498 8.551682597780015 -0.061653511145738985 0.8645095267229821 -0.18881718817914578
Ni 9.14737969975776 3.8452091593622444 1.5715017122699764 -1.3788656561167607 1.49883204407078 -0.14102089463147327
Ni 2.492603393948656 1.7080572462909516 3.4659088010993835 0.4898239485803693 1.823047124267667 -0.3357955859456346
Ni 2.5983196868342673 6.95417158585333 2.950451855687395 0.6300197762073859 -0.6060869195408723 1.8576048076378784
Ni 1.8854821567218591 3.2383656113733936 5.557947320574153 0.2916446024600332 0.09556044830582897 0.4208307092401075
Ni 4.704564787722297 1.0277463822498196 1.997056766897314 -1.6977397837167083 -0.2377401391320938 -1.2087085062409635
Ni 8.466170973847273 1.4207044228656023 2.7540117118728165 0.2748498995001976 -0.5782112761765268 -2.3779207541595175
Ni 5.6506983029401185 7.038061504636474 9.75467773246605 -3.755482089642558 0.2791809227753837 0.3601390477870055
Ni 7.9955895349179675 8.032883199573964 8.655199591901104 -0.20957293266925842 -0.3249560721279694 -1.0720602867558893
Ni 8.461922328506716 1.766825545348017 9.59725477784431 -0.14984389223974193 0.21948453535601556 0.2794295484510801
Ni 6.77561740585478 5.417439343066429 5.470226215938163 -1.2956146213059043 0.24480090263361715 0.6205149220407442
Ni 0.523708943932917 3.291126566582918 3.588188331397613 0.7097458285841195 -0.6416771579406562 1.773102931139056
Ni 8.722154169692784 7.733330562294904 11.633532372708956 -0.8586055025337211 0.22803782424266533 1.7170328276183657
Ni 5.3997042570696845 3.3638996595403365 6.397663840395951 -0.8376895783166606 -0.9445829351368055 -1.841037133087184
P 2.6856436958599965 8.935391735510647 12.283909262530425 0.21570964169461557 0.6111391372527991 1.6295356159366452
P 8.367035915900955 3.911512093075548 5.727372929690662 1.1570257331546914 -0.3119285495200499 0.09215219395522839
P 2.851692603843096 0.5035153825495662 8.653519572011538 1.5966108401841663 -0.4586431521021908 0.42951589571893123
P 9.079105172455048 2.51751211859231 11.690729876310048 -0.32198181999099384 -1.765358768417263 -0.15292330249601405
P 7.051473894829211 4.585750819113619 1.7206328662466814 -0.33039755485851485 0.7576873894604047 -0.5455256130180477
P 7.0975240267884026 8.392962834417075 4.577010087533908 -0.1836176462560773 -0.6257088075368578 0.4691340243311857
P 1.824288704986742 5.668720334482741 4.920765297709033 0.32334141934268185 -0.8518255034974104 -0.886811532654292
P 4.730158479152882 4.177001517166705 4.544062259451749 0.304434812246166 0.8520052236083843 -1.058697749406054
Ni 8.086051432332475 0.5964542679665409 12.7334298240232 -0.3569254259457143 1.1064032830121333 -0.6187359757634505
Ni 2.3267303558162546 5.158707023765265 7.126752670343685 -0.869360169947064 -0.33476123114384926 -2.00539258867954
Ni 1.7268845766236138 2.139465990054167 9.717652500740066 0.0918698868281192 0.3453307791295795 -1.4406063276596672
Ni 4.795609832536487 5.5851358738613355 2.5355036043187584 0.2783589410947206 -0.35063573628226063 0.5669269615119591
Ni 5.633972154507906 5.2833524663707845 11.412489888043254 -0.7877932077068496 -1.1846671490210436 -0.2652797393132593
Ni 0.4079949128504973 1.9831732306308638 0.5118210676564972 -1.913917109076362 -2.0969649988718984 -1.457663283141954
Ni 7.635954202855569 4.504258284084732 12.213393783077498 0.4730688406092176 0.5064152772801472 -1.6539837216766806
Ni 1.9549507477477337 0.7798300587666072 6.60812543946516 0.8923016092345858 0.12210708844610585 -1.2902024491513973
Ni 4.426597860539483 0.6870901839701595 10.521711871148156 -0.6588711532214395 -0.37257727355035836 -0.022859163986360634
Ni 8.89870898717813 1.5710176073651594 7.02981968805427 0.03461579030165651 2.0156590036025546 0.16244152639909443
Ni 7.5015803806140475 3.9846832072740206 3.765377205976268 -0.7177617569100605 0.61209275941532 -1.8024726425504247
Ni 4.657468692966847 5.69235168863185 6.576288368334781 -0.42673807586347795 0.9643536900058295 -0.6926713896003361
Ni 0.7572344854750331 0.08308924814707026 8.523815557121454 -0.23794377050246762 -0.5767326347484713 0.3853260885755944
Ni 5.074122881887258 4.468408603466049 8.417575357206921 0.4593023829527445 1.6066972778858908 1.7625431533453388
Ni 4.76276845199554 7.355339971604348 4.770726099924247 0.8519183203215328 -1.2010790147201635 -0.05828716577666736
Ni 6.506777198292421 7.769180242913585 6.560112970224492 -0.13991943403717838 -0.9298862523565793 0.4495491602207225
Ni 8.922618030565184 6.312570601581712 5.175987625042574 0.19148599326056054 -0.18885472628530056 1.0136890459058479
Ni 8.8098854562675 8.74787744943441 5.969277281172368 0.40419747155880065 0.3800296160633455 0.21577983281091873
Ni 1.9462405619841965 7.918438208308952 5.148120584384014 -0.29326028368658524 -0.12456352040639838 0.8326936677639659
Ni 2.9077858299079593 4.090223630308933 3.0677052107788225 0.48831239703184937 0.5884368105592769 1.3416173132882638
Ni 5.660935779512354 2.2327325487719167 8.459003814615915 -1.0507838938756162 -2.803576138481778 0.7359399704809843
Ni 1.2716686088605915 0.13757372789343966 2.1744622390815658 0.15000201508416103 -0.3720345136730109 1.2052596284604147
Ni 8.180937844938237 8.48242505057498 1.2378988206341162 0.3585681037554599 -0.2696508717977614 -0.20579521079438107
Ni 0.917139981883999 8.773045350700148 13.58317277659639 -0.28126120234318014 -1.0002576029912902 -1.8286978947955412
P 1.2732144122851514 3.586495352676943 8.11577713962368 -1.4033836958627832 -1.6520749346897419 -2.2465196420059956
P 3.7395298917083597 5.3026888936396785 10.090046727655238 0.960985801974861 0.7260957306970527 0.39652709949773646
P 4.649082477980912 7.754286843451809 2.6644087998343524 -0.2053542666022205 1.37360183661466 -0.3879990074220673
P 7.150451595540694 0.6566119388441239 7.9164518046268535 0.8525448981619382 -0.10070702550377494 0.5217125697588498
P 0.9741153340947339 7.199204569415881 1.654777937837263 -1.1016747671882123 1.0550208147750992 -1.5369198520814369
P 6.605282827299397 7.976308645496663 12.541122621700032 0.8265291908244669 -0.25548383626876 -1.0642852707961605
P 3.8943231292467604 1.69307128374986 5.7902602857772445 -0.10727927940465395 0.3496319776080946 -0.3102573324652141
P 6.755040633323064 1.0287645761222841 0.8760271645754683 -0.33190139309755096 0.22145220060534765 0.5832616941162407
Ni 0.3907865107750539 5.64977267214697 3.0476143944135115 0.2631799193614371 -0.23212870648258732 0.22629975850563605
Ni 2.8584311960172246 6.608466997227832 8.583654811006195 0.8777810470209076 1.6226656282896894 0.7139860919177123
Ni 3.9834983998587887 8.178521948568115 6.8634560656015 -1.1058942045861986 0.3451461739225991 -0.376313600664339
Ni 5.9343578595008015 0.7573649994168673 6.1246814350342484 -0.4123344988436383 0.5137683752111086 -0.8148378705294677
Ni 7.540429105002534 6.270667295575832 10.23436922966153 2.0715730411613547 -1.7142130987813833 0.3225006686089414
Ni 7.214468221194917 2.976310277524821 0.24341775782850555 0.5100754997405539 -0.5003091643824094 0.0066550434226724095
Ni 1.6555554677035085 4.611853607480437 9.81759193184563 0.5974408138301002 1.17683402612987 1.6834480496843847
Ni 5.092922443296126 0.2702721583993606 13.04494161114975 -0.3486567581790189 0.3124931637742682 0.08374777194161706
Ni 8.617761528841376 6.160202516721363 0.34711802684663706 0.020964518066809056 -0.19676421094036434 0.3519806803459293
Ni 0.9086343605257478 0.40642596865610886 11.018175798315509 -1.0614958809764816 -1.196910999385403 0.348679126776522
Ni 1.5568647125379025 6.628284752509164 12.268640982597423 1.034671818805102 -0.27510289605126814 1.1134758735881984
Ni 2.2217453112572314 2.058899085818429 11.983031121955575 -0.5885453111126832 0.6336473456576442 -0.47595593234902545
Ni 3.0295618170547156 7.851811303818047 10.647840174284301 0.09870747857524291 -0.5476511440014826 -2.802322468580335
Ni 7.342297833728871 3.4554538012907594 7.594846939331798 0.7914470024093531 -0.3425555303772875 -0.6379495725774239
Ni 6.296686777171265 2.325017938848928 11.378959838192205 0.6883169692863823 -0.26546614429245247 0.5165572508101556
Ni 7.094562008250324 9.13208827905493 10.574615373499824 -1.2239078396892211 -0.02252800589918701 0.18145046340142945
Ni 3.851225759517717 9.408481633889387 4.271662075858938 0.6718796496659655 -0.5887705397496119 0.20583403445211648
Ni 4.196967373374941 3.0473431845911185 10.200690153252784 -0.594867139565653 0.43682219957235735 -0.39053462935972744
Ni 7.16868652216574 6.376744584470771 3.051936164586727 0.03859354400248192 0.4453245806164137 0.049986102110139714
Ni 2.510412530408853 1.1931288360618515 0.4668844695414655 3.517294064339768 -0.9538021397422282 0.8720485154125047
Ni 5.608452513540772 2.098988155469737 3.8985893615723866 -0.6022616322575112 0.7489065579439812 0.7283130500633457
Ni 6.001151377534474 7.254696135465197 0.9661225121958875 -0.3995568874629958 -0.4148917180478532 -0.5094476363485678
Ni 3.2627189575411584 7.9214187394628945 0.841781602121314 -0.021357639740169666 -0.024404654096609586 -0.5216156391696694
Ni -0.21110213557806812 8.037992681552149 3.5366538369890113 0.024352203592119353 0.46846116663387705 -0.18186338256913195
P 0.6366877360215797 7.169667690806478 7.0745674574874995 0.620032583087687 -0.04227253551596591 1.288024210553156
P 4.316336720459508 2.2823741282085277 12.2904118188523 0.2603216239770355 0.39666053975180715 0.19739464543551166
P 6.712146902368514 6.178594800581245 8.124610434282705 0.18873568420893302 -0.6093409077017957 -1.193891752943105
P 6.9816350514860765 3.4067471089552295 9.666727071393355 -0.4376758058219043 1.3079366332063669 1.6696481676868147
P 0.9254808409610698 0.6851602437664427 4.40018776274934 -1.2283843874033362 -0.3867381384317727 0.33569094204697025
P 0.1623084339479822 5.647495620395822 11.044566457858995 -0.6114764659875598 -1.0434151122153708 0.9350937646994477
P 4.270638328201714 5.481983578272748 13.927279726472912 -0.7542832488748622 0.0012282159801462718 -1.0349731520956047
P 1.9959747045001222 2.9483377149558416 1.4671988576055046 0.3675571946279476 1.2044957537111964 1.2843377628405042
