# total energy = -340855.11460466543 ev
CRYSTAL
PRIMVEC
9.39391280343241 0.00000000000000 0.00000000000000
0.00000000000000 9.39391280343241 0.00000000000000
0.00000000000000 0.00000000000000 13.74894093907580
PRIMCOORD
 96 1
Ni 6.873469432435481 1.2360416163730032 8.192140842786085 0.9808126068928011 -0.3786923853091607 -0.45076323513348177
Ni 5.04410830086538 4.356502085636091 0.4483902327325499 -0.9204101945453438 -0.925150794554123 1.8127637400637877
Ni 0.5544615960297005 2.0656650011835107 0.7498465220673184 0.6607956239376619 0.36053268368099844 -0.5300313740371904
Ni 2.3493517655824525 3.316060515897571 5.017428649897817 -2.2667120577934705 0.9091317934180472 0.2420832465921379
Ni -0.1577585488024936 5.181823058509292 0.627520871924925 0.3939472545857022 -2.045472487419561 2.457734481154051
Ni 2.0453459683878914 4.3744256707373586 1.3153375107948169 0.47607163199128333 -1.31164159286178 1.3132824708993125
Ni 7.5214615185389615 6.077429284908534 4.156126173872947 0.15703938154691663 1.0701936658607956 0.035642946014590234
Ni 8.598003894118243 3.5133796485244715 10.152602478189928 1.3963033919772339 0.18602985524199575 -0.1055584400588053
Ni 7.321840877342978 3.4394025873753717 4.750451777101673 1.683930902858074 2.483497191940452 -0.5153781429003899
Ni 5.610965164474286 5.811290349109785 5.423915457021759 -0.8354442339259095 -0.308087835617721 0.5212561989477216
Ni 5.839913600579156 7.55868019997042 13.805861241804502 0.2811205630002578 0.013072774023558132 -0.006395362003382534
Ni 6.5270689080071564 7.480644968609711 8.92005163971191 0.8381410640317823 1.494641145917884 -1.9534408782025974
Ni 0.21544468684749574 0.19139345260495094 7.3083183402605485 -2.556399793637449 1.9178619526567229 0.1778768871175582
Ni 1.0930944494516253 6.139795470174422 2.68340868895047 -0.749773791040283 1.9326727924173102 -1.3302710350375089
Ni 5.563610451426336 8.033326418215571 4.52649526611358 0.12867137192718486 -0.3760449203839846 -2.3403541087596533
Ni 4.527471293625122 0.6181044140079909 3.341185474341937 0.04225530912478529 1.5211173378315417 -1.3452842206168896
Ni 1.7681222158074363 0.49208789563379024 12.047798027530838 -0.8519203772040619 -3.270625255259477 -0.5245680369297739
Ni 6.7938184481201525 9.134997509804228 2.4556711281703123 -1.8116555946012733 0.3936533774943672 0.3486379891259415
Ni 3.2440937520292215 5.872331992709385 3.6906831717303707 -0.06865462505392048 -1.2990547573357047 3.148479857376268
Ni 3.5033281621207206 8.57202033206892 0.7938626386032197 0.44315919753397864 0.3993388579149187 -0.8557994005434938
Ni 0.13134192738568298 4.717585295343913 6.644877025615379 1.1866630964051499 -0.4676826365966398 -0.4268509472922584
Ni 8.07147509698719 -0.44239597714915435 9.535220456055253 0.5150801520439968 4.528402751112949 -1.9728431939886084
Ni 6.576931795699783 3.168670028350984 11.087062866191555 -0.29265401756115406 1.7223971772540723 1.5647008788494472
Ni 5.6429890122783855 6.254579687340244 10.465817127834578 -0.20068797147480275 -1.9644464852844814 2.5389620577769754
P 6.140086681462755 1.549366174794219 1.1082045577510955 -5.109507032566555 -0.6106573125203741 3.0868628558954194
P 4.3512790702711515 0.3185813918712521 5.405011147452687 -0.6506739621226277 -0.5413403712921064 0.749596127811838
P 2.1371902511630974 5.536245984235563 5.67344501608175 0.4468451310259982 -1.6011884322525198 -1.9263566203912954
P 2.123944834500211 5.674618315756356 13.02787713354545 1.2130192178011754 -0.0076780853705480665 0.6481884766966127
P 7.996549250672875 4.5126007300950866 2.7705898335473376 -0.18087813583772722 -1.0439339608333182 -0.6220071903155545
P 7.4614719931423705 5.497242459424 9.184649973856251 -0.12609101279451834 0.5852229316076695 0.1848633457377203
P 1.6702000716273455 4.635980377222995 9.87913629062022 1.3629569553063043 -0.16406029294944005 0.10552938659308277
P 8.987297023144254 7.654141139068471 3.5534136855402325 0.15699515857254254 0.25042030570292356 -0.09794257538476035
Ni 1.9184999675375682 0.9122015122692094 4.785373646920311 0.9232625763924746 -1.0871871150949985 -0.7965077047617121
Ni 7.956249365932604 1.3391679880929799 3.690146779325086 0.45739488151738644 0.3940547266978439 0.7322455523485324
Ni 3.0388649450546965 6.394746256153669 1.5898999679564096 0.8002931399460733 0.2902616060695775 -3.6132466058776935
Ni 2.293533137347792 8.959387709026924 7.341081488980512 1.1309251794128976 0.7713692578228715 -1.6450424533229926
Ni 4.114101566792742 4.343247275060678 6.690688318835165 -1.2612981074122211 1.5342996408497704 0.8608300209888657
Ni 8.333809498212556 7.855743895807623 1.52412473183452 0.6323563947603625 -1.2379347500959326 -0.9880911428320854
Ni 3.897355823060275 7.042954402245266 12.068297423446973 1.108774354347471 -0.5011460584614078 1.24338008948122
Ni 4.087319522178637 4.167909897746653 9.455283896799106 -0.9589715997583098 0.399601367547686 -1.943059534968273
Ni 0.7896926808325421 2.5493575571920375 3.0773292592872177 0.2623538239157159 0.6644836143122105 0.22000415530491144
Ni 7.018107503611696 5.682819201392314 1.158477020029892 -0.4636010103280983 -0.08830299541246728 -0.13626975309973305
Ni 2.0289723788535574 6.4292407029523355 7.526459080003256 -1.201467508407834 -2.3546846664497125 -0.4814647779823966
Ni 0.19436568652845257 5.814315188943437 8.93516174801138 -1.686853475821508 -1.1020308649760504 -0.1593279204707772
Ni 4.742826738303612 0.06853704640478947 7.543067517350762 -2.561662841808601 0.17274136566320575 1.9387290259137189
Ni 4.912828373302375 2.370732310493608 7.494698261749909 0.7216119838940863 0.4297341823773244 -0.216848126174433
Ni 6.308453775681843 8.6767906384811 6.492593249033545 1.8731077883694836 -0.5212513138517151 0.44533923590443303
Ni 0.26185531168649606 4.936388305919764 4.193138189228814 -0.40501945323946376 -1.4966602332304417 1.4509377914926624
Ni 3.5035911916714735 7.594536764085482 5.690040301951718 0.5548934273861927 -0.5066677596105854 0.42458811940001073
Ni 3.1746445567180728 9.231848747956255 9.476375109204435 0.07128949157360624 1.509653303056 2.2125160313670413
Ni 2.3815259159869817 1.036618247340084 1.7536771965148685 0.726833894414658 -0.23042200820412573 3.933770610376238
Ni 8.535741041890148 7.407391238725181 10.696744861308861 0.2788921878903713 -3.7873357438180455 3.2369088368436376
Ni 7.4564462499404955 0.4682085699904872 0.1460537337940138 1.8429975992476646 -1.5074064160033522 -1.2069323881771472
Ni 7.240461413122705 0.9853462727684285 11.56075560231523 0.17795119199891932 -1.7030609388193056 -1.1042499841145563
Ni 5.094919973723219 5.921358822187119 8.211665150581931 -0.8703531299879528 -0.09087486990470156 -1.2116043397315197
Ni 2.1744465082446633 3.429050495770761 13.01115878742138 -1.2488413697061074 0.43725697311693074 -1.2613585283365116
P 0.2479401090604438 1.2298698158428498 10.015786717974839 -0.7071893807108531 0.07628694478819764 -0.46354958826487264
P 3.428345952331246 7.4651356190278495 8.406377472482625 3.935243338267023 1.000453006831548 1.180226853861503
P 8.17005481504416 1.2607006367560365 6.040252876083446 -0.9954954057159566 -0.0613650333710427 -0.3896861653165031
P 2.121295751167634 7.766464151152253 11.359072057928344 -1.100400528461479 0.8376119310011898 -0.6661666584415883
P 9.600484663335681 7.5232839375691745 7.349358465307938 -1.5412537035701006 -0.906792346651593 -0.9486938719813854
P 4.826348014580011 7.485069501409868 2.3194875782682804 1.9267687682280494 -0.10104435423853567 -0.5614127165619492
P 5.7629962448091465 5.4125657319067955 12.700639251280688 0.900283598998798 1.7984874326504314 -2.240262091132058
P 6.388734152136472 4.036799060609131 6.6190841599903525 -0.8079012913106345 0.1345147180818393 0.45715782580591585
Ni 5.7552086913243725 2.9267485990465056 2.783693402131069 0.18008392207120597 -0.7693563411579009 -0.667741973348508
Ni 7.832484568391094 2.518940068430033 1.337271357153805 1.7228689746841683 3.2732205267904786 1.4756658903669617
Ni 3.679304325486573 2.407847658887271 0.720356212471716 2.5558914865424627 0.5602850307154092 -0.2091489577579624
Ni 8.029399762779338 5.700028849141538 12.493359753201547 -2.3077028983835355 0.6113854489356503 -0.15352956862144526
Ni 6.43994036932044 3.6324568837150735 9.05297644135837 -0.3609386608701655 0.3987166509498875 -4.005513130326863
Ni 4.098789489373945 3.6462847229546256 11.501332529844008 1.313241590359048 -0.18972992980140227 3.2807849694012985
Ni 6.033099411694235 2.3036785628768115 12.950030719826533 -1.4826034980270595 0.951196326688265 1.7573407832087928
Ni 2.190622825615933 2.4464096698100715 10.557302563151259 -1.3716804512222314 0.06884462957753949 -0.007369295880877631
Ni 1.1076362260432198 7.877265349406683 9.397799727873434 0.6703495861746842 1.425991663070286 0.1712300712250019
Ni 8.224755567688124 8.237409167861816 5.522949840445032 1.2047433509456282 0.08932989401508487 -0.24500453400399097
Ni 4.83874797911548 9.694799545105454 12.624318408956134 -0.3784951816966901 -0.5786331942052938 0.7517306576563376
Ni 9.248804760067255 1.6433428757130246 12.171373068039305 0.21282769216113026 1.0720610580868375 -0.23891153373237564
Ni 4.446843342406998 3.6719019224153997 4.6220501443368995 2.7909278535901483 0.25788550373171715 -1.2553737715079862
Ni 0.5861228388102625 4.85312066528159 11.628634135451884 0.22839726446461311 -0.1269443619337491 0.848535777002545
Ni 5.661654716469275 8.812391765806465 10.678871063943987 -0.35968036298303213 -0.7069870348920598 -0.6862914542159213
Ni 5.378127648583291 5.300233325910487 2.899954342346115 0.24471837022213982 0.8786858182233641 -0.07453473798378131
Ni 0.5673650742766089 7.0796470245752205 -0.11796029899115694 1.3916342686363388 2.3696405164285967 -0.8676434443662734
Ni 1.1732339172183517 7.46423380342527 5.061383706002294 -0.11843221069767991 -0.010120376263453539 0.10516557549576082
Ni 0.2536760320493505 9.645857260840463 2.5891868069147126 0.24886607384192622 -0.8710414143042289 -0.11939611727284599
Ni 6.144736668163556 1.712369344960464 5.149253424387382 -2.057971134107204 -2.233629159196573 1.4071961276303377
Ni 9.258499277794986 2.6095255669266386 8.01948166993347 -0.08397248635791346 -0.6187863693854118 -0.48493551013981645
Ni 2.145954771550667 3.764779535568562 7.992451626028655 -1.8599931053643965 1.3370235232699943 -1.8731931489944385
Ni 7.627199397941408 5.961940524303196 6.762773446001352 -0.3167732792068609 0.9338112984425982 0.9748512471030436
Ni 3.0803108871232463 8.189396880936986 3.2011936323015124 -1.648757697391051 0.5981476100891375 0.9101404371882196
P 3.3284604804330393 2.912009550291847 2.9549218821058405 -0.7194735973948447 -0.32773903418974526 -0.5712636412141001
P 8.85090680716663 3.4438553019131084 13.19426680917763 -0.3502109900400162 0.8124125489174265 -0.8099211499541407
P 3.160628839227983 2.203398546652476 8.716058132234668 2.118501073171461 -3.1404708710288625 -0.02433934807631292
P 8.104381972568815 8.080652949525941 12.97051696426513 -0.5335704975387005 -1.5238367936452335 -1.2336222387635076
P 1.1936844647893472 0.013332780049386327 0.5097662996181065 -0.832608050028695 -2.2955081560895563 -1.5189151879739002
P 5.7466038674497595 1.4955954194904162 10.05695084266758 -0.12162474949304858 -0.3490516796245924 -0.794871968930502
P 1.6126623574002676 1.9916879400344112 6.550627901233294 -0.9475502452952456 -0.2504424171901106 1.6779957683205617
P 3.265399145640162 1.710866318956165 12.385568364520726 2.71171679317662 1.734567236957703 0.24540794008999672
