# total energy = -340895.65144348284 ev
CRYSTAL
PRIMVEC
9.01838393488459 0.00000000000000 0.00000000000000
0.00000000000000 9.01838393488459 0.00000000000000
0.00000000000000 0.00000000000000 13.19931648092853
PRIMCOORD
 96 1
Ni 6.394836918887778 1.78444059438176 11.456202046389532 0.005406001506919722 1.166748873979726 -0.28499855789842526
Ni 4.553012346874319 0.45968056197612484 5.96598570274443 0.3953899005694997 -0.9662519354698069 0.06933262495755156
Ni 2.6300133001377892 1.487591465397796 4.884169212414391 -0.004954772902114047 0.13078456161544574 -0.4911359825235735
Ni 3.4873820522150916 4.570147276545893 4.994859054415952 0.31813390699981337 -1.0257171807149754 -0.02468259034834459
Ni 4.9317484029203325 4.334018927287566 2.659107508881718 0.8146306396146679 1.0557283823650851 -0.09773740135248975
Ni 7.53455323841647 6.290629491332495 2.4092450625724218 -0.12440488334134704 -1.3745310332971488 0.27938069749101563
Ni 5.083554861426441 4.5721132842661065 11.333078558315233 0.06720529420190362 -0.17795890530840316 -0.0036975034562452447
Ni 5.698500432187121 7.9428695941060425 12.361688386499825 -1.3556128562364074 0.13009113509284692 -0.23660216887290864
Ni 2.114017439038431 6.358159151006572 0.44542520232777894 -0.5112270968464937 0.5291271170553661 0.0028454398685950994
Ni 2.620958842563968 1.680828380172963 0.2874095864117343 0.8234186702199432 0.2659991339777871 1.544746032994075
Ni 0.5201993298993168 9.000906409405552 4.508015119718363 0.8519175489905845 0.7848451808221193 1.3920659568571188
Ni 8.622927897618704 2.5323622377778925 1.4145975668352944 0.3185313995485482 -0.6577786914882091 1.0805819510736552
Ni 6.884805723654419 0.7676944503987251 4.861519540903781 -0.5602899158114157 -0.7884570665430938 -0.4957570262353527
Ni 0.8926549833014958 7.558127294290942 2.63944111881077 -0.5808232598780771 -1.6343885731535723 -0.5041208248190155
Ni 7.503674291471485 3.7644899385405948 3.755008009563388 0.5315246707532653 0.37483573056723185 -0.46133509711205706
Ni 7.70188033585141 3.725530519497858 12.749114557404535 -0.8010207621407172 0.6113803067293276 -1.6345405253504044
Ni 7.819633376231274 8.55380198396996 7.0285434339620245 -0.215740494932551 1.6727864562054804 -0.07301238780198394
Ni 6.778055111800513 0.8137197733349768 0.4456948520105053 0.7136955572604871 -0.5081926808955441 0.18065650674522435
Ni 1.7640410096885495 6.648551117019564 9.195554701282614 -0.07130826062668363 -0.891658062113316 0.2797805040325956
Ni 0.13511072413716899 5.0583755331932645 1.271772516992302 0.4818489007946928 -1.0132421881764164 0.7222043660624465
Ni 6.37628610292229 1.9714638425549722 7.028794145038272 -0.1795938698086649 -0.12791546759776679 -0.2512464011486447
Ni 3.5232752206850204 4.282857634641861 0.42605641893007395 -0.0018270259064097566 0.10248879999454606 -0.2733375766207293
Ni 6.108683593372492 5.7069957499506065 4.708657931465265 -0.6054806534154411 -0.38584853673796776 0.4295390356473829
Ni 5.051232973035431 2.871507587898532 9.515361028672874 1.3430931265028416 -0.6465730525803768 -1.212786532965079
P 0.38845156116979523 5.434072393818583 12.36486917054991 -0.7321897594099326 1.0525600119394323 -0.40230359697019746
P 4.015507639845117 6.245997508730063 12.492440525631586 0.1028274142808874 -0.7114697532537618 0.5035089022666297
P 2.405356335375378 8.365822787088755 1.3976357901372438 1.199711702058992 0.42049723716008874 0.8679985137128471
P 6.259786617923662 7.806511627456463 5.6230670607424305 -0.060564648956934405 -0.5899722733671968 0.9020772005641109
P 4.595615193068276 1.0100590122191024 12.507857453143986 0.8166528122510193 0.9251230266399809 0.8802446780700518
P 3.9542006651570327 6.134367951111777 8.205130514790328 0.36434537255886923 0.7375790487463039 -0.09957111212711883
P 4.676176417676786 0.7561689555985821 3.6749013115103755 0.3959470586245503 1.0359208607208548 0.958646355208407
P 0.2446281762138327 5.442838263103199 3.6731192788245317 -0.794957843776089 0.906602085017658 -1.072114279922276
Ni 1.4738654848924615 1.1093514204738553 2.5648518681120045 -0.013711950269453804 0.26837071953375713 -0.4572372728935996
Ni 1.6939952208679623 6.502723847130431 4.854074864880684 0.7890437922844992 0.4920662076473267 0.41883784717979483
Ni 5.961467492341558 5.768879901217103 9.09469850523573 0.37140099385407005 -0.5247351586352575 0.809425955485277
Ni 8.457602881440128 2.2324468582211203 9.982511518147401 0.9122541410971128 0.20310455133609537 0.9952570644529053
Ni 2.280586992214206 5.142354725352054 7.1500697662232495 -0.8809509601084571 0.2102643023093282 -0.8013580908754779
Ni 0.6380524743419995 0.09743913033501153 8.939831207187236 -0.1884919436292431 -0.6929783793177936 1.4487487542611437
Ni 1.4564058933955313 1.1473999827287875 11.444057890444405 -0.7491394998903936 0.18338419008903256 -0.7765284334263077
Ni 4.317380008738064 6.891380125617881 1.5430788768663717 -0.9291493741905547 -0.406221701077681 0.42812492890867554
Ni 5.65789064886549 7.905704833486801 7.942596337069701 -1.3102195157032726 -0.17078089950272524 -0.4064312459853259
Ni 5.2481223333458535 2.780638350334963 4.7311894621449815 -0.7058066414307135 -0.007591953414644989 0.7254696670772797
Ni 0.7267203243619726 7.391711053643806 6.90223916183764 0.7275908271853404 -0.7126689157681855 0.26762124296224227
Ni 5.126193781156548 4.48665507712514 7.08865366908831 -0.4825155878444142 -0.052918188155270156 0.024357345798441923
Ni 8.304119003503011 7.0698990376435695 9.403457312179842 -0.3798498959523716 0.34368784420951776 -0.7569176011739157
Ni 4.569804577952462 0.39805163097789553 10.300984026538487 -0.3924354459268661 -0.7525598384258523 0.723908750348063
Ni 8.261011127802947 7.188102997225318 4.691432817953315 -1.0975908269268257 -0.8258069679464616 0.2558389056153336
Ni 7.336906333846882 6.189470277581943 6.911135797690802 -0.7378436152616002 -0.5431437430494324 0.2935780720373202
Ni 2.2794957677456478 5.4019489098764 2.8047625276357313 0.48979720910749197 -0.7704673148338924 -1.2446635841793339
Ni 2.3825668789121845 5.360626674215794 11.34980224967469 -0.23971911723533554 -1.219360586638171 -0.4253931317998093
Ni 0.9674020557209208 3.3165107298533476 3.7043751942222904 0.31132845404220577 -0.07923394323166355 -0.024199222954022843
Ni 3.4945516675250397 2.5178246027091675 2.9163496988490407 -0.026972671934101935 0.22626016351695227 -0.754764816496971
Ni 0.9892986921643848 3.2176782591845163 8.125710115762583 0.09039484494448949 -0.04415175481654977 -0.2301512710412423
Ni 3.471843376518185 2.56701988763466 7.077487105972867 0.27488255251034593 0.6117852554772303 -0.28069221721358756
Ni 3.859444504073228 6.782420009674746 6.034305372860207 1.2650316063127245 0.42798583222765 0.04740728563936997
Ni 0.8586890435004173 7.380888992798601 11.446196149299736 0.26730422594245573 0.2194868493488607 -0.18424653808932787
P 0.0838980267024492 5.445651998922952 7.9757001193567785 1.2712025110101268 0.9572484464196159 0.7264646840006972
P 8.33161605643387 1.5164412759343042 7.944285480399956 0.4030258198482026 0.23492760938396315 -0.7363341205956093
P 1.788985859936746 3.2012648002359554 10.395293777612427 -0.9933176813383473 0.40481350787624476 -0.4277690882311536
P 4.08955759117843 6.22200860718986 3.7679033968988533 0.4822607915211307 -0.03343025463398759 -0.502245976393806
P 6.9447869958889665 3.782878423593405 10.227727693000489 -0.907178012125786 1.1047829737998909 0.9459476766948162
P 6.3777290443683174 7.6996167214579545 10.38862738813178 0.37920377772794045 -0.4509092737930428 -2.0412684766405427
P 2.482725052034554 8.455240064822256 5.802128879487186 -1.0218479275675563 -0.03992666099160866 -0.07310469040547408
P 6.925406488592012 4.0933272757061765 1.5369544922663898 -0.4019181886063207 -0.0463644461971524 0.9339863905678817
Ni 5.323371729756177 2.7096456311904205 0.67192552478749 -0.6613597239712481 0.4550590342953582 -0.8007058020034598
Ni 1.3667541376770482 0.8966248759548784 6.876910128429439 -0.3253293963069881 0.9963333282362197 0.10808943401077514
Ni 6.711003426480432 0.5854464365734596 9.294061608287686 0.792698615428267 0.3315967173729386 -0.666246362639588
Ni 2.6955498969395415 1.6279716313281762 9.171307873958934 0.04149966190568336 -0.8389224222824971 -0.14853648628222804
Ni 6.2560439885480275 1.9326577360408757 2.716511326958299 0.8118150245427437 -0.3261907158660189 -0.5427565349133426
Ni 4.073964805177297 6.949196985683387 10.41034095137928 0.47242323660541863 0.11921228339681404 -0.5239787400852073
Ni 8.300466557967756 7.253540391802655 0.15545349301094247 -0.6270488665045201 -0.804097344183512 0.2087851466606404
Ni 7.566685740742691 3.8619425964516627 8.066247400610202 -0.12192274034944163 -0.022772003589193037 -0.1472159676985916
Ni 3.027390355989667 8.510297299372235 12.519934873047232 0.7703274468219184 -1.2241065859635885 -0.7631188448886213
Ni 0.09097926184882812 4.776794528385077 10.168951276873374 0.11773158508622951 -0.7246348298808101 0.045699558919643876
Ni 8.620411768472193 2.254911652858958 5.748672408103894 0.3517418248622458 0.81045979606643 0.2665480645027216
Ni 3.5979203853648194 2.5428416000296656 11.35132004370823 0.24990119997465993 0.9618368371212467 0.6864866009458629
Ni 1.1132203072260158 3.374453847295381 12.631204597142416 0.2460751413603504 0.05447190579563522 -0.32604107766203205
Ni 2.9290268412907947 8.269371169805867 7.989215971514034 1.5211093674117415 0.42473904315557826 -0.05313004705576011
Ni 5.912470611864893 7.632510925833647 3.3455382025553977 -1.435070999663735 1.6161825916685069 0.4943395770625358
Ni 2.996998401782717 8.296723928592122 3.6265122701178503 1.1778010180288299 -0.29153301658283337 -0.28754009337335645
Ni 3.3080514856260126 4.304014763594235 9.145014775297104 -0.3556481018951875 -0.09936285277105468 0.596260934589386
Ni 7.306568489944158 5.950275677750808 11.415890771579546 -0.04425177072952379 -0.5361541991054766 0.15174162348308706
Ni 0.6910760632914835 -0.0015989594898789899 0.40621417037039115 -0.7723416490384698 0.8431863397651738 -0.5644563884842795
Ni 4.613633924375541 0.2503097581575652 1.5348955951905894 -0.7244036877066106 0.4590465581881965 -0.30366168152556733
Ni 5.860362388895232 5.554684261938388 0.3126637672324232 0.8286698913165536 0.059512296433020084 -0.029277923028510865
Ni 8.074736405504861 8.956247371651008 11.33471539501807 -0.045367886611838 -0.5817498854574046 -0.28632833245344236
Ni 0.061327716971371085 4.837984264080672 5.793589371641916 -0.372518652398281 -0.9921779113069492 0.05846868565985414
Ni 7.966200153611497 8.796531790343861 2.441794214241182 -0.4057439901103141 0.5894367125787009 -0.20991128984528365
P 8.47590118265256 1.591618525272326 3.533668006450032 -0.3510296292865696 0.6539534042048479 -0.08518064773340168
P 1.9023830208264156 3.47116699771536 1.644436495065751 -0.06484656416173994 -0.8498822637281105 -0.5202233868078331
P 4.752021027433596 1.0315678581489467 8.171208765071034 -0.3945321805548947 0.08061205452611278 -0.06822190839187606
P 8.502270937578709 1.6460534913237055 12.532883468848521 0.37285495269177726 0.3679166348498954 -0.24248613845751144
P 6.392789745711227 7.760599034320683 1.1379965136927084 0.6917136536727571 -0.42249061344103367 1.6323784847020792
P 1.8302269301410137 3.333609585988771 5.788678861533404 -0.47062166462030564 -0.5494370322573118 0.9009870528237258
P 6.7898782132739 3.8761285145429185 5.8492769912361275 0.47266672007479243 0.3568040698765016 0.42128373761712606
P 2.48622418504117 8.550095428130476 10.265174729040108 -1.267337885848398 0.16509079109648345 -0.3983500116390881
