# total energy = -340861.13411652454 ev
CRYSTAL
PRIMVEC
9.35348042906773 0.00000000000000 0.00000000000000

0.00000000000000 9.35348042906773 0.00000000000000

0.00000000000000 0.00000000000000 13.68976407223377

PRIMCOORD
 96 1
Ni 6.612573785365794 3.2348824247361803 13.4838423850731 -1.1059613103787083 1.2340986641792941 -0.044605040303884465
Ni 6.698981235574304 8.671069003701852 8.654285118807486 0.19150399098268953 1.2055031119297885 -0.8876265723564197
Ni 8.736908150921781 4.9540988553028855 7.552588257952938 0.5370522854397137 1.0476312071792473 -0.3442786837159813
Ni 2.7522521992210343 6.689637108841429 12.252681198545131 -0.543664905660225 1.089925339961768 0.8502933831236001
Ni 6.538082668948757 1.7650671905712636 5.658389725603841 -0.25555608426759213 -0.3405336148512523 -0.02560664482451074
Ni 8.830255883448404 4.7801054163790155 4.704747232346226 -0.45687037647248413 1.6645542981036752 -0.7932979395751628
Ni 6.679853368538538 8.654055023194244 4.529272202156603 0.29046215211615783 -0.15929166791620308 -0.7947580690604571
Ni 4.934690383860726 3.789225783045074 1.6143657880740268 -1.1533156312929558 0.6406358611603354 -0.3926210795751109
Ni 1.7274287861937963 0.6059109654196929 2.85046935354659 -1.5140354912840956 -1.5426521265795239 1.4270465866973618
Ni 5.314890647562342 2.5809057951974688 3.7132802004549035 1.3070670861172198 -1.5914220968943753 -0.40308418388996387
Ni 2.902768402810052 6.180817138729634 9.954032569693966 -0.6198155819808744 1.1232249825551623 -0.5600492605555193
Ni 3.566248168245261 2.069784868953256 10.612277192253911 -1.5597599899044041 -0.10723248532711857 0.18872591401692013
Ni 1.2107518927030085 3.399036002475881 4.2769966812853335 1.7219690885777181 -0.5095579366741869 2.6033026288365746
Ni 3.6423667902193744 0.48279391141887495 1.0482117903000658 0.810433570814185 0.4135933109514038 1.1238307344599614
Ni 0.10462709431558499 3.1138296838183908 13.326697370057065 -0.4699783746093519 1.286286916147075 -0.4504300201637791
Ni 4.551497006490923 4.954052087901819 12.905572824379124 0.5532571773343504 0.6798269295375001 0.29291447031139234
Ni 7.6846603339097665 1.5590287284373534 12.506817126630786 0.5359855347380963 -0.46242935861750034 -1.4734215744174755
Ni 6.82078225490914 3.520528356963686 7.710841660374223 -0.4228847635556588 -0.45403136436179226 -0.06035407560802509
Ni 7.412605008431879 5.145779725309705 12.279033693697487 -0.16145910788116707 -0.14955901400947144 -0.5692394116952196
Ni 5.419995704716815 2.6700538151084143 9.474821976544726 0.5461107960975563 0.5089544987622331 0.10864864894835483
Ni 4.336320194188825 8.028064006453093 10.507072052861156 1.6987792807248163 -1.1187252949125959 1.6870864177679203
Ni 6.306948819403132 6.361451548604798 3.2781778139465234 -1.0473815530622865 1.0429070622307008 1.1898921448654087
Ni 0.9624918208872175 9.092078501573171 12.631709471176046 -2.7262772074892982 -3.1089342338731623 0.4616803962666178
Ni 7.429684463300979 0.5978220757314141 2.5047890439193985 1.3425663074650944 0.6541377523015123 0.9885984214858071
P 3.2833053917993382 3.5950943012224257 4.730703139937546 -1.237153648955534 -2.3239754102913137 -2.7453643060277364
P 2.821355711035331 4.408725484518342 11.748541709931969 -0.1114246690315952 0.0461934678369269 -1.2069215895438699
P 5.310008130891109 7.45582744049656 5.632146666169978 0.9627963728210386 0.11983217636900008 -2.406859034460423
P 0.4121498814134825 1.7210497126884698 11.037331134969369 0.8933611608473518 1.1635123693202993 0.569151994187736
P 1.3597528324975061 5.900455922822525 5.542560903385062 -0.5293240635575206 -1.6869164678489592 1.5370041842651272
P 2.2628407005513993 8.311521224310736 0.480156229998784 1.5230065844344545 -1.002478521902009 -0.7437355552660031
P 0.8742426704247502 7.282713228712722 10.866551551846717 -0.6453672051977337 -0.4818938951000152 0.2641253139938419
P 8.173351614602995 4.7795067936453774 0.7163727606922025 1.5027419206481474 -0.9371167086667473 -0.06541349240880348
Ni 0.20340358675788323 3.0619365755961763 8.78109399144841 -0.12816023661872122 -1.0174616255744025 0.9952352100760343
Ni 7.858981144641095 2.5989580120087292 1.5840427405712156 1.450655227255237 -0.8240380489714969 -1.242052628919048
Ni 5.152738714588242 5.076975524862227 10.325449915475492 0.6478879147370583 0.4914555706465213 2.1043096121624276
Ni 3.8681878630039663 4.323225321890502 6.419828489310724 1.401369750756548 2.036116500125958 3.0184252319483114
Ni 4.249547958252005 2.555277259413607 13.2991943968385 0.15838561116216593 -0.5598739113199197 -1.0828820599617415
Ni 6.95261955851262 4.302844088506182 2.6221920568580406 0.4559064698973181 0.4501348575208634 0.792576488028106
Ni 8.590067865056508 3.4753416940542556 11.074047286197825 -0.37926882663792105 0.652965843480598 -0.5296693627120813
Ni 4.417190384111187 6.999368252617636 7.319848415854724 -1.2915342805889434 -0.7818549878455439 2.5108010219617274
Ni 7.304506837609217 7.811390637316901 1.8323608039643278 0.4934833997098276 0.41726098961097813 0.18707012358105204
Ni 0.4473816353321224 6.04281589166573 1.5026842989817304 -0.7675928214995748 0.7599106223639687 -0.24214598150927327
Ni 8.963795520450665 9.291186034869183 10.590318962105664 -0.55127279991447 -3.3135331103665964 -0.36778216615456016
Ni 2.9785315925360676 5.559072602005226 2.645067863415191 -0.19100211164560654 -1.7201896280797921 -0.24126692133842964
Ni 8.08050897000788 7.341518558812408 13.410657014493811 0.964712873117461 0.6512974546392396 -1.2813038611101868
Ni 6.536539344713598 6.1555908025949355 8.305223526083264 -0.1500297829983029 0.05101248649212505 -0.7914048363175079
Ni 4.614258858720746 0.46877210923143414 4.669208684276597 0.7380577881549354 -0.9509106771270462 -2.193710982845396
Ni 2.130011928045332 9.017278720309104 10.420387739638338 -0.008952324097281356 1.0368971085911949 2.0868299673204254
Ni 0.4883929046744296 5.438515595538731 12.070059174124689 0.513353142050561 0.1581508694435405 1.2457707012005836
Ni 2.053388218139712 4.87703553182725 13.892372469644117 0.6644021103419977 -0.5910732197408595 0.1957527389567145
Ni 9.17814922649401 7.340873168677705 8.314053211404419 0.17212532934576164 0.03945846310593849 0.017062354798925452
Ni 3.680472868607496 9.457771517464288 12.381077356778219 2.9562497868608313 -2.1843943334301605 -0.35756820173603576
Ni 8.846708655143225 2.961835630355705 6.181613119895769 -0.4723527883787994 -0.17802678243186112 -0.34891798226020554
Ni 4.320802770515312 9.16394129005033 8.650780369771642 1.0095369714106872 2.573761424844348 -1.5385812989442598
Ni 6.161923108699197 0.016041218565446522 0.3294015126643325 0.012827747892287586 1.4400530262593587 0.5703010201905147
Ni 2.639991729703548 4.024306801240624 9.300606860139805 0.25332102428948633 -0.7929043036811699 0.16562969431908894
P 2.8356758892415694 3.047363853424185 1.149199445464738 0.20494648964084058 0.3464003580446744 0.6583769871938403
P 5.399614471332496 0.21077506451381814 2.708259975734816 -0.8259545492679194 0.30314926066552306 -0.8591644603609847
P 8.963271725558732 2.2889275568657026 3.4260554007674293 -0.3178518569830203 -0.8213682154488177 -0.004869669387475485
P 8.411706350873125 6.917674956436522 3.427533250641097 0.8434902441588376 -0.04167861068570887 0.19539458428634737
P 7.281955596815462 4.565012785398836 9.586147098040902 1.0308082220846377 -0.638247563433817 0.6483201171784705
P 4.65240235102972 5.030152002915506 8.35134460166598 -1.1679331240958144 -0.38880684803534327 -0.774015437196467
P 6.82538416717398 3.725958842883745 4.793798911410977 0.7724210961261536 -0.23593599604381946 -0.09768417951705112
P 2.4068281749516816 8.400865667306155 8.54227532255971 -0.4100732136132873 -2.8831366118149244 -2.9437136020670334
Ni 7.934669506525405 1.3658513015964395 7.553271997356515 -0.0854668115152528 -1.657496105705313 -0.19871310713661905
Ni 8.010002436161619 6.919096685428912 5.620592312062751 1.7764024278259343 2.097455822465388 0.25457135175681966
Ni 3.213060755399045 2.045437759958587 3.132054004665572 0.665396355934467 1.7449035858867044 -0.24787259958040536
Ni 8.711064485093017 0.7882486440416585 5.02444450928948 0.5582029513753999 -0.7037885825594202 -0.33787740817532774
Ni 6.696072303228034 8.809107664686609 11.679695418823531 0.11610510522640002 2.0411108680167556 -0.4752077413290913
Ni 0.7865070260259815 0.5444296046310418 8.4279112553423 -0.2520035910296434 0.054032761375687584 -0.4655154537419918
Ni 3.8444954976242136 1.7536278842706565 6.201477105824305 0.2796668612728667 2.1845043766454637 1.9044965870934105
Ni 6.718501948779019 5.290515478127033 6.140009775255972 -2.309407796889784 -0.03373055948322578 -0.3557162361289616
Ni 1.8398108509540527 5.971879097729667 7.64712949455475 0.3563926933706959 0.9477027117127097 0.275336609328629
Ni 2.122847162202106 1.4413900077973412 12.532650503631313 -0.7661694587894868 5.417550388099586 -1.5666135224911277
Ni 1.6556127651177037 1.5355421396222886 5.905545151406467 -1.3481093487705105 -1.1670355519822095 0.06936399241611925
Ni 4.950217161014453 4.739829330581457 4.166082177570511 -0.4602871154635169 1.8069864712603783 0.1986344313798837
Ni 1.372866411756256 6.794779579916755 3.682874842326217 -3.0911853945301733 1.0544397454606487 -1.4780179355389063
Ni 0.311207122953833 5.3480674418781655 9.804061674001371 -0.19825339389138114 0.3982803347434173 -0.9622911510498461
Ni 1.3145381091474369 1.587463308285142 0.8975403189395107 -1.1670718045367836 -0.3645065807270819 0.5924089078331474
Ni 0.47492295781956106 8.559416510398215 1.5111033665215314 -1.2404981399477346 -0.841967636866724 0.15503803484617168
Ni 4.750436177143099 7.589572854063512 13.667832823648716 -0.8717127293396407 -0.39767818238304414 -0.9607646871029905
Ni 7.666682944940211 1.6081344995560671 9.790741382829912 -0.8882737190221154 0.29397145082099696 0.6132795806345696
Ni 3.243319263888386 6.8404526237972645 4.831760946203817 1.918516041300954 -0.4650832513005796 0.9312893033516928
Ni 7.50588726659701 7.155487190854294 10.02970970740202 1.3166274761121455 -0.96975300664453 2.5412230858970104
Ni 0.7416533470121377 3.7726981835085476 2.217276157041361 0.19862106164344503 0.2790850206274677 -2.8721286907401953
Ni 1.5671756097029534 3.7066439062437175 7.0757048106807146 0.6918036422834022 -0.05558725034700104 -1.2693027228842526
Ni 6.423044215807984 5.960879404999075 0.6817807848201378 -0.27365639341272874 -0.9531693912542358 -0.4986636583591864
Ni 3.3599571621455975 8.801260094787828 6.154849071614038 -1.7540135186077728 -0.28104008747130954 1.2369693008588696
P 1.5979298526435877 8.777137469318275 4.573805056799139 0.6837753726622869 0.6800948384869061 1.115078699298944
P 6.249032069923689 6.880167500782038 11.843726465972441 -1.6933251995887806 -1.9553532647339618 0.8856954167719778
P 5.364763404058529 1.0962746483750203 11.202059951742175 0.5098315020505477 0.31127240399328976 0.041508917877064
P 8.371636041640254 0.37961754188433994 0.40775935780145883 0.04951533312130828 -0.6395097179756922 0.5317794670765487
P 8.916541738414143 8.809341501691938 6.839871772676032 -1.2497420271435058 0.805812784212722 -0.4506601338967142
P 2.492000965772064 1.9863892393733602 8.345306930188432 -0.28096938213437417 0.7462094707277922 -0.3546191464100409
P 5.496151740611781 1.6354373082980722 7.586210277926906 1.3002145819717605 -1.0673633955008521 0.5686112911929175
P 4.626867350047989 6.25100565424865 1.6386511640992893 -0.4297524372097696 -0.7390103818761918 0.7589215189778221
