# total energy = -381168.9991428049 ev
CRYSTAL
PRIMVEC
9.27061241459091 0.00000000000000 0.00000000000000

0.00000000000000 9.27061241459091 0.00000000000000

0.00000000000000 0.00000000000000 13.56847835661544

PRIMCOORD
 96 1
Ni 5.366099143163231 1.9132503882282008 9.105100174180423 1.9663344463358134 1.9365001365832002 1.348410167840381
Ni 8.672824509853132 7.518596218388133 10.43196116924945 -0.4075329636899369 -1.6312963073814937 -0.5384854183418145
Ni 4.53435836492593 8.785981601397355 6.080794735132924 -0.7256241903772729 0.7495647603532704 -0.5220923216957718
Ni 6.743628668777475 8.928090814594258 4.759103033382353 -0.696726019285684 1.0062552153356217 0.4482929192161183
Ni 7.358789406652979 2.8856356229473463 7.574738118329363 -0.2912378539399178 2.1672507317713383 -2.788984099600216
Ni 5.943676819501762 1.5447435564337704 11.564468416515851 -1.337221241103097 -0.6669665286350643 -0.9910314564073319
Ni 1.9590842945525195 5.732195615806301 6.649191724288411 -0.8386372869419106 0.4384965019509867 1.3689301421706037
Ni 2.576293837706678 7.715633808399676 12.960094176989534 -0.7486543327238591 -0.4021364752647139 0.8512896855985984
Ni 6.779162925035791 3.7314213785473784 11.826475383329871 1.6083152731052883 0.3247483269925375 -0.41188969799673575
Ni 4.409390513540045 6.305564434242073 7.165716857445422 0.1730882074796632 0.08478649761877655 0.024159113744706782
Ni 8.872291000240278 1.5863686048553298 6.2454074321914055 0.6398750717349109 -0.3654362916302029 -0.6504464194928539
Ni 8.82029213685575 2.498429966505636 1.4542151020147567 0.6125858970016548 0.4861292733376015 -0.6248240909390594
Ni 0.32625601705472945 0.2170083426417708 9.635776896739554 0.37075718962248405 0.1843619806212696 0.9372594048921987
Ni 3.6999661916221327 7.307893746110804 1.6357754050909334 -0.24045111030535365 0.11307300326829559 1.0212190357343056
Ni 7.224541672534357 0.26959310871232095 10.020266263829923 -1.580710366903826 -1.838643693154343 -1.2276770769236662
Ni 2.947414982119122 5.731185119085155 9.2393599600948 0.05607961660238729 -0.3774322876498145 0.06831446810568235
Ni 6.941945603261663 5.664010263659181 10.111718071216151 -0.6933427046357479 0.5387615548213367 0.032726543698743636
Ni 6.443733637287713 7.025965160910793 6.216506298905389 0.17599946758918722 0.1245871745554822 -1.5806538026342778
Ni 7.712305658648375 1.0806474430636825 2.9668424768790818 -0.38042299484702224 0.09019404178759305 0.8921383441838442
Ni 3.4002194899263007 0.24198707993955476 3.3151588425360257 -0.09614357450280861 0.15462691545068208 -0.9226989905795207
Ni 3.7283620765475756 4.563264133518007 5.696115320494082 0.4621262255547848 -2.0463407489571273 -2.19363436397119
Ni 0.8789291209924416 5.954708847925294 0.725066625749025 -0.39487799393008766 1.8674266788243066 -0.6272373283662424
Ni 6.227737645489515 2.7935135503047985 1.7272670761092788 -2.040318196912131 -1.5140048951564764 1.6622518752227438
Ni 8.946474438429435 8.691894158985239 4.552590877783542 1.121158844054753 1.0958671593674998 -0.515870509155776
P 3.3176739596043485 6.49043898115137 5.154040380332656 -0.07763523128597596 2.778920287606311 -0.24684981474284584
Ni 5.040376186305437 2.8770603067357774 13.253770481868788 -1.0799029227287593 -0.7346837294763798 -0.4233321355057226
P 2.019862427615269 7.382689044699923 10.529790230713447 -0.3786831293377801 1.2729295210035625 -0.5046679555717374
Ni 6.358119534353838 0.9897861736695388 6.966518287748564 -0.8363850005726242 -0.8435753476734763 -1.785773070407557
P 3.2803319339825125 0.11063548504741469 1.0122572103886966 1.001533127269604 0.7007783349781866 -0.47727259427792
P 5.397535788864235 3.7570082680002748 4.248942175446144 -0.6113983044514567 0.40005285326280776 -1.3891649811602398
P 3.690436002362141 2.006744511464599 11.330629277569102 2.7893857059140093 0.017252873543176738 -0.15365606689698053
Ni 8.225007591366845 5.9171906806731664 12.343121961505663 0.4535652233586511 -1.7253652587434607 -2.1290973606300683
Ni 1.2401668658230982 0.4240359442744879 7.581020812163503 0.8019139633789479 -0.6803077258286606 -1.3121308737933723
Ni 7.828132686483334 2.6493091787686387 9.563076756489695 -0.4580250589022177 -0.03550719176767433 4.2607843363641855
Ni 5.25763298135204 1.4229184425567738 3.7376948017693983 0.9480503248601158 0.5184889206152297 -0.5231855547599507
Ni 0.5795893991687044 4.767736754450282 3.0020939794677184 0.6200271837710483 0.22308819354687387 -2.081400568774738
Ni 1.6318409573069446 1.7252516450342572 2.1885273092316706 0.8482922935331713 -0.38393049377964844 -0.3198400910576427
Ni 3.2514539772267983 8.180156369927312 8.100977925927566 -1.1723484795546906 -0.32864200561998885 0.15023701391310257
Ni 7.05758721885421 2.680300835087853 5.123809841268544 -0.3834489261575396 -1.7859239941631242 -1.0269991327511927
Ni 4.045926894739229 3.7074475756034686 7.749446511987194 0.6250238656546914 0.6869540275005847 2.0251324903106283
Ni 9.103768914279902 4.831648354409799 7.758102482524211 -0.4456377409814583 -0.2765254874304076 0.07078478402304585
Ni 7.601753609110046 6.829539431299211 8.124465021735142 0.49119588922723145 0.2131454805118652 1.5607290386858925
Ni 4.593430705358486 8.99916859772301 12.654926021325567 0.15237462908139565 0.5482687229808235 -0.0979294627586378
Ni 4.175233392597561 0.1800454850556683 9.985829648046689 0.9957085501680272 -2.2394030855658724 1.3492342064035732
Ni 3.232866399924966 5.443434589473398 3.329025824146041 -0.03305333091054308 -0.6320362924167825 -0.7533859338715735
Ni 3.6564406677158474 3.1725981505288505 1.5348935310556173 -0.6327649430526909 0.6145587044573093 0.04739494434419579
Ni 8.253690865268027 1.3577089569003706 11.597371673054335 1.9403426502577423 0.043726494353673075 1.3904474474170891
Ni 7.633375667053462 4.100363929111477 2.8904118423118867 0.21182701881075774 -0.12098043104083035 2.342392736456237
Ni 2.342312858394486 0.2868586967257536 11.525051627901421 -0.9900611220742626 -0.48031189532487595 -0.6885090306925303
Ni 6.12646547868392 4.626693661647251 6.146723620289887 -0.47218181001857396 0.14206913339032953 0.9604312150229718
Ni 7.397809413068646 4.342864600962515 0.6793587997495467 2.092000198667455 1.097654590285226 -1.2889248679905543
Ni 0.14963231493278 8.22553601625772 12.422416288156915 1.0783852005326524 -0.6294109389787934 0.48057877583301756
Ni 5.453901110557572 5.277129078641692 2.0594776073290793 -0.24066554030900486 -0.2189731429372358 0.07113188294981942
Ni 4.63316454890744 2.3097451980147667 5.8381494417328055 0.022634192459748115 -0.7883495944309519 0.1946106549324713
Ni 1.072869399494487 7.116177487456494 8.395061210678914 -0.7333866079315111 0.8929333292813139 0.9073947561222824
Ni 1.3655055416938076 4.27070215621565 4.999807987665627 0.622845884166766 -1.5749369547551586 0.34067965351081325
P 8.071365736691899 0.5285880536483553 8.017803848103837 1.7518051981025442 0.19058585004379436 0.5372111796150814
Ni 4.069956321355861 6.844891564970949 11.310913466772194 0.10089574447581334 -0.33928945803150595 0.0024628597181957585
P 1.801437535441468 4.085206478294273 8.152294472260015 1.107808905110408 -0.11182807511760094 0.5666024882930049
Ni 2.8657872423971105 2.047813323158922 9.468735299305472 -0.6808965084525951 0.7501699980374371 -2.740136996190526
P 4.196926624959799 0.8538725105528443 7.872417473522297 -1.7855802376704601 -0.37997073780095203 -2.485510622826055
P 9.212411217721385 7.281908220336722 2.3722179989731647 -1.0771281881970998 -0.6934424634384058 1.1820541368782287
P 5.704170555365684 7.718748734072202 10.19003527534989 1.1287700807431076 -0.24745685219922542 0.10409316836718849
Ni 4.8818394484308065 4.535619168174334 10.63901658271853 -0.8929865511167524 -0.01473344955543269 0.15596157510170558
Ni 2.005520790664678 7.721381587914456 3.598047863151732 -0.27602489364490523 -1.401693452644554 0.08930392587315587
Ni 0.5481573887737606 2.405779468972214 8.601736529051049 0.45831302245628164 0.6500826083955321 -1.0911350439991532
Ni 8.41257061579112 4.375932874396747 5.522709447839198 0.23093082951974422 0.4954685484606563 0.14538302825491092
Ni 7.18036720577963 8.032030529464132 12.479689202776862 -1.7439497066138674 2.388774666154886 -2.6199122123687975
Ni 9.065462744997523 3.498877344113881 12.629783194193248 1.1203993401809091 0.1420570492054715 0.4360696376770489
Ni 7.805568016581757 6.877375789841583 0.6254297949215075 0.7639171724202004 -1.2178883729680186 3.5915074144283894
Ni 8.989814550093309 6.4248215885616595 4.538926922578969 0.738532928019141 0.02327645402943733 -0.672946400367583
Ni 5.5529205186178565 7.1295827925829025 0.3028718250416912 -0.671862680385101 -0.9864412659334882 -0.27342293724568395
Ni 6.51079724536824 7.645306944852694 2.724822022735893 1.8347189041786403 0.9906046532825585 -2.614486413367536
Ni 5.674866150452421 8.223932200360855 8.049146860622423 0.1957833350843338 0.343356429012028 1.7923581798242423
Ni 1.4100508329333608 8.527164652214037 1.544078853544722 -0.2654532887766461 -0.778740353475962 0.13026185634275628
Ni 9.084059592911476 4.815619466053256 10.133495666148686 0.4374750026650079 -0.7748127362867817 0.5753504096889639
Ni 1.8485971392990346 0.9743598751008361 4.998166162259067 -0.8476032378859467 -0.09073423056177922 -0.6975569998274116
Ni 4.8809401990551065 7.665720832742286 4.112239583237985 -1.8402717156760693 -0.9223814593391018 0.24598206742591186
Ni 2.6616576341132974 4.175483699124818 11.225880631218278 0.3879712395079254 -0.9869770838323002 -0.6904332442984367
Ni 2.955563850173142 2.898475420734397 3.721616779168616 0.9004836308247459 0.019814977843398134 1.4928951097610546
Ni 1.060048142931677 0.6919056461935865 13.536890340726298 -0.5162127229865433 2.395493987156591 -0.7784688449821303
Ni 6.7604919122248734 5.9467453921136855 4.071696415250901 -0.7329685465574861 -1.30954228713059 1.0754757401953412
Ni 5.554978594508633 0.13804961214928416 1.3464349655004912 -0.07156254272933482 0.6803414072800735 0.2850175840618188
Ni 2.3968889519485446 2.5054849023294232 6.638377555249714 -1.048340060320814 -0.2889230897638121 0.4421803785604772
Ni 7.179634827422101 1.6389237049670942 0.03306641931180817 -0.24080052322497236 -0.21147323501576482 -0.5662078239577475
Ni 1.3060345649400649 5.7942809051780575 11.72994884286882 -0.6967465881109742 1.0579912102573328 0.9866580099299846
Ni 8.201497319028967 9.064989943779374 1.0102575393542799 0.535707341376045 0.33162988460371917 0.3774189179133758
Ni 1.0464574255628558 2.2984350512276173 10.890630266284129 -0.7948817391225149 0.44877654372075615 0.4850944043151839
P 5.916838397412583 4.00853851605679 8.85408351803539 1.1877840973834706 0.9298525709051663 -0.35437283472718967
Ni 3.415970259919225 5.500764054827278 13.52363429245503 0.3135167199427762 -1.1790909404848466 0.06349724922269709
P 1.6118071645142962 4.077882694718987 0.875843861278701 0.8710262447955773 -2.045208435124897 -0.08707426521168875
Ni 1.7578934703109415 8.000121082544975 5.8182992070601465 -0.25133073333233485 -0.030524908061734524 1.6646214038961846
P 0.23495624770728066 2.5601629726168085 3.634764122455426 -0.4908043102157676 -0.026937190710476188 1.075469055327122
P 9.05349438474981 6.737250487638493 6.643126889839105 0.5217459940999465 0.10829563648431027 -0.769864391142571
P 5.695891898741975 4.857402114880866 13.26979473491927 -1.9708783569527544 2.295376772718015 -0.13229996981870765
Ni 2.5099162549230774 2.4960845016391207 12.854680827749663 -1.5552495036285603 0.6038112361328182 3.061587112047766
