# total energy = -340862.66548545175 ev
CRYSTAL
PRIMVEC
9.35271321200319 0.00000000000000 0.00000000000000

0.00000000000000 9.35271321200319 0.00000000000000

0.00000000000000 0.00000000000000 13.68864117250777

PRIMCOORD
 96 1
Ni 1.662472777204435 2.0614501570673007 13.720946103054281 0.1215905538210035 5.20794145998607 0.45064779260154003
Ni 2.324990901336408 9.198729840849612 6.283579014050846 -1.5721210825729184 -0.45636644025287215 -0.3227276970180829
Ni 1.272193420344276 5.031768896214203 13.096183010381802 0.2696575566659808 -0.4551060854832098 0.14028890156145518
Ni 6.292458479683932 3.9495945439838973 1.8113492612443118 -1.19950395692356 -0.15441942742556633 -0.05369286153776559
Ni -0.053547087201501815 1.748817022753885 9.821148208396528 0.06791980377042497 1.025642618723298 -0.7513213380330609
Ni 4.870266249751043 9.052051244342678 10.48955105948904 -0.3058509758674023 -0.16666044957644846 0.6678319619591531
Ni 3.991859453606727 0.391211822336901 1.102119947773932 1.6625028148912853 2.9906673451087524 -1.792037820370346
Ni 6.122351337347126 6.248369791044405 2.4725654877397507 -0.8396451593811346 -0.4484235312567115 -0.5056177210795163
Ni 1.7295130233156197 8.68936239055562 9.999209833060002 -1.230569567980113 2.4430570816475345 -1.1272919535356842
Ni 6.637517469642923 8.806607999546944 6.385736826581992 -0.2830758869544157 -0.280872965765826 0.9533642808738613
Ni 1.0444735665056708 2.583696293033043 7.018686348861214 0.6153228363168435 -0.03934327768431289 0.29031508501533226
Ni 4.7959121821472595 8.918737674578612 8.1482321919611 -0.7724262383324761 0.3253736192813622 -0.6368684236981031
Ni 6.12296861639893 6.74022896277811 8.197072994028234 -0.36134335250775185 0.7469211520828363 -0.8822005162448419
Ni 8.286223053449525 4.0437857156615955 10.85469500041396 -0.27654811313822697 0.3427432209080613 0.9395142623646464
Ni 0.8859478885605333 4.19116576563649 9.56361003527058 -0.5039979260879062 1.006961240263711 -1.2059188593109682
Ni 8.98400090523763 0.7349043809403049 6.270164417929575 -0.5718809630831249 -0.4357078834622561 0.9079377731099461
Ni 8.954726913841425 0.7368039169315411 13.653255843396122 -0.10614028070420431 -1.9942944218838492 -0.1509623221149013
Ni 3.9670934698312785 5.36292040208177 8.742510116916032 1.3646482269657982 2.4691668913607088 0.9417619207482427
Ni 0.6048483610814462 2.3938081628997585 4.737487655165208 0.6657300851248019 -1.0983505879109858 -1.2171322115282843
Ni 2.588054657247302 4.631061264463702 7.334401202077202 -1.406208566906088 -1.1252253008146427 -2.0015102229059982
Ni 5.775552742787594 2.0312408943804807 5.865391161878777 -0.6334257165651414 0.5540094821193426 1.2855490095397861
Ni 6.191430474871849 3.8258300940969967 12.811267576037011 -0.639067231121635 0.9650689709052993 -0.039309339122583914
Ni 2.759480532103873 0.45815012387740867 3.0089547961621514 0.015545403933766777 -0.06442310347107615 0.4970590328762278
Ni 7.2442092504381685 6.867669028837122 10.528946556792267 0.3504344189047319 1.0051342143573012 0.1364402172393263
P 4.287769937243972 1.6640159748339476 9.691913356730826 0.48990570966089825 -0.9502941265889698 -1.2953791082563304
P 6.30359756075514 5.95924002426411 0.20107491004031364 -0.23449797804571226 -0.5653557603700973 0.4253237120144545
P 1.2052092905105283 7.242609936531219 5.133089640940249 -0.42765878790553447 -0.07157436980387673 1.8414361682978158
P 5.302660872827534 2.063030765548438 0.8901790558792694 -1.1746568159728932 3.9411311645063676 2.113340612016444
P 0.9375439998498151 3.763204328477508 2.0344741272321323 -0.05116392446832478 -0.7227615241174971 -0.09912836816274541
P 4.092653640596157 3.4854848714426985 6.037142511144481 1.1584385543418176 1.8920694170736514 1.0010096506659665
P 6.954826960409407 8.749911853909948 8.630674117069617 0.32698133008811425 -0.036562886725698324 0.8187492897687318
P 3.100396270245445 7.531477827350142 8.972903911374502 2.2778945567728512 -0.9542050316076017 -0.940369154165774
Ni 9.185963387732738 8.82845593689568 4.248310841492983 0.6087827212054805 0.5459516448118725 0.9291257200414708
Ni 2.9183644189533156 6.922335635773488 0.19613387181200187 -0.6373448491138896 -2.2752460634064104 -0.20210490642698742
Ni 2.615635807607498 5.315174802695943 10.770715120687179 -0.8570944652058335 0.8462410674310974 1.034208506015438
Ni 2.257043442073328 2.3338105096068946 9.097662554643323 1.0100856448253055 -0.518147735225727 0.47001874092898405
Ni 6.360153415698546 0.7349979080693663 -0.07541466524733896 1.609610080657312 -0.9335876124675664 -0.28136610335216056
Ni 1.8720951315696668 9.455873329490924 0.3495230398290893 -0.2056383735015426 -5.138376150192421 0.6272530120955262
Ni 5.357869937112456 3.291621838324307 8.115556618880932 -0.7404314305934345 0.1893553200708029 -1.0476373778268346
Ni 4.203670342791995 3.74477948405242 10.259937281286943 0.747832351043196 -1.2362025978961741 1.6744345333318646
Ni 0.5265427722748205 7.058333434141616 0.47359706451318323 1.28946839919885 1.6325582048130531 2.3175522803737896
Ni 8.480329257103476 5.013662044027924 1.1915122424594917 0.5894698798094816 -0.1194717077057878 0.4463316817246894
Ni 1.6375571500224881 6.880949881163835 7.531887476175432 -0.6876837065777576 0.16580992865069508 -0.6557038112370513
Ni 4.542958708887899 7.243947374476797 4.179141917924362 1.1430438170533024 -1.9537751216135641 -0.9820899309433279
Ni 8.882299505096306 6.717539281267824 8.4190474763286 -1.007251003589988 -0.9261321846307856 1.3055259668823451
Ni 3.9873795041246876 4.316089951923752 0.8722910571749932 0.8305102869594019 1.4863778774678273 -1.8003375984852932
Ni 5.849953573955908 4.154961413976837 4.514048538023741 0.09265021663756946 0.7474721394902998 -0.19111909683944503
Ni 5.56496705899303 8.064535699435378 13.210865976036844 -2.12660416189457 -1.7468882204169012 0.5959768276900639
Ni 7.000215676142886 0.757936371742956 4.512118138079915 0.3882077809987637 -1.4780765566909835 -1.8774359834311922
Ni 7.177898515933662 5.056450705573497 6.47428924764858 0.48915109088306075 -0.024378685954680596 0.03192718772589985
Ni 0.3962987628865485 4.623579094138793 5.363935171432085 -0.08195905547231046 1.5301231408745777 -0.1282931626521597
Ni 4.479145148729331 6.9053136982843215 11.566340119627993 -0.24193437971909948 -1.6708349889060643 -1.4409192309143959
Ni 8.016537576801086 2.7842184577406033 7.674413468152042 -0.39326256981385177 0.03406454578387681 -0.5389736708321428
Ni 3.944347672043555 7.828837981487838 1.8629968124545773 0.5476164341088052 -2.4936941870781117 2.000261180990245
Ni 0.9559501388490912 2.9633883788834554 11.696149227866131 -0.4610805578990898 -0.1360650932880947 -0.2907411168091573
Ni 9.052930399355855 6.70433325064436 3.009844239159525 0.17453213901504136 -0.44190167097779376 -0.3449286585951543
P 8.422435964214493 3.7569473635433033 13.020594384674409 1.6674717288607863 1.2169679180362782 -1.3991840559591386
P 7.376783955882649 8.619469567008066 12.36338860147312 1.2831833375210868 -0.6996725035085176 -0.3112019557666705
P 0.2682171007221751 8.687117739458149 2.1821197942535613 0.7148080735983755 -0.03077533350964377 -2.4970425347250544
P 5.824476783999593 5.22443478208061 10.629818371298818 -1.0238549306952562 0.003271985883052429 1.0882456382665
P 7.75856169671113 2.5745119289592164 5.171609724315462 0.7177650993441702 0.19814232223481357 1.7723459983683734
P 2.865942463114422 1.6110889724981226 4.842630853655991 -0.7132692683563459 -0.9569496842322746 -0.2975460555461327
P 4.126669457435774 4.759604950645639 3.10999028314456 1.3606496473293663 1.2834057379445383 -1.9897556534732312
P 0.10669948991836468 6.206703455047569 10.637839257887121 0.0838290188015137 -0.3403073577730591 0.012518701292301022
Ni 1.9108247157139766 7.613108305594899 3.1762028141635517 0.7506040002510622 1.9976769652028368 0.9508417715623237
Ni 3.0710474571459896 2.801960554123544 2.1354965204164724 -1.3771219339527767 -1.462619855816281 0.06111615058503022
Ni 5.0243802530183554 2.2712034494132185 3.3647226423986676 -0.1412299253184858 -1.1538288234839482 -0.31927033459710175
Ni 8.212252447074894 3.1994414999214276 3.184484641441935 0.7545776401868295 -0.4821458632098212 -1.1441774164371135
Ni 1.9244329129924052 5.747803243595087 2.1808880419638235 0.650770378491176 -2.9678588318546693 -1.1993165235031022
Ni 0.884895708358593 1.4883252628921784 2.2767907601033444 -0.8960510489746891 1.0411872513261167 -0.07988880320684306
Ni 7.987188763701631 0.6305664510307396 2.3329547363759833 -1.8512742374341598 -0.16301153996995152 -0.15363652651295476
Ni 2.9205061902088207 5.913851308530631 4.785617651051476 -1.9034835724478636 -0.7255609412395053 0.11683401297262459
Ni 3.097281816847702 1.7518379490225668 11.763442932497071 -0.5291412581227531 -2.1120041525932076 -1.1080284773203821
Ni 7.769972006456616 2.4504856031109443 0.7414578268736345 -0.6216408081150714 0.5943248939089377 1.613305270120712
Ni 8.47482986191467 9.173000527644833 10.644027012745822 -0.5556606445695205 -0.8008338429408918 -0.5700904468416054
Ni 3.502871564735206 1.719702027477083 6.902415292554709 0.2958684107333937 -0.6734035425096595 1.9315800735737634
Ni 7.448070333653219 7.779165723243349 0.9702887830054888 0.6008786358670554 0.6555328328768258 0.613144597718602
Ni 8.338532776733544 6.371273791343942 12.843859909972313 -1.5607562923794023 -0.8185114627263129 -2.4283341736150628
Ni 2.8235653209367184 3.718835058450798 4.321133869994031 -1.7062118257434615 -1.1690497541987608 0.5056999963806775
Ni 4.466032645234928 -0.04061134998102478 4.614646318042142 0.5569066011614796 2.73268259679501 1.3232077004328242
Ni 6.684103332628387 2.1406395772435567 9.608632124658138 0.5548618028173089 -0.5101827147423794 0.19308213410308683
Ni 5.427435415708297 1.7845630914811377 11.58386149198635 -1.2807557019162008 0.29448824255641537 0.6005711319289657
Ni 7.538080842661874 1.9732727797882486 11.925899555676658 2.5820663451656176 -0.3701776629699302 -0.41088825331541495
Ni 1.652652428652992 7.457731686085258 11.815733950355279 -1.0671379097536073 -1.3363097850324213 1.012266197416392
Ni 7.126168660849822 4.838186444482995 9.07741673701541 0.1691701033721796 -0.9672343539877342 -1.7665221925977446
Ni 3.6758967534987264 7.280058199007388 6.444283874103114 1.4244862821693534 0.3917944699087575 1.261079563643512
Ni 7.1231757927198585 7.445788271704122 4.276564451911129 -0.7892535943024601 0.6156969318268106 -0.2256220157123211
Ni 8.54185140260004 7.275297668138165 6.130895975858172 1.1975594316026794 -0.3566030096092891 0.14503464377655667
P 7.730213623892631 5.19446868992935 3.684981978815747 -0.5249015090097928 0.3345920525558366 0.33733361985671584
P 0.07232920525960461 4.468539172293773 7.501334033653666 -0.3093458763945382 1.410289936064313 0.43988824009219085
P 3.0696164920713507 3.741234805860994 12.326087176589576 -0.6207476068768406 1.6805676428127958 1.0770289436150742
P 5.811102404543818 6.759701311048686 5.922336089679078 0.10135288661788998 -0.4286309220108166 0.841283466315506
P 0.9157764958320737 0.4696605076509905 11.924490101841704 0.31245613988874577 0.5645854578629761 -0.618381163527193
P 5.745287363823337 8.598313730414386 2.7841604709205856 1.1723770187997808 0.5017811209422455 0.16199595422124358
P 3.355323165928001 8.481040063284343 12.662157274174481 1.504188423286687 2.1257832086551716 -0.9677200353749011
P 1.0119915945826596 0.6670289375666024 8.17333674394375 0.13854080852209688 -0.09821562654048893 -0.6118641883442817
