# total energy = -340854.0606767474 ev
CRYSTAL
PRIMVEC
9.40196238226612 0.00000000000000 0.00000000000000

0.00000000000000 9.40196238226612 0.00000000000000

0.00000000000000 0.00000000000000 13.76072231136459

PRIMCOORD
 96 1
Ni 6.611704390001739 8.679026679965936 5.945030982426074 0.6056246351924731 -0.11174245738233014 -2.225696791723373
Ni 3.1070288967505673 9.340153869939204 0.19231525989739792 -3.346362755302108 1.4723303982358258 1.0192693682071026
Ni 3.426629803613125 8.25947351114192 8.713950269191393 -0.7675048897714588 -1.2200498993957116 1.0901035174108453
Ni 5.555864015787481 2.9015584111042774 6.617751732198484 -0.6530949128592946 0.455470410801164 -0.8734060578816636
Ni 5.81606332439282 6.135053103701292 8.281216489320084 -0.5914920524458329 0.9149931372948306 1.0947433301757017
Ni 7.7225838519332735 6.497160282441166 10.124314199297427 0.2387708943894533 -0.1802261040760251 1.6577331614167838
Ni 8.579657339671453 5.746517008737763 5.752656490165742 -0.3433762265063699 -0.13791860155706567 0.349802698858004
Ni 6.744807971281803 0.8424807019428275 7.304563202975659 -1.0427767073004235 2.4601058095997055 2.300557031367373
Ni 8.050232838585034 7.140216900738213 0.36005661074685463 0.2276274761781241 -1.6848053350432275 -1.6098599918845886
Ni 3.535297684692096 1.4338462713227542 10.895436827436392 2.7018761529371145 -1.434839343268903 1.779081260209678
Ni 5.6544435912428375 6.949751947035342 0.34764225963276285 0.12226161174609912 2.722048514119931 -0.1058785424023854
Ni 2.5703742866011856 5.555130662722577 11.939669538907951 0.1172800993711077 1.580970305433432 2.504846861260822
Ni 6.945144985473766 8.259435903292438 2.096735389044267 -0.11543404730130444 0.4545797806660945 2.125410912917417
Ni 4.335320064765697 3.9995853904752523 9.690424918250777 -0.5392390086783875 0.7441397326829572 -0.04152048784128978
Ni 7.46947362295534 7.092906226089538 4.099181318062866 1.5205812628224133 0.27719294581107745 -0.3492874497844823
Ni 7.302616996764952 1.961155330875796 4.993257168906634 -1.002822278394673 0.6401614926270781 -0.9484061655376376
Ni 5.194217533203764 2.310682683963857 13.935483323670356 1.1937986790086665 0.0476386849238857 -2.3372271330948977
Ni 1.5678148331409105 4.150740739506798 10.79593303908001 -0.5517319989390755 -2.5104750060808763 -1.0824236322680842
Ni 1.5204759526051244 8.767546155684789 4.868515692958948 -1.0287706228293187 -0.23236447664247722 0.9168947251929176
Ni 7.50319846197855 3.062031104845052 8.046114779066727 1.237143878763521 2.427464626525916 -1.5609146723341376
Ni 0.03835436529447588 2.414583770120952 13.097826768619862 1.0138376556685702 -0.05977069230072931 -0.30452351530523036
Ni 0.5451285988339706 2.2288856113399564 4.860231623914245 -0.9899024850092113 1.0461960173946174 0.9213411910000454
Ni 6.491462693244604 5.092996006322281 13.77984981996171 1.6978385140781018 -3.8332895848403408 -1.1081835148410075
Ni 1.052013775529438 7.153248020583813 1.0139687347969535 -0.1860026015484861 0.8015568371498454 -1.4959403243452818
P 6.387702636523069 0.28389695476034377 3.839131500659219 0.5726209265729428 -1.0118131690393737 0.03076144955257283
P 0.17666381313912125 3.5851468891808227 6.697564050565959 0.08609493201755494 -0.39608641241589204 -0.4820684730046665
P 0.3576581701461239 9.307171785943268 8.289142343598469 -0.36868385203322307 -0.9568833497707134 0.3273708522170491
P 1.649329846893694 4.0354820828060625 1.9421191776641167 -1.1795727652172718 -1.6637312879817476 -0.07279384403327463
P 0.6852836518919575 0.3186785743540056 2.718279377241228 0.6017731226568668 0.4841317832915985 2.0755433386630124
P 4.1386404139358834 2.819629711007189 4.3471223481294645 0.7368030898122279 -0.1032840422023318 0.17232818938518707
P 2.995897701530509 2.4915106262369004 9.296055845832552 -2.406894258573732 0.20433739530193196 -2.944082812480994
P 9.15630789774521 7.894856008449104 6.119723204056089 -0.2898476584606105 -1.278290785315476 0.3938467244520959
Ni 6.634616972298802 5.730994368863964 2.2348652594076346 0.8059835054626312 -0.5338929138751256 0.33011910438614755
Ni 5.569337027864498 2.0072343484539266 2.6509895325551067 0.4596227424066407 -0.7672341526085754 1.6544760879320666
Ni 7.639385886916159 2.12629139795237 0.512687127674342 -1.1737661858378234 1.7266803780104585 0.7042891763449225
Ni 4.381126425435081 0.8695104035619599 7.893191861109515 -0.200024626859191 0.8857010731989327 0.05043193139830669
Ni 4.014036206638807 8.161711906412803 5.5401213699942105 -0.43192347671915937 1.7913086555138051 0.08368735101732684
Ni 4.98266397790372 6.165365030383988 10.456429118075206 -0.723900779928263 -0.25871828404565766 0.8481837929797651
Ni 8.642330820833628 2.9121732266206433 10.564835624600274 -1.5290497053047407 -1.653235016436114 -0.5226160554097258
Ni 7.707719349425413 8.293546222772841 8.408461707847051 -0.27006044853135425 1.0226722232410643 -0.7167045192901399
Ni 0.6829858122885918 7.8841471733090325 10.052070460638257 -0.78270730854351 1.475929942661626 -0.059361372677452603
Ni 8.659113323665082 9.336148633969344 4.646225096631721 -0.9149414581212889 -0.2514400052166895 -3.0272780543532507
Ni 2.032102538924067 6.162205971027479 9.83866847953616 -0.22440974057177482 0.7160851405385861 0.31279758238856453
Ni 5.9046110059987855 6.632727177862319 5.554997154856915 -1.863230895575404 -2.7386516698942516 0.9247191063333429
Ni 2.73986346225533 4.417953912040577 3.9226453716119845 0.015434846497831481 0.2424434581450341 0.04984057767121094
Ni 7.256726018434233 9.459126301776314 0.309020878606963 -0.939491379546511 -1.0820989019388139 -1.5170521666232324
Ni 4.7327316122070355 7.186483957563755 2.862106836801157 0.051191435272150546 -0.9212319191156909 0.09133355470867495
Ni 1.2505174070591407 1.8795556994616776 10.986932024245528 0.4606020756007745 -1.629213456710536 0.15408826933839267
Ni 5.903793035272547 4.410272508783827 4.059922483988342 -0.20957730354463264 -0.7083749163785219 1.2576306858629631
Ni 1.2268996775842858 8.729928904240165 12.44331197878181 0.17166972986558177 -0.7938491840929425 -1.1024576681008238
Ni 4.150298847275382 4.812460253109413 13.56998485710342 -0.24217143543057004 -0.05497507068429887 -0.4071948636242278
Ni 8.39920547589323 4.276153515567742 4.119946492154492 0.21615084299709225 -1.0670949723308139 -1.4783079559754992
Ni 8.441401483012319 4.545284688425116 12.116495065799846 0.1548457163297075 1.3677237805673284 0.3263084723908058
Ni 2.6657289889634384 8.588316547014742 3.0877135052564824 0.9140693399289808 0.10130120744434812 -2.4376109709312987
Ni 2.161059854798713 -0.044865224236090955 7.002019336245777 -0.2377614792883325 1.367413191305445 1.1740875737329846
Ni 3.597566881472336 2.1286230846202696 1.6141599262541282 -3.109974245101902 -1.3962766525043564 -0.8454396545757247
P 2.730000803728609 8.854110023230565 10.735813130897679 -0.6668626560673483 -1.1712524182770343 0.5086829902684014
P 6.49807227279111 4.932222449785648 6.802970390898582 1.1965122212850878 -2.022295535082465 -1.536797981791592
P 8.25131260780427 1.038174086919969 12.281306765174635 -0.8950046099880458 -1.8262229508924872 -0.9779581681631414
P 9.302151138037388 4.67120517045407 9.655224911331626 -1.4241648942741925 2.039255302865256 -1.2946579138195895
P 5.606559396889558 3.7959200816041103 12.240616952427311 0.03500351265837842 0.20631843028770275 -0.3653797273606546
P 0.2300284113582014 6.3671969565928705 12.437573961147056 0.5630271122369207 0.8119582349888275 0.511881442601041
P 6.909953440320748 1.6773194888708611 9.330636263431483 -0.5595484096597009 -0.6739984957811812 0.386886748194495
P 3.8672715740343153 6.2855691192916385 4.622336590640593 -1.0081766007280508 -1.4960503675605847 -0.1510466542985915
Ni 1.9286809528478708 4.808483223026665 7.889036193741727 -2.596896982420547 -1.41094762425297 0.35060436882369295
Ni 4.897801865547016 -0.23388227573389528 12.80336106795877 2.9145812034774514 3.241668720126127 -0.022184763627155338
Ni 3.5961001753425283 4.619108896958779 6.429106058214318 1.599257276668078 0.3335340436049675 -1.1851389464511395
Ni 6.1031428434156 0.8169966829374157 11.01650401648966 0.28927404534532764 2.7529434039265746 2.371906686754954
Ni 3.9667349339525035 7.31208477287211 12.357761642779582 -2.1634187596197583 -1.2452263986613392 -1.6431663193462023
Ni 1.6361670995749058 7.161079855238492 7.127723573140208 -0.41196683109157434 -0.023012144624457144 1.5482622736774496
Ni 1.281421657371182 6.333791784290258 3.2189630195570715 -1.5439425632561732 0.2513183920371608 0.5033299534866041
Ni 2.020688556606203 2.107130198641162 3.295899277635391 1.6387558489833325 -0.5575378069875753 -0.5119346644364796
Ni 4.905878151223329 -0.1861701372919978 1.6629006393793653 -0.008219559696314877 1.2994656196208783 -0.03909825155304234
Ni -0.09713355364276344 2.4922909891136573 2.2429565882237417 0.08372283224095259 -0.11197642777000716 0.19285279170110015
Ni 0.3185234419748913 1.9541132610602443 8.573645724931714 -0.06765909390987057 1.0361057230381512 0.8564707155789056
Ni 1.6778459987636127 3.738154424799369 -0.36132211488193244 2.1367463925348944 1.4064461368381909 0.8346536197038142
Ni 8.08589448185658 8.122985223408453 12.194462719150215 1.0922953828558415 0.7304156982286453 -1.8947544201049822
Ni 8.72751259991093 4.406116841416038 0.7705867162838411 0.4392804313048628 0.5332182564056042 0.560216382261003
Ni 6.533931357272439 4.329349818660389 10.263090924671891 0.9223431499019986 -0.5196081218213374 0.6134227910806532
Ni 0.47480662128334244 9.576838870655765 0.7005195319134553 -1.0341087472127803 0.6683014453964039 -0.6868061890688106
Ni 5.725362593403997 8.39984480933443 10.033685863418857 -0.7519759408979243 -0.6990945195178605 -4.487096179054679
Ni 2.8053199242791913 5.752571872504406 1.6393703481545565 1.2164822366491115 0.15737439628883218 0.07914961104797337
Ni 2.11060892471827 2.436386920858288 7.193527907771781 1.2779735111853734 -0.10287883634411314 -0.7902936055312002
Ni 1.5052541755271822 5.74812474430313 5.4323758214237925 0.39555162295834456 -0.6229160752830691 0.11756549182201043
Ni 8.326970199000193 0.22743158935145183 10.196722472298084 0.7893330413901437 0.8466316180012968 0.49647950622367404
Ni 8.27351064096117 6.265862606162939 7.93414304841074 1.1183797386477192 -2.2816761353024706 -0.03240798401706032
Ni 8.798158945163344 1.0951687828103234 6.480970103239056 1.5511465372037803 0.07669215064641631 2.699970194163653
Ni 4.419401814245644 4.108309683328446 2.178955549974843 1.120391369761109 0.9949151077324543 -0.3628456480848912
P 2.634025571849899 1.7758520545143643 12.903071699487302 -0.5947010463014338 0.8040376945901702 0.5142484001713208
P 3.543364568406039 5.9804754403668605 8.529446159631458 2.3358474791385513 -0.3793683283302628 -1.1524671672497313
P 5.220543027841342 8.129707626503404 7.554802072645623 1.0273264341836241 1.1170003418016892 -0.5748459592487197
P 8.608436746487746 6.870803669009722 2.2303513772735273 1.8025860281998374 -1.307726831188406 2.9277583642893577
P 3.1120589466188187 0.9347619028061431 5.339449645941856 -0.20326807349715317 0.3212472558178145 -0.2357123100687876
P 3.686735092594758 7.416305525749803 0.6761684493736965 -1.3085714385768885 -0.4837353191841282 2.0404084426330926
P 6.9607522430089 3.432581245793692 2.017885831623538 0.9142104934925351 2.318747586233471 0.6332678508310384
P 6.043289950964594 7.643842417079806 11.814143939298562 1.1114542151724796 -1.7707891954042148 2.1311820110732396
