# total energy = -340865.41248281643 ev
CRYSTAL
PRIMVEC
9.33498441339519 0.00000000000000 0.00000000000000

0.00000000000000 9.33498441339519 0.00000000000000

0.00000000000000 0.00000000000000 13.66269328368861

PRIMCOORD
 96 1
Ni 9.748057471502094 6.532958150467934 2.6830248130572114 -2.2019310567623434 -1.0347623216363793 -1.1538316516974256
Ni 9.118114053458614 3.873579786422991 7.429130656429541 -1.6262862557614122 0.23996800002134802 -2.1017004566743545
Ni 8.949206845520516 0.011715405436183986 11.954583606275042 0.11144575207751775 0.8252415823612949 0.16124184966403846
Ni 4.2481086959888374 8.032912780660347 6.06373515903384 -0.49846902584987696 -1.5583944770154452 1.2401659534192964
Ni 0.47919462178224687 4.047378526192611 12.986171263103879 0.11393586548922313 1.7199050069598378 -2.3387726232051462
Ni 7.878260093918307 2.626416534088635 11.461852323597967 1.7308463364626903 -0.13255887990704912 0.8948050923827299
Ni 6.409045567392311 -0.28205562048904825 5.273471785212218 -0.00029953351828980674 -0.17497976807542123 0.9129534811569826
Ni 9.310069337908216 8.080017111999776 0.6759975636366385 -0.02167105721553042 -1.0052805101271782 0.17119638977358903
Ni 0.7264092799529928 9.152681500733665 2.9179686342193007 0.24889101354259066 -1.0680668493257799 0.505787156777845
Ni 4.3372017872103035 0.6395323140307697 4.93272431723399 -0.5916887418376713 0.4541858876617855 -1.5449159829130361
Ni 1.4758703704112546 7.174327589430847 4.424020876229177 2.0454336637618256 0.20639453494127682 0.03924943241892595
Ni 2.488249429816954 5.033134210057278 3.776764796096496 2.979328780167482 0.45444891151518507 -1.3662662221851956
Ni 1.856635049563851 6.121537382508621 11.428597375131144 1.0424743455686563 -0.3255566818264458 0.5298318564318746
Ni 2.5802176962371015 0.04120648818836921 8.008551271842173 1.4807093663281403 0.7186526441554462 -1.4816077097726936
Ni 0.03171374254051622 8.813980261338395 5.285508314112151 0.8751852612692733 -0.08350403136192716 -0.06883305961331371
Ni 3.7055220620663216 2.7581238291476944 11.36966935253636 -0.39950495117913776 -0.1997268931131141 -0.590196473562861
Ni 7.813475302103872 1.052724862031347 4.144236457447398 2.136192576913953 0.3543988028691187 0.09792869142768941
Ni 3.4387562125445448 6.397152797252312 -0.3736570220218312 0.22311750412291254 0.10022468655071771 -0.08214597467213595
Ni 8.616078591818793 6.988813444225043 12.151872900817263 -0.6555634290044452 -0.9938118473659464 -0.2303423040061259
Ni 9.5136560129343 4.741509297048204 10.72410757207433 -2.468769913032606 0.33019135238497976 -1.022061329129943
Ni 5.66531802435947 5.90737417014453 12.15619033110749 -1.1347448102693038 1.5492377502168415 0.6958557008655886
Ni 7.919091315733342 8.189824533629922 9.849490478616861 0.6334946221298638 0.08721079078955303 -0.24983332285120197
Ni 1.2229389677870275 4.611809023637575 1.4960236682568144 0.3461411908460168 0.23599564563716127 0.7155112703129871
Ni 2.4881560799728413 5.335232975575833 6.7250506591883825 0.598220372308602 -0.09496960879936547 -1.9423244565744613
P 6.974540253060162 8.820010661268096 2.8712012958171194 1.4469091299492436 -2.637397513637755 1.71807720972248
P 1.1878394264005319 3.886266030237951 8.859710482972481 2.1674451071703316 -0.9336099810650695 0.9369575573810637
P 1.978521941022221 7.924841666130704 6.353562154045296 0.38118198450023383 -0.7668518295684923 -0.1058183785884113
P 2.9797083541187694 0.5094773112125105 12.285930744951088 0.3703879792085234 0.9582234087383755 -0.4494992808193936
P 7.534835352410918 7.722272504405451 6.48170441855768 1.3760330717639722 0.03326390425945239 0.9159668140620096
P 6.16827764945601 2.820920269282523 0.8633656367465276 0.06335455299724572 0.0003113605928317218 -1.0115334330154255
P 6.977275403492674 4.427004337247029 7.27766586686396 -1.4057820208916303 -0.9990203881500795 0.09974209048734436
P 0.8125973240256616 6.188375870893544 -0.02893471768127162 0.9866119871833976 0.2529934657467385 0.11853454060349908
Ni 1.5199314968325999 9.573679962698973 10.37178752392141 -0.5265886669042286 -0.8522700472339968 1.2509707573442843
Ni 5.077307356291558 7.617683339061223 3.7045297532234005 -0.424552638176385 -0.3129266517672611 -0.7365837747125701
Ni 5.932970697400321 7.247541872168688 1.0454025002591218 -0.8548707180816374 0.8096319008484959 0.2829635297462675
Ni 3.9823230198302477 4.271922241222069 0.41572699626824583 0.41495882384036276 -0.683601566088584 0.61416815388711
Ni 3.140391440790511 5.18142043743081 9.20144092480922 -0.3024077545138082 -0.6869131469603202 0.6762448686131967
Ni 2.454914200484195 7.588604862620018 9.215035462607398 0.21537102740827424 -1.9256991893129545 2.121442672298288
Ni 4.606450742585487 3.9090060522638823 6.612702254801481 0.5783079496553911 -1.4639025791834466 -0.07392178699013074
Ni 7.689385354324434 3.2828619728758017 9.336606831592666 -0.14450088276027373 0.3492874497844823 -0.9921691695562009
Ni 6.017368291462902 6.398272995381668 9.75293593435544 -0.5447206006182489 0.2617627272989363 0.33766477794388944
Ni 7.798399302279619 6.146984550013831 8.223684389086596 0.34420540727588467 0.6885913059936916 -0.5620169258048515
Ni 5.414561673103077 4.410518754776669 4.050728852097827 -0.8893836642568425 -0.4366931301936608 0.33855437963769436
Ni 6.448495211514473 2.0097194589247924 7.0013241903330705 -1.0207942894920614 0.5769205823895612 0.6979506357214045
Ni 5.379116737293363 4.00693003873844 9.07857292648922 -0.07607148634328188 -0.28825511716251 -0.22840780598757437
Ni 0.657086752216223 4.49254526279878 4.71149825566431 -1.6428372181415576 -1.0458674304106053 0.9402897070780902
Ni 4.653536403956094 1.8962060484833603 13.324828628072416 -0.6008256711419331 -0.9982058626685842 0.9690688360933117
Ni 8.516408963259321 3.3431659721728124 0.9468493358352422 -2.2608949368910607 -1.328733772457376 2.1538637689414712
Ni 2.3964865330538556 7.132926933566723 1.6815359464657365 1.1190538818966083 0.6351918073266286 0.37378877735995625
Ni 8.11926138646489 5.649392540953789 0.7492949277357407 0.4299000185312274 0.7104053165449895 -0.8200803498753296
Ni 8.369224264046323 0.6680973663293538 1.4230240901604327 0.08630524825614813 1.3647492713200366 -0.10164162150290239
Ni 0.7120138004923239 2.14736380406944 2.8912444408466254 -0.4474524255926939 1.0574736471909658 0.2947546088439246
Ni 6.05664057088125 9.171127429930397 10.844421518659397 -0.37816685182299387 -0.13211382194983054 -2.386377626677619
Ni 0.9593283429962707 5.926846947626507 8.217699730580511 -0.8530987137828793 -0.2737985754175478 2.1916422732418255
Ni 5.95396507734134 0.6345847722927797 1.6928079401423837 -0.49641599997559027 0.1819338307957512 -3.4075285281781507
Ni 2.097879051705128 2.5922598261276812 13.644590117595593 1.2723975597594925 -0.18507160509378448 -0.8833719108451238
P 7.2308789249945145 4.8894407950141066 11.254930258641723 1.9780195959832254 -0.07376340703539555 -1.6415676074005148
P 5.499061951994182 1.9373639947527905 10.18485446108509 0.4198014966446448 1.3106653449914394 0.36915847767679644
P 4.5856337273482835 7.960379951784531 8.638606709698587 -0.00874380763090107 0.17292314265670863 0.7553960223230668
P 8.000903119113993 1.0368273835788997 9.204146203291614 0.41136930671689154 -0.3692872899451769 -0.7302840577467874
P 2.5856226522112453 3.0547056188791704 2.0360142430145474 0.07892463952136085 0.3914681969175903 1.0492111500718575
P 4.322387166949568 5.806154934172784 5.443750302360336 -0.3984752243630428 0.2756741951737059 -0.6404659112413744
P 3.7083692323117687 1.5308907685314685 6.811440338924336 0.5644952121420148 0.4610864714363608 -1.223297202688416
P 4.421113962083497 5.584271689700547 2.3357335210066617 -0.19830558728555525 0.664120574545837 -0.8559554665053839
Ni 6.6691088981067725 5.804063897664652 2.5133754738584146 1.0341146607500513 -1.2762544716117374 2.5429125577842915
Ni 7.681459952559239 3.234796138142008 5.379221289118769 0.6973050317176055 1.06836304040996 -0.14216015044223904
Ni 4.087630978974146 8.974224603742805 0.3395236515219055 -0.24111188381780413 -0.9540955026129311 -0.04253221693525578
Ni 1.9730329701883753 0.7072660274207357 5.75349722060707 0.2320168634950714 -0.19569411780463714 -1.059121210096718
Ni 4.181494247229787 1.7159101595634738 2.2942124438436315 -1.3879473067030548 0.3460481169115782 0.9007546250979455
Ni 6.680357554322391 6.03312574514918 5.396681443961669 -0.6333439554846124 -0.9999038191962971 1.041319920249239
Ni 4.738102027738079 5.993564081214083 7.6040813332755155 1.102518089025114 1.0601491371406 0.671066923956683
Ni 1.7339640194149317 8.13811805497572 12.546956512558356 -0.04152228761350268 0.18834384808715307 0.34320216282235083
Ni 1.32333672513058 2.7453255655197997 10.651941608085878 0.27583823155539594 -1.0392761503463326 0.5321288799961674
Ni 3.4484085864258307 2.4939157653546147 8.57601750621769 -0.47362985531901014 2.279222531555655 0.8019373604177157
Ni 0.5135426969236325 8.132937138627447 7.791806936288357 -1.933340765018612 1.0619990458651452 1.0732566210568355
Ni 0.8362288370628725 1.3909500172216405 8.501993880331389 -1.6200413032929646 1.3256705601510204 0.20000740046801038
Ni 3.369920037495604 2.8143484402569663 4.754029378140642 -0.19819065897424576 0.3782005332744067 -0.6025382829576655
Ni 6.874039810888085 0.8351441118742793 12.555700592456423 -0.2596009437609271 0.6431030917539053 2.8130789357658905
Ni 8.455628879757334 0.7080660355847843 6.836443161171567 -0.6942083950701529 1.30795900180387 1.0318338351356744
Ni 5.888433486774 3.604862925159252 12.329009831012366 -0.48281152181827813 -0.9062061351308199 0.750285954790011
Ni 8.066658749307203 7.430040817409642 4.197971428214176 -0.6041850745324691 -0.2942990093637448 -2.143980448389488
Ni 3.6873468474175164 0.7737152469557066 9.930605892160429 1.306813318235201 -2.2151640105128494 1.8080676201396992
Ni 0.03161199121043303 6.404854159391636 6.061686129955558 -0.6026442124079106 -0.49818440472992265 0.4952456338165729
Ni 1.7837288213115825 2.8476183246988467 6.756106285327902 0.796819579575176 1.0664311134945696 -0.23556241475448464
Ni 4.257901094636294 7.84106951602368 11.30026374343833 -1.0439468163491246 -0.26816220306737687 0.19157598187120556
Ni 6.803168609237481 2.634603315417347 2.8674168931367774 -0.3497990993135783 0.922819832428101 0.069167560134597
Ni 1.6469712996860086 0.43226018715910275 0.7634971730190955 0.08114710109397638 -0.07337491334772525 0.22560221821797918
Ni 6.414441188382043 9.04294875897881 7.921328911496731 -0.03799139164210876 -0.6451630596067276 0.5412318707387002
P 0.03440035105408893 1.9165003045935307 13.168350018379524 -0.666899937063187 -1.589991792205752 -0.16679440405115145
P 5.748334040729179 2.3281824521163594 4.92877561882801 -0.857819002076684 -0.3542707619316866 -0.9095357137246852
P 2.930064907019466 8.988208410390936 3.200294969256277 0.28721587726471826 0.06579401567667378 -0.467543282805298
P 8.26845310732632 4.1481123429749704 3.4389270427592713 -0.11699239292735981 1.4439443908939649 -1.6562033550358186
P 0.3722269024100197 2.1061778528467756 5.237224974241573 -0.5483270870225847 0.09318577742606532 -0.3428902880088869
P 6.164179591299448 8.024389939892828 12.820975644967714 -0.35079848711237005 0.7594336827275502 -1.3870996139907787
P 3.646777005165998 4.8806379047142485 11.400574685426857 1.1656553838052313 1.0431112078217069 0.6031003261087227
P 0.37521036342787184 7.042891008919715 10.233972348562038 -0.030924714603314488 0.8891229543962881 -1.6274010860921457
