# total energy = -340862.2533542129 ev
CRYSTAL
PRIMVEC
9.36519557843813 0.00000000000000 0.00000000000000
0.00000000000000 9.36519557843813 0.00000000000000
0.00000000000000 0.00000000000000 13.70691037752392
PRIMCOORD
 96 1
Ni 6.67314207715053 9.189719996085817 2.242162701570209 0.6918671485314859 0.20873449592836313 0.22382815703669193
Ni 4.452888314324412 4.206574303078646 0.5737259343725497 -0.18379325260199314 0.7139369838473317 -0.156176262215673
Ni 0.7127063745949092 7.079900620568548 9.439236904249798 0.14015854663117797 1.1913833846989546 0.1285772695514818
Ni 8.450244146195484 6.006218398094803 2.1321506845859544 -0.6496403786517909 -0.3527684663545473 2.42781969587249
Ni 5.290043155024724 2.0448436479775123 6.224581982871499 -0.23578455806761972 -0.3098518694966793 -0.909029206401912
Ni 8.25864160803811 5.892684131020075 10.633451068000882 0.11643600620325753 0.6514900302660199 0.5919052287238515
Ni 2.7944339091885317 3.1289493332289666 6.207900696348897 -0.07928947905994732 0.7188009968078525 -0.6845539026995242
Ni 3.7953672917186583 0.14933272751299742 4.846516853416871 0.9752384552391332 0.4148222982624985 0.5923132627955476
Ni 6.398048819619139 2.3837794443729146 14.028200575100572 -1.9154438301335335 -0.7333308149929112 -1.7119656975081035
Ni 5.576318456182876 6.74195753491388 -0.33223874497371325 0.9779275720355222 -0.569858019115825 2.5371427451800495
Ni 0.37336974782494614 2.4191424232126546 2.707416257126209 -4.464541433682615 -0.757558062971392 -0.2185882487939913
Ni 7.508686104196065 3.812599251746498 1.5453031745639452 1.2489300727651715 0.6147484518706122 1.2567230864470291
Ni 1.1848470950446446 8.788018658328141 5.870286329062151 0.5677085768729899 0.0616581391314293 -0.6081175768176559
Ni 2.8701140553760163 0.746584033401815 1.338293016494722 -1.5302925765729063 -0.05219416550505204 -0.5882419209396514
Ni 5.331090807634518 7.27391001401242 5.005845990785148 0.4220540401242473 -0.3084459902880881 0.5713402600883064
Ni 8.557335158651108 3.874137952476353 9.179161674490498 -1.3197613937554369 3.84888461106512 -0.20989843432947725
Ni 3.2499382960548684 0.5097888070322979 8.411259646191198 1.0493803286598702 0.3489146398260959 -0.8716980740516214
Ni 0.8643794645051659 1.946630841014494 0.46481058180093654 0.4344878950122259 -0.23530479021772377 -0.6594648209413804
Ni 8.293096162898122 4.159514194850443 4.141872039252376 -2.1056368156142833 0.2233296201337186 -2.0137121642888287
Ni 7.469680064241744 5.463804995435885 5.728460742396065 -0.6688802007180094 1.4114878130271562 0.42328534142818713
Ni 2.8335055055125244 5.712525861968147 8.274957651929688 -0.6032412225619611 1.2690790369092209 0.7194193471181416
Ni 3.050871696950652 4.580685774400443 12.129587901831046 1.2976529918921715 2.109395768436083 0.8406360625394943
Ni 7.949121891233711 0.26457052367960754 7.2343973169724975 0.6160936530445971 -0.24564936667684145 0.0028930052770788886
Ni 4.882582221931658 0.6995529572801805 10.570838179327987 -0.7315806650710239 -0.9155230416563717 -1.2295228718831537
P 8.973786679584785 9.248421042528479 10.57373015175005 0.3867898176053145 0.3873014671344104 0.6357240256810148
P 0.7583148774946801 8.868446958718948 0.43093292299403074 -0.05201007451870397 0.5970263520005008 -0.4878629681992566
P 0.8969225829294808 4.790260123043374 3.190324143034644 -1.2636452674881593 0.13264141231852639 -0.7821177545886272
P 2.977570310462663 5.770234197670074 1.3992285986236028 -0.02362715250063673 -0.005994269910221935 0.43485659120555437
P 4.855301406952802 9.471209682257975 1.0049238924039652 0.7978757887538324 -0.4386885633571348 1.0753764956133158
P 6.358855475751472 6.08522318874418 1.8571763650395388 -0.34905605049996663 -0.06409065983232187 -0.24945639912775752
P 5.280022395660708 4.899018140327777 12.242203443210812 1.1997487259445143 -0.1940344707140271 -0.3216370350570654
P 0.11973215356734937 4.519512316301613 6.64597364451968 -1.0479464244268208 -1.0283335352918999 1.0943324678905282
Ni 0.991699299602165 4.940000236567899 10.129722479084895 1.497130230888325 -0.34902545437234733 1.8158714324548337
Ni 8.190921878167835 1.098940155188464 0.8113134562955208 0.337458061249722 -1.1375084890573701 0.8225529797855383
Ni 4.301481195971107 0.9459596839630519 12.826666574415926 -0.07676799818967424 0.5732125374103547 0.8737829816051081
Ni 4.670263870958207 8.292674729093093 2.902958733100818 -0.7036469147752333 -0.554433971251271 -0.2475563538915672
Ni 7.781007263809935 7.935598548690123 11.945572108683754 0.7169839982037716 -0.4470783300827268 0.14542313746422697
Ni 2.0697925292352104 1.4899839002767465 3.668174823282735 2.1850224539324627 -0.5121683777138405 0.7115090911321295
Ni 7.731381091968889 2.083924609497172 5.785110810987587 -0.9428818932852987 2.2061283826731426 -0.31571758424883695
Ni 6.0866560636812785 3.293973446082532 3.3956270259337176 0.06035587538023799 -0.22728397679577628 0.8284832292270441
Ni 6.996597205107878 3.833689672389267 7.417248079778775 -0.29550279986385886 -0.6568096427067204 -0.55875882387887
Ni 4.879192021100094 2.9124915657705674 11.450177607392103 0.2807742354044326 0.02198807423531697 0.24429748063463735
Ni 7.447522011292903 3.852701019593894 11.403450900129657 -0.898166552655795 -0.8390196099819938 -0.5306630940839183
Ni 7.61233072464612 1.0064869435608381 12.205798118093302 0.8232548909485694 -0.7172933019140743 2.6486823425229544
Ni 3.8702045702960857 7.940234320545438 12.39733884595927 -1.757444912886825 0.1323681040524817 -1.055376398342305
Ni 0.5468009968290505 1.7894734925214641 6.649359162753411 1.1993669171250634 0.3522123367407612 1.2174284026124647
Ni 7.99181781828095 7.664354386577994 0.7238069410193647 -0.018192097527994475 1.2858230891367792 -0.774311371170331
Ni 1.7771957210016285 3.4324284988279556 8.430339359324197 -0.40807032425064554 -0.3494717978811465 -0.3832771764663657
Ni 7.504471766145779 7.292247067129001 3.7648498651171813 -0.2891156653905924 0.7181381664128728 0.858986540022224
Ni 5.3069286028128735 6.121635069498659 7.223843677975012 1.3349401583784042 0.15666374337505276 0.7941656868920968
Ni 0.7791421361391977 9.541261345849408 8.730630612318036 -0.32566852481396175 0.051394809532208256 -0.6840617935544542
Ni 2.081733153711023 3.4413535302988967 1.947135625060962 3.4186567768808285 1.092864367985434 -0.8888321626287466
Ni 6.997065464891243 1.6835343991329204 10.398527944245258 -0.6726319544509577 1.8443109187424496 -4.0397584246629785
Ni 6.62638165518368 0.1508995247481374 4.975800570045303 -0.06019878097708342 -0.14499376323629223 -0.9482310734123541
Ni 4.574710779564703 2.2044172169527068 1.8964193444442432 -0.15346117727735506 -0.12196490644128673 0.41920268671838123
Ni 9.441241056122601 9.009477440272882 2.5963356713163153 -2.3095975443030867 2.072033782847857 -2.2048366604449123
P 6.8141725587044615 6.556798251375611 9.19922847924683 -0.010861111084220006 0.4361382861314553 -1.4186817596724342
P 7.348906500916191 7.77536005082255 6.1220958371254905 -1.370308510575369 -0.16551887977283755 -1.0156222583728187
P 2.8639423914312627 2.034729236656824 9.943267052466272 -0.09569208878768681 0.11620332136716117 0.9675495712353078
P 7.566563013420006 1.7155352727280984 2.9154191259361664 0.4452520755072654 0.1742364621514935 0.3602210659778506
P 3.4509060298795466 5.4093557478261785 6.314157269870562 0.7537412603284632 -0.0038934215171352302 -1.7106870879059959
P 1.4038428305288835 7.599753266864931 7.513045602779195 0.6207419504498858 -0.9739086806841163 1.504820143333415
P 2.617263137554473 1.1109182404469462 6.405595294287853 0.24779135272050873 -1.6544688888432153 0.2570295834893251
P 0.8221686545934929 7.768382980050409 3.9002331336837295 0.7665111583996218 -0.9138058018549488 1.7362201991800936
Ni 5.486290830233082 9.128771302683 7.13262386261677 0.9026024769399617 0.09886868674345553 -0.4542540218955596
Ni 4.493224212063491 3.7684517193708267 7.66557560809301 0.04976755834143042 0.3712572691873542 1.4130525864111148
Ni 5.426306751984 4.451951794757681 5.499870363950673 -1.0951346520768495 -0.5030908408926046 -0.8754428858060341
Ni 3.539369668152901 4.2748559446889605 9.956069274943475 0.09586512403044135 -0.2698475611895998 -0.7780006470964601
Ni 0.7431057997309782 3.2926061275151053 4.827299471907562 1.2127186558416212 -0.5270252402210149 1.9845178021130598
Ni 8.587772044569846 6.632806179411451 7.459944943345582 0.6778975737252713 -0.07580486294545655 0.9589199205847677
Ni 2.723604934356711 4.509706956437945 4.270552637279835 0.8573978553788651 0.6125355033796934 0.2715671149838678
Ni 0.22668081504882864 2.272389807106 10.31858944358785 1.5831020070644544 -1.8110004775157778 2.2060077979348782
Ni 2.9299576556900893 7.347595373522768 4.394531907082307 -0.262629960395238 -1.1874938198365612 0.13767923185275
Ni 5.791408905073848 6.943655754000608 11.09154961406706 -0.4364607024678806 -1.5907281561511442 -0.934782918327248
Ni 1.2183744955335931 3.467922590407038 12.345376057799234 -2.7092464772592564 -0.7200402685315922 -0.22871530992566416
Ni 4.792442213633856 7.660158778919042 9.086557683212629 -1.3524282878608385 0.04250239213858486 -0.6593995149210837
Ni 2.1304696319636736 7.958046922704651 2.1448161752064165 0.8620854906625216 -1.0861167648489551 -0.7665350696590219
Ni 2.5454695475689197 8.749574530113858 10.260663835346442 0.27661110516567844 -1.0932950277649494 0.9102407102115098
Ni 3.6835843162337167 7.9256714412827804 6.813006591843882 -2.6299027479226065 -1.2617861027922335 -0.1461834126690192
Ni 6.687639400043516 8.971745066929312 9.18012067052683 1.2685684158213897 -0.637193925358322 1.3431504621033383
Ni 4.615112233673453 5.388986447249793 3.2004132683270305 0.4552143289262998 0.8685795830272977 -1.185437451528165
Ni 6.058700954614375 4.521366625043739 9.52501460440577 -0.32964087919814844 0.3952047811418872 0.3141651521600525
Ni 0.578338293238697 5.180451635325932 0.9329645384551006 2.301614268987294 -1.3763002093824297 -1.863743059325132
Ni 1.742066872053571 0.898644842412698 12.00181198170505 0.3491126147695149 0.18097198110311413 -0.2772304839172322
Ni -0.07465559378148132 0.9136019964129494 4.697440732265156 -0.7824980207461814 -0.6528529720518177 -2.4672802158609572
Ni 7.537765036743045 5.220881185021684 13.332328139717642 0.21144392443972615 1.3132611307430737 0.2599552417765523
Ni 0.3919961854876472 6.008185089184937 5.107551079212503 0.7886802382974933 0.5689252228889105 -0.7817542006016214
Ni 0.7949384116712395 7.757772213359353 11.835341882640453 0.3549878426033693 0.4495051943566646 0.6823892909480377
P 5.89857483909481 1.5863892244759747 8.334335802019096 -0.20907568131786572 0.09901652517522948 0.4351905775062053
P 5.884452124028515 8.73362560189244 12.27253731197721 -0.4546965087496169 1.7467689212302173 -0.023352815793327524
P 2.877962089345217 2.6029812141618343 -0.22242433361803893 0.5078142145102028 -0.006805452957607634 0.3154501895200632
P 8.395935376520788 3.171738912232879 13.11925401745384 0.7743738489771501 -1.2445314294768437 1.279750657690454
P 8.780404754250624 2.100210684762614 8.41853733974426 -0.5991076600095617 -2.729663350352712 -1.9350284371336803
P 4.220359871100919 2.2796571989438275 4.138170913924657 -0.33855746496148786 0.5008794350635826 0.20473411651971837
P 3.3902944835207545 6.66285909230783 10.518477370352088 -0.30858971495480403 -0.24571775802093168 0.12672941770946564
P 0.8865534382866418 5.703507178540533 12.518658400192226 -0.019839917544062606 -0.3860601385281416 -0.7503440617214561
