# total energy = -340895.0468745618 ev
CRYSTAL
PRIMVEC
9.03090076737803 0.00000000000000 0.00000000000000

0.00000000000000 9.03090076737803 0.00000000000000

0.00000000000000 0.00000000000000 13.21763613050347

PRIMCOORD
 96 1
Ni 6.415904038380071 2.035917215282895 11.345674935323002 0.319474737298424 0.29858503833360833 0.44245934325347674
Ni 4.691868977603693 0.36561691656035356 6.177302224239202 -0.3402816467414462 0.19761010388042743 0.024958726827866692
Ni 2.633148738138694 1.5499192959324322 4.911646782395977 0.8816983797974428 0.14157496736273037 -0.041819250028631204
Ni 3.0998385918648643 4.129388360511354 4.607627833099502 0.8268330952181308 -0.11414566750718406 0.6490482535937466
Ni 5.081976793680659 4.431417802391069 2.6901590078641533 0.11911689546953033 -0.3063086322301112 -0.5253799913081081
Ni 7.2299313626281805 6.193852252800043 2.6532153994189454 0.26841777072160866 -0.32316067079044347 -0.7038315199822137
Ni 4.955110701122166 4.595500236594889 11.291324265843732 0.6837527469544675 0.34981941102855235 0.3711413124347801
Ni 5.604369242715827 7.850932216037364 12.309980962106678 -0.3690273514155709 -0.48083537192851383 0.7925320079434156
Ni 2.001310803930094 6.576166401602096 0.3353245664557868 -0.1533968996983229 0.05250295499472248 0.3404698514928523
Ni 2.617236291164885 1.330847707572244 0.44021305915306486 1.0620427546188869 0.803011824428817 -0.593299537968217
Ni 0.7604325411545994 8.958490904638314 4.544831465317221 -0.8634103801215324 0.4321762161599138 -0.11605496871475496
Ni 8.438636138690343 2.101878913748672 1.4210013827425834 0.7786575639541686 0.976211874895996 -0.28732926291413097
Ni 6.85505867597506 0.6009179365077333 4.677232596894016 -0.30776516217097966 -0.12552305610619025 0.5695569429356384
Ni 0.6763449219617331 7.321712406098565 2.341940121437195 0.17532995232598836 -0.02156667042718221 0.26850673089098914
Ni 7.532737461965188 3.971681742177857 4.015597205937356 0.8781528285380295 -0.564417307716228 -0.9289349441869034
Ni 7.818529344447112 3.8185447595814472 12.829804119902315 -0.46730005644624034 -0.19382209759290492 -1.6855612393726456
Ni 7.710339154466278 8.725638161861536 7.008413303277524 -0.048321312813207104 0.6046208765183072 -0.4106887357100992
Ni 6.806400183185683 0.7608949232687078 0.13223676918467012 -0.7908134825904123 -0.49434266238632923 1.7130177929217016
Ni 1.9171969951252963 6.55131336296877 9.15741635979239 -0.6861125054358957 -0.370863119072729 0.17008927275233932
Ni -0.05126481072163593 4.935062101643247 1.4414365047700146 1.1751049592539051 -0.11895620152194998 0.061568150520784286
Ni 6.423038449906353 2.0676337384225185 7.040638266124653 0.37172546707302434 -0.3020321163419443 0.9964893941981098
Ni 3.3756332673093277 4.396052795382309 0.552436449371414 -0.2142734234687213 -0.9178781721521097 0.2702707647699474
Ni 5.960999510023265 5.602969453112569 4.679017102865652 -0.32710859969459793 0.7532506938452899 0.8124413452728331
Ni 5.43817357775612 2.983999229019777 9.378983186006643 -0.48870397604331317 -0.7506721344848363 -0.843323122453354
P 0.2925515116305597 5.675595956269986 12.519811229815163 0.12005251990992227 -0.5575794588587881 -0.6110653465920701
P 4.1259475873575395 6.134446988217913 12.818767456198179 -0.913098491375279 0.4875163834931152 -1.9887125569206976
P 2.402571782329793 8.496731922675878 1.5246282586167959 -0.11753695257692016 -0.4810341182028812 -0.6713924256169017
P 6.164628258244285 7.701416624608092 5.567466273323616 1.02697804970527 -0.1541276072167604 1.1628899052449522
P 4.671052751568149 0.9968037228309216 12.620423591047006 0.19913219695190867 0.46402832767350405 0.9398657321667943
P 3.869641595550692 6.059156369363972 8.203380273246294 0.23632448973148978 0.3329046375510847 -1.0077958203498645
P 4.687209032859944 1.0679130346764207 4.055184159007554 0.5525897189536805 0.5053199873334394 -1.6039893920364245
P 0.2010748095126252 5.531706615955745 3.6659378908541416 -0.12672633238567207 0.40390719401189146 -0.18940314258960284
Ni 1.466157692253615 1.2022115584831796 2.6013102978400773 -0.21912638068564844 -0.03030867828587038 -0.5476020359311021
Ni 1.8292360226367057 6.609228528940981 4.750629435878258 0.3798804920799909 -0.009381184104583844 0.11758708908856523
Ni 5.8693358682615395 5.363804110770131 8.969077829489278 -0.1138510190849007 1.346454586775907 0.715087295401691
Ni 8.748197351725652 2.371261649720148 10.110962971522376 0.20496500158360187 -0.029210817236001305 1.0472553118970673
Ni 2.1977328934195035 5.258666365214466 6.893710930826309 0.9593685780864123 0.04791019341771749 0.19066401157989746
Ni 0.6382489705915205 0.05881735294876205 9.041748584059958 -0.1858190247827703 -0.7655950743432557 0.9670872868869088
Ni 1.4618770453378458 0.9827697031956782 11.433268350154481 -0.38496999078775634 1.1464248177103935 -0.2770083406040971
Ni 4.1532750927733995 6.760252280781504 1.7458121746428035 -0.5892562211367787 0.21939686073821568 -0.7461333660742182
Ni 5.518449253777793 7.68042881145989 7.855161386819336 0.30999945081813707 0.5179991254630046 1.174854790916312
Ni 5.211768898054994 2.87241342038846 5.137166433831817 0.15163466559157757 0.0432374705323965 -1.4600268982781242
Ni 0.7477188391967515 7.525359216120918 7.011559669069621 -0.11019568172050055 -0.2062045304176578 -0.217100094284239
Ni 4.867258099441569 4.658382397933499 6.74542263879757 0.014901085481548532 0.3674875177322768 0.6973148019096185
Ni 8.190918533417033 7.195884867116683 9.059129455482088 -0.6045080050895266 -0.44065725704773134 0.20544579787476233
Ni 4.690559497007097 0.26037531564702787 10.566746206514 -0.29973740677049665 0.19741547137111806 -1.5196780342818537
Ni 8.281363003588822 7.277433900132286 4.769623226159367 -0.9584936316806266 -0.6777703041187876 0.1782810645345123
Ni 7.208356540936677 6.188388557897005 6.907827131657615 0.5370144902232429 -0.9825524724020434 -0.01098580958754237
Ni 2.213618247691314 5.292803169732625 2.629054127776648 -0.475733017704942 -0.29598950969229026 -0.3082480153446691
Ni 2.566265887804967 5.187114539236324 11.407282836577615 -1.0700229446108862 0.3262259399793285 0.7687958406687405
Ni 0.9898679911192955 3.075283572953522 3.9639955426208715 -0.26734999157872663 1.7690053640309145 -0.6445963884699802
Ni 3.6807061227135454 2.456748155426205 2.3955511601519044 -0.0632275405010782 0.5354517737218133 0.7660684144352484
Ni 1.1990236505480183 3.4146738508892227 8.29734498849776 -0.6771187865777178 0.07960649607973387 -0.28745858940314367
Ni 3.6715668512393713 2.6472820976812654 6.987159981649736 -0.23336103622779167 -0.01585290787185657 0.3959159482762988
Ni 4.076494375309539 6.918347227843646 5.938908120813656 -0.26739010078804276 0.08254063900739333 -0.6764744681254996
Ni 0.5866879463280339 7.4836635477451665 11.311891239020891 1.5472500303628516 -0.6101060680025945 -0.32594260441095474
P 0.23542474328650648 5.564678434287966 7.881993998878689 -0.4822227391943437 0.09861903262649467 1.4638982083080725
P 8.69366877350326 1.6354780488438192 7.976314531616404 -1.4671336845262346 0.39798337232828873 -0.17450874197627367
P 1.8151749102994637 3.2516841556660108 10.497909069276112 0.22766090051922086 -0.735383583756882 -0.12045464044434741
P 3.958424379999905 5.9595003805126785 3.8143589371226727 -0.44615581826845735 0.9085137002180741 0.6090958815705252
P 6.974781326106604 4.066641662682737 10.615823733094288 0.2296149389217981 -0.11017691266742316 -0.6315680945311123
P 6.176476799918313 7.576627639202821 10.166397349081587 0.5016379104961619 0.5202763515329556 -1.5206511968284007
P 2.331047049053649 8.57395515427238 5.9090230643291335 1.0304156146319092 -0.8126688879026068 -0.6902221567288952
P 7.004836163523651 4.051587151272215 1.6223588594460598 -1.1804795933022572 -0.7055155925528559 0.7860389440199043
Ni 5.330299469298604 3.0735044855222844 0.3309382580022233 0.38165018238590404 -1.024382263953636 0.2046130175608218
Ni 1.6843171596465192 1.1430049737157055 7.228103508333346 -0.5252995157791598 0.8897276778598225 -1.171949444344059
Ni 7.161386826571876 0.5999606610371183 9.301461934688154 -1.4747940292849697 0.2769486910107553 -1.208639086455609
Ni 2.9688092540992628 1.728667912818128 9.13735150469227 -0.13105041368232268 -0.8673639654526417 1.3254748992004461
Ni 6.444243004670543 2.1333335407689757 2.739751295782413 -0.8787639797594671 -0.022999031998334585 -0.12754008653621907
Ni 4.102241473108817 6.777185219530591 10.33372007044443 0.32255569021659286 0.6695592290629049 0.05260811311401908
Ni 8.052718660522483 7.370172219073286 0.05832426577238864 -0.587908963080265 -0.8493060795096663 1.2424097551481506
Ni 7.636502510619593 3.818039029144141 8.485841559562532 0.6830462078057462 0.05332853621981138 -1.1907773756838396
Ni 3.0901935899533846 8.325731818561763 12.24352256410426 0.27877314581400375 -0.3462306652360295 0.5320185796705482
Ni 0.31944011527404326 4.893474804075489 10.242927910596993 -0.6457870663439718 0.2093739292845749 0.23767560444274552
Ni 8.551865571242905 2.2506449404226507 5.8148741187040764 0.16068572005025228 0.023044026303657088 0.3272093869385203
Ni 3.6805345356008883 2.613732301706407 11.516552219188055 -0.2866908579991837 0.01585984985039204 0.2070889899051401
Ni 1.148558977625406 3.409417866701506 12.660962401047419 0.33698240716488415 -0.08215780174667786 0.04790890786613684
Ni 3.14535433122241 8.239992447637054 7.8802492288699835 0.09544603421515176 0.5042020716789123 1.210994731171979
Ni 5.459558750533635 7.728951840739274 3.4596107095140662 0.39393697017305707 0.2658798347911034 1.1891272416749263
Ni 3.10554612108589 8.582498386302586 3.5655630423098206 -0.06236005029446035 -0.8658261886518767 0.6243065278726926
Ni 3.358077196414274 4.223941890486255 9.266236906639723 0.3815488809213493 0.21458864071629494 -0.436471501101158
Ni 7.317088584957481 6.145112481904671 11.20802685045916 0.3529137336831599 -1.198128159621956 0.7960482486267902
Ni 0.4681618905347579 0.1329944617505626 0.3873561006439814 0.43779356234669126 -0.4407462172171119 0.06399270080187688
Ni 4.800411372710507 0.3590631919469069 1.878331611018325 -0.08425556481597102 0.142649945594464 -1.3900946920633608
Ni 6.110894399280515 5.502934166433296 0.17641683833368807 -0.02035670927948107 0.9342401584499007 0.8121757503162723
Ni 7.733169271350381 -0.3139086886160082 11.342344339157316 -0.054989725972318194 0.9686183788194543 -0.04924356751716035
Ni 0.10029627970852562 4.831911154234143 5.80412825000139 -0.8654904025790127 -0.14866272744744718 -0.34808725882879404
Ni 7.873301756987491 8.742634316915286 2.4873078201904906 -0.6094110988180989 0.5955852486786001 -0.3341544507977858
P 8.521485621401876 1.6008626065903522 3.6119042059882553 -1.0302713757445612 -0.5880470313200259 0.06995534614321501
P 1.729580033785412 3.3370351978620754 1.6725995660321509 0.18668548654812364 -1.110389521353391 -0.1807727206081145
P 4.927864473812302 1.0312746706737297 8.419317235985252 0.37329229733951197 -0.07698062842111258 -0.8754945649795761
P 8.505464803620074 1.6829354318445937 12.332689161831786 0.18728198248154196 -0.2757248459059832 -0.16949766191492746
P 6.172909594155173 7.672707391390307 1.271375614325184 1.1668242073023516 0.25425742006082663 0.609411355928415
P 1.6624262564316994 3.231391721869105 6.070173165086645 0.9263964940357658 -0.5388325172685882 0.1060585196236754
P 6.874131938182031 4.053700382028102 6.088770498828509 0.19427204064612993 -0.06105804365358517 0.6202853225284415
P 2.355060213925021 8.47769478407157 10.176059509704332 0.9376468701386046 -0.22397753813036264 -0.09809709868475362
