# total energy = -381160.57331112743 ev
CRYSTAL
PRIMVEC
9.36552783330791 0.00000000000000 0.00000000000000
0.00000000000000 9.36552783330791 0.00000000000000
0.00000000000000 0.00000000000000 13.70739666611605
PRIMCOORD
 96 1
Ni 0.8304629076400767 5.873478492963219 10.815054171514673 -0.35849122777093745 0.8306956634973306 -0.6874795609867516
Ni 7.810316509057378 6.029686134318285 11.506605694892707 -1.0377728263279289 0.20527430529390456 -0.4545301583750817
Ni 0.5623924634125933 3.604463930098781 7.031305002539211 1.2198560382173507 0.5481162565633592 0.6749469757373795
Ni 8.99312650110107 8.209812471024025 1.4477888754814812 0.14137879219152427 -0.415247301615059 -1.3574545374308364
Ni 3.743626310510972 9.106870838546797 2.348378983609505 -0.5958613851581221 -2.2186231727060437 0.19706348734833803
Ni 7.2370150786413445 0.8760711558486566 2.0731748167115884 -0.7924972980507383 -2.75584926471946 1.1685237064919618
Ni 6.097408267218248 6.00423999476785 2.4201638825517864 -0.1058381760827532 -0.7251817035232156 2.081528866822486
Ni 6.82171947095457 3.048432533297397 9.416241388107187 -1.8125989323511493 -0.5036528840436616 1.4585294877969912
Ni 4.929133574615954 5.629347274832486 6.851080401205073 0.5031335212050819 -0.7665497249470412 -0.9436714790661298
Ni 6.409589411728616 7.292018824530086 8.036551139750891 2.575976430217796 -0.10343445173726702 -1.8607950324404017
Ni 8.798389077592713 6.057632869842209 6.743326255462128 -0.0838902110567523 -0.3839821729531903 1.1934960601665832
Ni 2.9416280520926983 8.862243247432563 4.8769956802923335 -0.2076698021092746 -0.6372759435491671 -1.6330927371602841
Ni 6.808532807543819 2.8024750372084983 11.991874908408382 -0.2292480425006826 0.5110764302012424 0.9180496647329673
Ni 4.073789268763274 4.325038288166857 0.08094532186987842 -0.1278704732924443 -0.6848022712649046 0.2842449675618524
Ni 1.2630912979790374 3.67640055059451 4.843728388316956 -1.7372697234905305 -0.402530625379339 -0.21363836098788366
Ni 9.218742070394406 7.680435366883863 12.779241402446956 0.9174858218096973 -1.8183255504222815 0.8290583850042239
Ni 5.4790773782234545 8.231821461801914 4.75313563606397 -0.2934358900325011 -0.22159695371332802 -0.620776403232247
Ni 2.9880904364540197 4.018991564490327 6.768191732277147 -0.25146751602051537 0.538606260190395 0.14145541106573056
Ni 1.9576950469292047 2.2769752616564407 8.537597521719515 1.1991614859824768 0.15906952460306797 -2.565500470387137
Ni 9.088027396229727 8.128491591481724 8.527714080031046 -1.2152465644697974 -1.3137421841445502 0.057717666426442535
Ni 6.44308053982297 3.2348252713661383 3.227064058320335 -0.8897580168771256 0.108313119985807 0.3192636497288824
Ni 4.042002666763208 8.10846809263784 11.831895768931505 -0.5125689555863688 0.9114892379066303 -0.8121950335899818
Ni 3.87941710084655 4.968599909568304 2.4167239241208422 -0.11651493907030902 -2.0560659466646913 0.7088176603428954
Ni 8.76982421722141 0.45222013834247776 5.697314784565802 1.4614708298135024 -0.5140666231778178 0.6858564235610317
P 5.785283315875824 8.443416835693334 1.9690123509530348 0.39093623567352026 -0.3567896716987984 0.4313856019378184
Ni 7.7411989124868175 7.941480728565605 5.616687890647603 0.190929092315826 -2.164868861802723 0.809430069250335
P 8.997959113544214 1.9822046336805814 12.976367972145713 0.7434373072992939 2.2451099061426625 0.01672888271890667
Ni 3.949733484999907 2.325554255343636 12.25282286859902 0.13147258882140583 1.9780841306725738 2.3722381019524437
P 4.8931980437160565 3.4369989240990244 7.977828342697087 1.1690741796787931 1.1986935452071228 -0.09704526038147157
P 4.779331954406452 3.0295890909803282 1.7807689845533532 -0.29909000299448496 -0.9220328177504313 -0.3235648482073976
P 0.7651158726385275 7.242044367172292 5.57315317033614 -0.21507715031693928 -0.02431235149311942 0.011991110923605155
Ni 3.811320346826963 3.4749199469329275 9.944991001871982 0.7583749024457327 -0.6725193401324935 -2.1002773510745825
Ni 6.314819633991827 0.04955956446781006 6.6561341264225256 -0.6078702366935401 0.9070072908758766 0.8041042861620474
Ni 2.5831718337808205 4.426092335185333 11.405431769115951 -1.2952014450278855 0.385818969051613 3.236012036060982
Ni 8.868742923858031 3.908281658113551 11.496147209785615 -0.08316078908989548 -0.343588342517176 0.4876171707370376
Ni 3.3986189903935826 1.1799909681185239 10.600588263294135 -1.2539028433894148 -0.8882603492856768 -1.7981205362293162
Ni 5.774878214278278 1.3142083497516828 0.24916237976727942 0.36133949585300995 1.8743794559930558 -0.22132441677823175
Ni 3.1076133046699415 1.1022945479085815 0.549407158853639 -0.5292865254513658 2.465408195649225 -0.5326243315753472
Ni 1.3552199968224805 8.746429128300914 7.10960175309335 1.4133881153736627 0.977133358269001 -2.1956174558394896
Ni 4.681771249328466 1.3041216761058163 3.582003520871746 1.6954466168071574 0.9955337151530597 1.00004111610511
Ni 6.932101583851676 4.379545661072096 7.547950607928963 0.1550560325683007 0.8768914453271027 -0.06674069586065925
Ni 1.0904284239445028 3.8678600393061604 2.277333024825681 -0.16252328747962333 -0.1209572911123788 0.5826140332299128
Ni 8.405261674659668 1.471352543905808 10.854873586872268 -0.17291234402343122 -0.20786983393522263 1.1117784312811176
Ni 8.735799254031592 1.6974082930147016 3.901495396531569 -0.5742954860618883 1.5231729348089897 -1.37684476903199
Ni 5.067546712788897 4.594147369448497 11.642802949143077 0.3853289167890719 -2.1580577524181606 0.7224262522652656
Ni 7.173919516568733 5.7633024216819075 4.795272083046438 -0.0010898906300690907 -0.016823242204925863 -0.32400990616461617
Ni 2.7867503157122955 6.388526339277777 5.9033507810420085 0.3656615202671315 0.6167022331628734 0.17501962017442116
Ni 3.536676238502884 6.299160471191559 10.472601767433117 -0.6620276965725502 -0.19617902786085567 -0.9470321680082465
Ni 8.996320146145862 2.953653390032617 8.999701101750464 -0.1507250092931146 -0.6720897087942426 -0.44070790778000873
Ni 1.5235185348133997 8.475259630861345 11.26091417979874 0.3085930573889137 -3.3947606869895215 0.1981983722837296
Ni 0.8844177143938712 0.5802712563466313 9.67245975666258 -0.340765014135768 -0.5564391746067578 0.42637400765583994
Ni 3.876139166049843 8.836160251978766 6.882223591432185 0.5043856484446281 0.35107719469505344 0.578449874549894
Ni 4.411791173943701 6.5516925679298526 0.847565298303695 -0.6764276740479641 0.9070193750607347 -0.759775382337685
Ni 8.202797690559073 3.8663334582436946 5.685924429423645 0.17123778453448574 0.7690058997970176 -3.2122203329580223
Ni 9.457591130738447 5.662941423734735 0.5291823011579578 -2.426107341167073 -1.0507329860330228 -0.6179445902104067
Ni 1.239864788562372 2.673858241313712 10.514313955997611 1.1749231822604023 0.6433350052590533 3.3124894995934304
P 1.6459166201224327 6.145312942890122 13.052033009334497 1.53937756959331 0.6093205959868215 -1.4971952797983055
Ni 0.5695851889093672 1.0881338695868081 1.6618295887312455 0.04649762934090702 0.24271753774202712 -0.33603032766425994
P 8.46854454729209 5.000395877096361 9.312874055675037 -0.7212363457222224 0.6871684575042358 0.40485593107840595
Ni 3.3703538269179796 3.4742737255015768 4.373152751665719 1.8742606710270042 -0.023690915859036616 -0.14321764517247593
P 2.253449055344076 4.900194093125028 8.680771157770076 0.07401537514520155 -0.740118527338706 0.5572770971270209
P 4.710813751627288 0.3172619434452633 9.063057025501214 1.1781501738381324 -0.3687314174417069 -0.5463100565925559
P 1.0714725952915467 0.3432091387431955 3.8226507625899804 0.729755438936827 0.3234458061310301 -0.776940838373378
Ni 1.8165752711669805 1.3707948698708332 5.621403433990865 -0.44490394813922735 1.5219398337328371 0.40502253856325726
Ni 1.8270833935724238 6.970940428428656 8.263723259796263 0.14892935084527256 -2.5535517826656924 0.5979082403848219
Ni 8.685731141393894 5.6494550634282845 2.640867232414057 -0.15561524750588038 2.3637064103323486 -0.4191597492955878
Ni 5.599602357934368 2.6668247297927787 5.4396709826502425 0.5150832373677904 0.07438972776548479 0.9517650547075416
Ni 6.170281440513037 7.905376618161876 10.18005919856622 -0.5658496692873803 0.659082240790981 -1.5399714944235674
Ni 1.9924317902463067 6.1938638399933446 1.676373317147834 1.7452691967562395 -2.3847758294081385 -2.285899686465515
Ni 7.827633370311981 7.812704718694979 3.298629803907637 -1.4420086073238327 0.3856227938804069 0.1123186416007743
Ni 7.495868906773287 0.50977037129186 8.867973077457204 -0.8958528169209539 8.99886106450063e-05 -0.02616020333513559
Ni 1.8107124506448709 3.244190799356729 13.811572646607425 -0.39653147037311065 -0.48150977228771913 -0.7869336879200318
Ni 3.7428957993277057 6.943087348184639 3.539441878918505 -0.31908752916233435 0.2715761138449323 0.18984948609840208
Ni 4.295555606052477 7.256195679966075 8.41749305421538 -0.795483634372572 -0.6978771021709916 0.40971634449450084
Ni 2.8195202981513736 8.675269846628403 9.416542958108487 0.1284404868633014 -0.22695410426018334 -0.4792765120818262
Ni 7.819541554128111 2.1314255911546667 6.871943051356913 -1.0709968784883814 -0.6374268673047344 2.002544320597467
Ni 6.501830496907947 8.554698039277536 12.281375553783937 -0.14918851804393016 -1.2586048768507743 1.0820083991075364
Ni 3.857426841124642 1.8727309769985638 7.000107492249753 0.4805762047298562 -1.3808628890524477 -0.0719896029644244
Ni 5.4390959392316205 5.309851652961466 9.37410494112472 0.6564561160220436 0.12963013629602835 -0.6248513446325691
Ni 5.637382897848413 1.0353965814717905 11.344543661990722 -0.07452033980607811 -0.5753349830699962 -1.6246402355175567
Ni 1.3514456890422724 5.818146953594807 4.029317059099953 0.09658837534971107 -0.13232156708526244 0.11155810928566592
Ni 1.537819696055032 0.9516687612359075 12.259827346983185 -0.2026551225035026 2.524207010954988 1.6520086002281806
Ni 7.1585694161921545 4.615847297802697 13.458305867355135 -0.17289177519814095 0.39786818690666315 0.21017122837488966
Ni 2.235617090049991 8.431269745889539 0.20397838997667342 -1.1395070075446376 -1.7893481893533245 -0.3895730367774065
Ni 7.895645834579652 2.7920043769150173 1.3507470206541743 1.702971464429293 1.8628961379438047 -1.4054678320853213
Ni 2.659126265784513 1.8082680478393265 2.717683292992884 -1.431162151527632 0.9766582184047953 0.2799787360863307
Ni 6.797088132339316 7.063902659263262 0.6406358304571862 1.6595108221424966 0.8283914408441863 -1.6539032461477323
Ni 8.15805856334802 0.15033358219936763 13.372853853416185 -0.39129516167483575 1.1461206562064132 1.1894964520888869
P 0.10312570180999493 0.9283317385889529 7.763622796154689 -1.0318731730140422 1.292667622862438 -0.6517651383042775
Ni 8.492904285595618 8.331948321549321 10.792299684708734 -0.4452641596921235 0.7989610513982112 -0.5378264446015769
P 5.114140214542087 5.47410428286045 4.469927688945294 -1.3223204127318646 -0.29657983497812146 0.24052567229703092
Ni 1.3750187229945896 7.75233452526763 2.794403825186207 -0.5255933928704949 3.747414996363707 2.4080463699003043
P 5.503624427086793 6.521432546992253 11.63722390411908 0.7273686838722053 1.479587079798239 0.7558991872117304
P 8.482377432134193 3.853287277752801 3.4264926747991797 0.8966796836976235 -1.3344315941731018 0.882970561641647
P 6.659649009077394 0.7726729171741354 4.549745401245105 0.21544404673805476 0.5334864224653264 0.25279574791363557
Ni 4.565292177709487 8.850470778748388 0.15050028859760012 1.158876670320501 -1.2346334536368415 0.2679287469003321
