# total energy = -381175.5540795946 ev
CRYSTAL
PRIMVEC
9.14886832204405 0.00000000000000 0.00000000000000
0.00000000000000 9.14886832204405 0.00000000000000
0.00000000000000 0.00000000000000 13.39029357109322
PRIMCOORD
 96 1
Ni 4.5194493154371616 1.5362230254707903 4.205917608236548 0.24774430153265722 -0.6555120069412196 0.19527837042345725
Ni 4.281212792078422 1.0696033096157291 13.085235278819418 -1.1369834697918355 -1.1719013647149432 1.2151596611829458
Ni 5.061089749093362 1.79165027184762 6.709125665125936 -0.8589371748415272 -0.4117516297569747 -2.3904762222270253
Ni 1.3069340950400403 6.161661976972122 10.2216807570479 -0.15591169570037666 -0.13310575354945464 0.3406400585221295
Ni 1.704736025614593 0.5345811670884735 4.900365180298841 -0.0476998771791243 -0.9145632488462636 0.3338137796289154
Ni 5.7661930077438255 5.107007917708475 3.4430063120862946 0.21588499093021532 -1.8900230760675836 -0.2946291390096539
Ni 3.5300175363203823 7.916250184452375 0.7087975715587675 0.7083615466420833 1.5006143327821833 -0.6169462308528794
Ni 7.038745656747684 8.218446444170597 9.000821042156234 -0.3614793638649839 -1.5457407928071765 -0.8101731180639467
Ni 2.7885566761404403 7.770279995121012 11.486929864707777 0.10348150292511857 0.06472623653379175 0.7905314325736192
Ni 1.2714364871048671 1.4017255166421867 9.513079886151658 0.035260622974507015 1.0308683858986118 -0.3238065319045585
Ni 4.171087867667165 1.8682537438170026 11.046991907559452 1.6298585464937025 2.3225972989968646 -0.6205902553633699
Ni 6.866298643353334 6.850160040158064 4.282724185076075 0.0749330018634645 0.9520121377213411 0.7093763610598428
Ni 2.214181592692475 1.1485763384034648 11.899377303215996 -1.3717074478054245 -1.8071494792008036 -0.22668979485520313
Ni -0.06330925184293937 7.329771148607957 3.2995154659895793 0.2787528340990296 -0.45697707725367753 0.5646921586441694
Ni 6.1908377171023465 1.0831436342920322 9.578237209335553 0.14875605849220186 2.087156497421909 -0.33132572309973907
Ni 7.458578061525303 7.748249520917946 11.486354400909034 1.4169547496789985 2.6474132460025435 0.6917087685767507
Ni 4.081401514422706 6.760857939370635 7.514846344536565 -0.1574013928720257 -0.5407505602269075 -0.5645708025749567
Ni 4.416981993562436 4.292831854469575 6.821564338260597 -0.2012566994940792 -0.14259672375902538 0.9050990181095702
Ni 1.4161532815168696 5.071107759580221 3.7366145293898922 0.376907525494596 0.5405039914337401 -0.8969763890024358
Ni 2.1322626284008406 4.875806873860598 6.030479103028806 -0.0483105141799297 -0.43162420031118565 -0.634368797204701
Ni 3.461300388588143 9.296713731805555 9.914467258105024 -1.5569968253369701 -0.3866864592582308 -2.129092732644379
Ni 5.963442602352674 2.5318485882401767 0.15964042793361433 -0.7013722598084438 1.0611955761272434 2.2636020514095794
Ni 2.953849274739609 3.163276012689106 12.808565275776433 0.4102462488560419 1.7447536905724015 -0.5243836888331097
Ni 6.013093509121793 3.6066484548938385 10.178912543693633 -0.6310950115494356 -0.2401407781537864 0.9029382630128255
P 5.551716094644788 4.466166308062304 12.303443463726943 0.26675478119688895 0.31207741639308834 0.028595552249505593
Ni 7.27685409595408 5.979535461207821 13.407432793812866 -0.7409261108416659 1.1930180920889002 -0.8065956851253335
P 3.858269772172464 2.6052225097969 1.4690621001895239 -0.15327374385689735 -0.3723049937255782 0.24247636826549854
Ni 0.4371182760231642 2.6767941043527923 11.528747510674295 -0.3925532024516529 -0.6360263874127821 -0.7191131287316325
P 8.258838696498893 1.6664114174598401 9.822704111818997 0.2969971250211982 0.42223530289711797 0.27842604688723016
P 9.093462479772617 1.1762059198375432 4.037923348909736 -1.8523993521775386 0.3789402396539087 0.3444607178198003
P 0.2744340196977891 4.000717647314382 7.24144340226514 0.7500802665371082 -1.5578157216938395 -0.5473644659989992
Ni 7.032378044602613 4.911240439719599 6.252624597306004 -0.2833407105800282 0.8390304086152711 -0.41663389754994057
Ni 8.511795748509101 4.213200107184073 9.474944659565013 0.5199169113110078 -1.0892319134391695 0.5404523122601983
Ni -0.045913594181099616 8.857531471156058 8.081014893366529 1.194079443473879 -0.15860724025466877 -0.32108321943612445
Ni 2.3657691869908986 0.7204925695545232 7.425305458293696 0.5909030127115823 -1.5137205311468382 0.4428275252261728
Ni 1.849105163041663 1.733280493851124 0.9074359643337399 0.23633914501950906 0.6126959402169577 0.12014610806499308
Ni 0.25157557293850297 1.8039737970766607 6.707291317087018 0.5463105708131881 -1.1092482086600963 2.0365759562608794
Ni 7.806582703442344 3.9897207079488988 12.343801865243549 -0.21227387654018928 0.7772861375279388 -0.33171884477309965
Ni 2.1586937081237054 2.957783287990156 7.94316249463333 -0.48686615150362605 1.561709143210975 -0.735667690656204
Ni 7.069888403503182 9.17210614931147 3.2433029910732674 1.7230810906949745 0.4403867769951641 0.23719429393095282
Ni 8.47448666470507 8.352330978841557 5.708723478360943 0.9953077151851826 0.9825339604592821 -0.5178464019352242
Ni 6.506034518283426 2.627728725137242 3.37213094638707 0.13409228583244 0.05942487892553637 -1.0932688025127042
Ni 8.735631953597231 5.841780955362485 7.74291024153883 -0.5944179678433763 2.809583263907806 1.1424372938175549
Ni 4.8798232269233655 7.079915562858066 9.591600960858983 -0.3997065256669826 -0.5571899367298533 1.3375804242147287
Ni 6.058956784528759 7.2740179468664765 1.5824110856926257 -1.0655829065616618 0.019799294114114286 0.708413225815625
Ni 5.3464612405144765 8.758129020069548 11.002000519275226 -0.4265676117238847 -0.10769759788899516 -0.018218837000871846
Ni 4.798599576601596 4.568313419556173 1.033461621371629 0.1166344953673088 0.588367133663606 0.09398179096479943
Ni 2.019191768485685 5.810217360677859 8.078859420059949 0.3500690651455133 -0.3133513980095055 0.3454994434969598
Ni 7.097298412104672 0.8908929811717863 7.326633086875543 0.7360011627362228 -0.9745722824100441 -0.015772946563540575
Ni 8.880723851598239 0.5826118093304491 12.58585804100253 -0.2788281674216553 -0.561336097687743 0.10335808997337684
Ni 8.050372589691973 4.656517656180658 3.9602055448149653 -0.06553793380180971 -0.8872439922060202 -0.4708021560622279
Ni 0.27666176906176193 5.147537403057138 0.7921803547343265 -0.10228182619006256 0.12077628544982423 -0.08537553735302716
Ni 6.976716331541376 1.8899914542432839 11.798294205073379 0.888616961294147 -1.7051815847067344 -2.4750449474080405
Ni 3.8616822999456133 8.644792842981682 5.6592061450649815 -1.395901271442809 0.5067189245634951 0.10405948691577563
Ni 2.2655250400461324 7.473261994704672 4.1403183947270685 0.10969200261120464 -0.6914850826017188 -0.18475998739063665
Ni 0.45301717887619103 7.044170935486231 12.161867475707762 -0.1029397714890356 -0.45811401907159816 2.18012604507211
P 5.7863479640018625 3.540996177949817 5.22265601374614 -0.9735353565050976 -0.6762790642852418 -0.5550476935758699
Ni 3.933656444694584 6.197031500754953 2.954541844049066 -1.0244054038820873 1.040754534664072 -1.0995973158338932
P 7.629616149243876 6.024328319055916 2.346300395834701 0.6624879240384203 0.5605387985974282 -0.8133157774579864
Ni 0.5009023541165767 0.27647055772004925 2.1618226209880946 -0.5170095078562257 0.891372412552097 0.9618761749996144
P 7.342890625355132 0.7754955641179925 1.0385163709551817 0.8951473062134971 0.1457265276372587 0.2670178050502885
P 6.9260590492895595 7.2514842849220615 6.673226421884485 -0.004915949244378631 -0.8183104024591004 0.785806259183808
P 4.805982713097391 8.434679939930344 3.5221019357055594 -0.19641685490327465 -1.0470054006697904 0.706787517286744
Ni 3.620353459194583 5.3642374910861355 11.341632117176216 1.1225328415841442 -0.9799777696963315 -1.310014341671002
Ni 3.7883632715970363 3.9824382090013737 4.347895231562006 -0.10039952156568516 0.32901892934343335 -0.17132185960785978
Ni 6.025334694538613 -0.39488069701432044 5.4327497041746255 0.9395764830611495 1.0643636894425799 0.43832526648044506
Ni 4.816558804533746 6.828788284452765 12.587384072189021 1.3255517751849686 -0.4152920388100654 0.28277892453928716
Ni 8.642798389752334 2.602203383348806 0.719526449091133 0.3176243143532465 -1.8790082130143186 -1.9631095116406125
Ni 0.5655235536342336 8.596715541512781 10.48363572076023 0.038278326754908276 -0.18871280139079757 -0.519227341443151
Ni 2.3332998543718446 3.976683571013945 9.984150526300652 -0.3102082243948335 -0.867312543389416 0.35573140563761313
Ni 6.172192324068356 8.80725844136127 12.956152984974533 0.8734343400164376 0.4052590800540956 2.916327753854913
Ni 6.614869452303223 3.1463048625036043 7.746927509488401 0.7354951696340817 -0.6742982864097871 0.879917119527304
Ni 6.583827343095996 5.946206134994461 11.013395434399778 -1.1083133555506526 -3.0982261034270384 -1.0491795255029737
Ni 5.307185150085172 0.3810860338069354 1.7630600592709662 -1.364874226933675 1.8219479776662169 -0.34268819930040983
Ni 2.3936640855976883 4.566959387088542 1.530657769051469 0.5387371293413044 -1.6327186416503168 1.3722712907286947
Ni 4.8597597593455735 8.864246740286063 8.013286738267741 0.3010944350190234 0.7966884533139506 -0.5113001161762742
Ni 1.8288038248952327 7.620156219706512 6.332296599610814 -0.8892862194470296 -0.4839520631806246 1.5693309214222908
Ni 2.487540620397382 5.994320031935459 13.151731996282102 -0.6092020681310863 -0.001364484447694424 0.13750362550683415
Ni 2.7670202408106985 2.3212050508434174 5.8028442879368916 1.147521907429314 0.9530997143585651 -0.19444841832299414
Ni 0.1033291452426373 3.0219260017101304 2.7883810178743693 0.4343305434987553 -0.07947536981850828 -0.44184484959792936
Ni 2.8721498832805636 0.14925280317856388 2.62184600299747 0.9131725391463241 -0.8524888481130221 0.2514754864403153
Ni 9.04547666698396 5.975491661540979 5.48157080861392 1.5892448867373983 0.884321933463219 -0.15296161193311722
Ni 0.6462769521395426 3.142508082273425 4.979702334033953 0.8531771324292984 1.2337860180348814 0.4568660055971099
Ni 6.488212523371642 5.261248683734011 8.598549889551698 -0.9426003574891378 2.1214457576220815 -0.17784166300424856
Ni 7.2599652855808 4.132232625166989 1.4491779504250124 -0.842946970060858 0.23798439393241594 1.3080055387710894
Ni 4.338237686475313 2.340948308040351 8.729601019795462 -0.7359448555769905 0.5993544859130452 0.602881011009065
Ni 4.156495423168041 6.227140425423678 5.312398175085549 0.15687225984143305 0.1299659223688923 -0.9341751095399201
Ni 1.9567873396903712 6.939800649062402 1.8809212664837658 -2.1685213709536457 -0.1492168001787043 0.38832810862671185
P 4.189861344853499 5.042151592282587 9.151475451916156 0.04553552253795383 -0.7677846257954068 -0.7416871573774065
Ni 2.406509096304127 2.2865491387665005 3.348644887281301 -0.3598490273504125 1.2339140589723134 -1.0357647947589645
P 1.2663680142192781 4.509852152879431 12.006272677214595 0.2615652665761495 1.8292080016627401 0.21896260141427448
Ni 8.564712801162978 7.894539920630168 0.9391752172844365 -0.7484594431042335 -1.05410293094652 -0.9562495728414564
P 1.4771762312404788 8.859727199481945 13.573874490235914 1.0303454235156062 -1.384974854338292 -0.34361276799720825
P 8.371937003018123 6.750217805858108 9.818338271997693 0.7536834105073342 -1.1979836636242918 0.10108677744069687
P 2.0997109559695657 8.014060732502616 8.682011352992268 -0.22874693449454797 -0.1107880638888608 -0.004780709218094993
Ni 7.62730148563367 2.2936395114855106 5.4569594387411335 -1.1292423923938357 -0.07425191663603986 -0.7792651156311805
