# total energy = -340875.5019017665 ev
CRYSTAL
PRIMVEC
9.17259805450298 0.00000000000000 0.00000000000000
0.00000000000000 9.17259805450298 0.00000000000000
0.00000000000000 0.00000000000000 13.42502443318434
PRIMCOORD
 96 1
Ni 4.19444557598116 7.986819494821053 13.257774921365353 -0.5121051285760728 1.275911743560338 -1.706626801793693
Ni 3.85862759360221 8.451209782217777 1.9242358465936538 0.08379713712231375 0.31371083823145324 1.644022753809227
Ni 7.621603336114647 2.8950186645137985 9.651787274961121 -0.33871070270990056 0.33815868686117245 0.5778310100189726
Ni 8.496586624118537 3.7120219610774834 4.01264560250454 -1.078418624873749 0.270185918365625 0.16357384023132476
Ni 1.9489936056343526 9.026460088052458 3.163995925863675 -0.9880266081427372 0.4235599352458124 1.101686080042122
Ni 4.071514418683006 5.785781243593606 12.20007164831366 -0.8121754932059561 1.1593438397649065 0.09866402693181717
Ni 7.068037051758315 3.709031694156188 7.299723116272224 1.5639555160429903 -0.0725408474822041 -0.13402955091530466
Ni 2.1706952973144276 3.2722417538949764 6.278037883465467 0.7212440590317062 -1.2664338859768898 0.6077283117990373
Ni 1.0646267499602635 2.3766843287608252 2.227802057432831 -1.1924830455210367 0.1818440992954223 -0.29350042472184934
Ni 5.968462703730155 6.127854937752689 10.116427057021218 0.020109369155365365 0.24467466146839797 -0.4221951936878019
Ni 7.746488256769351 1.9707968708856367 0.15362358719185193 1.4486219988752922 -0.049553899668727565 -0.7077169710795489
Ni 1.9302172976960361 6.81393774423157 1.93477424434174 1.8842712611854708 -0.12271361168185316 -0.35314487585735954
Ni 0.22293632335984886 1.377183024018954 4.2437308618548135 0.7859546118362141 -0.4068307954165897 0.3931931500284971
Ni 6.080551850289133 1.1588109853831434 1.3636736218052008 -1.272032720220906 -0.7318658004116104 2.271692284616881
Ni 8.673342586000002 8.249871257915848 12.481647472904022 1.0262709963359165 0.7045581137355931 -0.4919736479335204
Ni 1.2058205497133205 0.7778546486493053 9.927133988305316 -0.5097895930690187 0.5556390473029655 0.7583581902751844
Ni 5.005807724825223 4.9562665234696555 2.9564860776824586 -1.9112691299305538 -1.1924313663474948 0.31236872238126207
Ni 2.399047122485113 8.61047359986946 8.460316337430852 0.1275136041736578 0.7700351123924802 -0.47478248086621455
Ni 0.7274347124131847 2.7224087168913056 8.278635607727166 -1.0917289688294103 0.3574082791194038 -0.13256427922368783
Ni 8.100954130715765 5.721123600869037 1.7805204996729156 -0.22418014105947195 0.9266127238116301 0.5276196792719042
Ni 8.096294450973378 0.8244055830835783 10.876270392398576 -0.35900956216825264 0.20298448081846332 -0.32364558084666195
Ni 1.5568191816466985 5.326435885051827 11.699962347364128 -0.008145254814953715 -1.1048284823258456 -1.002778569640931
Ni 2.9198764048718044 4.461790114901618 1.7029909502898997 -1.249833044195415 0.994160746064933 -1.6237974279012872
Ni 5.385406517067185 5.483938563903236 7.113114866966944 -0.07778255549711766 0.6812019555081559 0.1686638531597224
P 2.524491571612821 1.6979671184101655 4.827611665070618 -1.8216204191234693 -2.540155049643812 0.1473625205787849
P 4.458854883567831 0.25671716697256625 8.824120833317664 -0.2663053523642962 0.11639358300109631 1.0240775882290236
P 6.27524941369837 2.157294131756108 11.410062390163102 0.06230040070111851 -0.07023945304253709 0.31950610475699165
P 6.949288599110808 5.37576611665528 3.6708984528313406 1.1424964291902646 1.0410864640821942 -0.16269400872953269
P 9.064443816031241 3.4352021285076453 6.150164530409051 -0.029737893384064913 -0.33655971780516875 0.3545250440343378
P 5.489047700943609 9.211489733256036 3.2517694326016064 0.2929360675779471 -1.3973724566716965 -0.2618737989555038
P 2.575381144862347 7.159295228445327 11.169418366522391 0.23263701357757355 1.092422909572641 -0.018849014385703022
P 4.170220744879502 6.241053968659755 1.0518401484624553 -1.096199088785622 0.0009333104475467797 0.6928619083445874
Ni 1.2786234593891483 0.09335044627212619 0.8110511977746407 0.02786638739296491 1.1183388581074547 -0.314442059970523
Ni 7.970051985826797 8.637000753048557 2.956525519853506 -0.7357314540146038 1.0266137243873157 -0.239126220846343
Ni 0.3617984487221293 5.1319676365905424 7.61457987788877 0.0003653537592187256 -0.5021991823162707 1.2188165412092429
Ni 7.51457746360645 6.086037063844147 8.353882097488372 0.10219646556510785 0.21225099372205383 -0.31074892738965193
Ni 4.811761415868171 8.056540411596405 7.270281828734552 1.4118048300469428 0.1989545337234638 -1.5795366583106991
Ni 8.146257591833178 1.3288159151969003 6.441326637083604 -0.6256293604491742 0.7160571155141281 0.3269666748000949
Ni 7.1428579329761215 8.49973282520444 8.743235030356422 -0.311834704254663 -0.00962801000806729 0.8356895171674963
Ni 8.7929991258414 3.410133418397524 11.970006381851876 -0.5225798028551516 0.39372356861067026 -0.6961007269968592
Ni 0.3124590445207589 6.650922334031392 3.5321913443738753 -0.6630553665061162 -0.35434840924715744 1.0778234144919114
Ni 4.217973289641043 1.411286743078388 10.623637783278932 0.19219304662991418 0.7621400259151198 0.7756920535679416
Ni 5.753044241623966 6.947160556393813 2.2822946271445805 1.6010873878982812 2.2715619296866043 -0.08932372336749778
Ni 2.9869739586425843 1.5520219129355408 1.4531779977702748 1.4879945871356437 0.41138653310807216 0.24980041273073753
Ni 2.918894936894569 2.0074872625579703 8.616543107911856 0.49349882632879527 -0.48576057714427306 0.036178249692769955
Ni 8.481873777057931 8.486001446121069 5.118102337577567 0.1589060024420102 -0.7816919799051183 1.5315922692209363
Ni 8.155274255586654 5.764840202546622 11.482006744673797 0.7341934201035227 0.558784792020799 -0.2091489577579624
Ni 6.214251637543116 4.4389320008897535 11.636730126356026 -0.3608970089989526 -1.865832337753993 0.5236524670940401
Ni 4.636188719118136 1.7945178840959108 4.496631310833665 -1.2541275578057112 0.11231324228413561 -1.041380598283845
Ni 4.487280764515971 3.0460179714412865 7.16932546426875 0.7867128301584774 0.9464883796896343 -0.07752724495320197
Ni 2.535920628618753 0.17138815757980402 12.070640788130753 -0.1353071320761476 -0.34229327785483626 -0.2569190260533898
Ni 1.4126626327661005 7.182428520394733 13.184179499229403 1.0667044217606145 -0.5998085427313283 -1.764948420352722
Ni 2.9588599460236584 4.678006593026678 8.185733701493234 -1.1736468866511403 -0.4578149997739406 -0.8654724048568837
Ni 6.077699172336609 0.1647077545160639 12.389834354042968 0.8800333333901941 1.0327555756189954 -0.08320089829921155
Ni 7.926454627922147 5.955951280169889 5.70195654025941 -0.6612039151196741 -0.16253794276764266 -0.11598529181908411
Ni 0.8458813865891869 4.985160206911617 0.5256008678236783 -1.0015894344288363 -0.0028333556837370558 0.5430779228085034
P 1.7653490227164057 6.588677084559279 8.528125684800074 -0.3096289548525958 -0.8851966227586885 0.6082870125159846
P 6.106391058624374 2.0486538820143285 6.058001935567317 -0.1913021593845286 0.3384898449483461 2.847972662319282
P 0.060997776155254355 4.2790444465796424 9.77619705504367 0.8105664968476234 0.9822647659582953 1.1060574696369403
P 6.8537009562064615 7.702184608825008 6.745578040987262 1.6209442747232081 -1.6394096805172478 -1.0740968575699439
P 3.4340738989637214 3.621974567315659 12.08661670192468 0.12585087175925425 -0.23894367252189172 -0.4686843383882767
P 0.5555310548303843 1.1943914927073889 12.401016668164903 -0.18254035403149851 0.023485484716449873 -0.6900815173859728
P 7.310927444629162 4.7425449919783125 13.532693274386773 0.4735730339391457 -0.8772411153570374 -1.6164376451021063
P 1.121111607939821 4.3220547582175355 3.122888928293784 1.0261465549429103 2.149822251882246 -0.7743018580886343
Ni 4.549232490854706 1.7622670298159295 13.1864754004883 -1.0157536417443602 0.874750744835016 -1.4084703663570712
Ni 1.1886494464106687 5.092195252017732 5.440235721122529 -0.31265231505995184 0.6375847330388374 -1.8975273548644287
Ni 3.087854190545665 6.5756703407114365 6.710847833490023 -0.5069348972290431 -0.2515294796067023 -2.2111985981071984
Ni 4.832940944461025 4.272752044407837 0.34039510874007356 1.5858911397738173 -1.0510461463980674 0.005546126629209803
Ni 3.0491641725271896 3.355125348682778 3.595839084067664 0.10535480868843147 0.15182724121835786 2.3228898905366187
Ni 3.975165450151459 6.8872910097824835 8.826724933866608 -0.13967826456064977 -1.3285165142402475 3.2365267709138714
Ni 5.3391307605704545 6.624688703985674 4.701671895655333 0.7202292446139467 -0.40001917181139496 1.3801964591130425
Ni 5.995833735917715 3.9392730744979985 5.052951209085005 -0.30896946689172594 0.9179203382439546 -0.019170916501496015
Ni 2.9073558087136204 6.217994057493694 3.9532401893478646 1.0544932244064034 -1.2741574798733926 0.10293437217239693
Ni 7.254066510134964 8.270133526716894 0.7376162961022572 -1.0104157744712148 -0.04016911601971791 1.1804687946689798
Ni 0.4117478306850522 7.647387508862379 7.111262002187491 -0.45978652167801454 -0.3916579443308932 0.49424496046620037
Ni 3.8568022466165113 4.856321896554219 10.1774440956321 0.7864387505614843 -1.4351859279750443 0.4759286786555159
Ni 0.3528285652180356 7.4934896609927755 10.169415320674403 0.6912009757023967 -0.14874243164544707 -0.6509464990577241
Ni 6.919771179010415 1.7060206593822425 4.1961929558845545 1.4207021325365727 -0.5237028607160013 -1.6776532973794784
Ni 3.867277353438962 8.381443002452835 4.617751797302789 -1.8251281751664117 0.7769560078820297 -0.16390294143596934
Ni 3.680064629930881 0.836515246855032 6.706658708020834 -0.03976725259560893 0.23305610339286315 -1.2337541363556817
Ni 1.9694026360020882 3.068628425309362 10.444158477075586 -0.24496365346372656 0.8005980727810018 0.7471309541007972
Ni 6.134294101491183 1.6662849652011054 8.421692362117385 -0.621856009449671 -0.804637275847382 -0.5249495886389088
Ni 1.2535730944748626 0.7680473069552904 6.792484872220757 0.2741711282656182 0.36443047607350787 -0.5046023924411245
Ni 5.819829927065532 9.183788487543424 5.501440797990732 1.9541204207681249 -0.9302323228420883 -0.12162423527241635
Ni 6.838263473910327 3.5955391401157426 2.0467120430350705 -0.318131078786336 -0.24678142339875567 -0.2594592759767403
Ni 5.017291817418664 8.157411470901568 10.720754498256223 -1.4805059920680825 0.2880779681546974 -0.7268644905422772
Ni 1.6132398314408294 2.985423789594428 13.07700778241431 0.9632694558027153 -0.7739766135387315 0.6757514739165458
Ni 6.099970240081715 6.950352620469306 12.617455123159584 1.4069181913786026 -1.8257113013633912 0.023410408504140327
P 5.651980557762524 4.196325958554366 8.934702922038703 -0.19123968157770938 0.30344673730128385 0.32353862295515246
P 8.685964080735285 0.8089791079049458 8.513438521013638 0.5058002694039675 0.20294180050598595 0.4029011213448804
P 7.277997818103243 7.873858951459857 10.940052052021969 -0.5180906567355466 -1.0303577648107802 -0.5791073056282349
P 3.9777612953622765 4.687885480984454 5.604625186490835 -1.022969442766509 0.42905129737768694 -0.38908992649340085
P 1.57327482231174 7.2228613320176445 5.268570551085598 -1.164495559169175 2.4749431317228536 -0.22357207516182787
P 8.088827956268059 1.7801719409520285 2.429284591522075 1.2979026460091325 -0.10231833585495283 -1.244259920983012
P 4.653332304627034 2.9691057378981576 2.153239843476315 -0.018038602669265706 -1.5219028098473144 -0.4428462942792502
P 9.208737953880611 7.679198078442291 1.416474764460856 -0.9912343164467573 -0.7841340136877077 0.43982370540284255
