# total energy = -340873.025946112 ev
CRYSTAL
PRIMVEC
9.20420343261813 0.00000000000000 0.00000000000000

0.00000000000000 9.20420343261813 0.00000000000000

0.00000000000000 0.00000000000000 13.47128209877543

PRIMCOORD
 96 1
Ni 5.937778981251518 3.1010710578938983 12.89298694190511 0.9786701066285016 -0.7145118825141952 -1.1366803367291198
Ni 9.116855664282765 4.459455031303397 1.7764177292561798 -0.9916778317420791 1.049902005491295 -0.20410625312773234
Ni 2.612760446635866 5.409448492931869 10.396609967553816 -0.5412920345526743 -0.3658836635802666 -2.2793215190273646
Ni 6.1143616264739435 7.8152340142033 4.257598563536471 1.5366270034313665 0.133956274475208 3.1989390424680844
Ni 5.996741109231443 8.145029831819391 12.381186282751736 0.5822592209936553 0.6395935359387501 -0.21900965260212607
Ni 1.9610660180547541 4.550263703587184 5.2780750547359485 0.42486399876921666 1.1878756286560124 0.6307767089780685
Ni 4.3133843208692095 4.44217874122873 0.1807401839686842 -1.5160664056711954 0.5685241307957499 1.5381588666948605
Ni 1.6823995511924055 4.561179889004635 13.67469902949834 0.40189350601597235 -1.7083311860793093 1.4375222894177049
Ni 3.048929244748991 3.0072157942330655 3.6520512503242237 1.0676881258301225 0.3731074350222155 0.12130516137010076
Ni 0.600543908159189 8.444295306240136 4.135333605179597 -2.4559941014241766 -2.240772455109573 -0.09045038077277326
Ni 2.3999040351991283 5.584862204302679 7.974958240192501 -1.6683603021133269 0.24934429902992544 -0.6287033713888075
Ni 7.535002832736426 6.413820389169363 5.833334281399472 -0.8593169267784491 0.769514721112636 -0.2027001168088251
Ni 5.245613669634544 7.287704291593026 2.4296400556275923 -0.6612702495812354 -0.2227971446690163 -2.593002789572463
Ni 7.460485600746812 2.512581895132041 2.863860323847906 0.27487946718655243 -0.8063807409010498 0.4923492861053843
Ni 4.6542712037703176 5.455745636818697 8.614844596031583 -0.7511081935809902 0.13970474692321103 -0.8898719167471706
Ni 7.693453196953474 3.181580226398488 10.492552744581157 -0.24922448562260952 -0.36031234014007624 -2.736961426676022
Ni 4.6531943119542625 6.842524578198548 0.16531301838842316 -0.5575028399845818 -1.1337647057442215 0.0801698247823716
Ni 8.022439044656636 9.084917077943343 2.5081509915401683 0.6408032399761351 0.6151192049464698 0.33917144439640295
Ni 1.5341566487189946 8.242410305442185 7.924939836807971 1.384000920460797 0.8818541886490168 0.23614554095146426
Ni 9.197024277255782 5.099322058315011 6.847574004269386 0.9037080512993145 1.1521079841380997 -0.03738692528889045
Ni 1.5745999191441882 3.1522740422760904 9.179291458684736 -0.8121556957116142 0.1798250119828645 -0.10309095235491923
Ni 1.6788651370268903 2.3763688867063606 5.6634081161887675 -0.4076414642433432 -1.478127464533577 1.7204271980118953
Ni 5.0475668217194585 7.220384746784227 10.184936296274028 2.21426540995798 -0.5049163241371175 -0.10151306634483807
Ni 8.29239833495498 5.91983078431726 10.53630768744581 0.4207751734118237 -0.17378626198795233 0.6911616378240291
P 3.961940216489336 8.540166290479737 3.8961780229222165 1.8994680235305674 1.487678598557122 1.7936874401586267
P 1.3144615140401268 9.171933618362045 1.9820028198836543 -1.520647854394291 -0.02108433147412498 -0.11141592728084683
P 4.76913045994601 8.968649578623578 0.7251752672503174 1.0228964234367286 -0.02558093379289788 -0.773693535080674
P 5.126492867212411 0.3730104737320065 7.250406097522927 -1.2393136327213303 1.3922994130241635 0.7618592614499072
P 7.4711716810753614 0.4797120442959895 4.638068123830283 0.729655165913537 -0.9041471957192623 -0.43424235466032307
P 7.299319996480735 7.875392688645508 9.901419214137652 0.7476847697217381 0.7414480447834069 -0.05421222437634535
P 2.728006279360911 6.046011210866868 1.265501594064539 1.5714613375017323 0.5127378770640654 -1.7464819861174181
P 6.410331996021627 4.283949277897028 8.870946957876326 0.23079790348630572 -2.707467016761331 -1.2118964170506419
Ni 6.279678326543789 2.000717726974129 8.577313535611518 -1.8757801929953244 1.9799859756809772 0.002511967788576319
Ni 6.603095631095553 4.5964043760135604 3.885293131796856 1.0910759086264434 0.51812562373854 0.8511336196367084
Ni -0.10213904686125919 1.3647164654560477 10.442776411750149 1.6154781094023147 -1.0275922862505014 -0.3719249846783401
Ni 8.74357918906799 7.315924379695812 7.904840617502669 -0.9560053180411341 -0.5691283400386521 -0.7033782344948789
Ni 6.818115030367958 8.596127848100396 6.562170980824379 0.32820337542067346 -0.24811196928472107 -0.5670398329407395
Ni 6.838824488369023 6.345469973562287 8.52271420011715 -0.9171778036509753 -0.56872004885664 -1.2131850539550784
Ni 4.317636662912095 1.0687645043154756 5.183278201051334 -0.1012652120000901 0.5156095421849055 0.23884288527796932
Ni 4.481821245944549 5.112493273603689 2.8281470936301565 -0.9270420980395646 -0.520891102298819 -0.31989459844466195
Ni 8.350357204747297 4.142425444019518 12.362299257054763 -0.4738656254789 0.47046122778304134 1.9970311040887219
Ni 0.16136717632395334 7.050419923918586 2.1259031791193306 1.7895441074142147 -0.43805144399376816 0.6312328226788807
Ni 5.310724205589897 2.7733369818743565 1.8577433106161896 -1.224785100087852 0.136173593841501 0.35705963753073344
Ni 4.437199267104918 9.489809992373079 9.481680839792395 0.17709912841126918 0.3245351825404669 -0.6843991222892148
Ni 8.637445517863414 2.7702627778866424 7.548309349817378 0.13233365127012048 -0.03409694168370902 0.7298181738539624
Ni 2.4440565996574017 6.293880412630742 12.42383580076931 0.39507776864571964 1.1848116450187078 0.5536397574847497
Ni 2.258131687825606 8.954106937005053 5.527940648251126 1.3280393174935128 -0.30008656257979927 1.2149992243456817
Ni 4.582395578201283 4.512848616131925 5.392028617281727 -1.3386176072299913 -0.2897962363973848 0.12454500846363711
Ni 6.644606589133246 0.8651583174525475 0.6687047171730097 0.4262613933373755 0.13844156394007126 -0.5501029479760848
Ni 6.188694774392437 4.8879107068365695 10.891059782583719 0.7685011922464572 -0.09412063053550888 0.2008126699781251
Ni 2.9638087702628306 1.0202307389645322 7.745757924501322 -0.41196631687094215 1.268327503455177 -0.7812173542615449
Ni 2.579017836399462 1.4201625876775694 10.754623112011627 -0.5435198954419285 -0.4550744609143259 -0.16014681682764678
Ni 8.381172878252885 8.144348720756247 11.861059501061577 -1.0233617931089214 -0.16764518208722096 -0.28437943625718765
Ni 3.9751942696100184 3.182187703833186 9.201963252883948 0.34590387802423006 -0.612628577314132 -0.34364619233830496
Ni 1.3209596817506837 2.5539179733021697 12.741865884979731 0.12135195544763618 -2.205113825365699 -2.752521485897808
Ni 3.5503834586850336 8.31734172659182 11.479297670588497 -0.748278180331363 0.49704874846358277 0.9611151284638737
P 1.02141808122326 4.1925699449927665 11.445255003316166 1.4720894858696132 0.8452535067068475 -0.6409207393906059
P 7.129750954368004 6.0065896070363936 12.717470143454474 0.22787713029508494 0.5740355475322824 -0.42985065335053063
P 4.740063585116069 2.018693536519055 11.00914971420758 0.5368738508803206 -0.7172354520929454 0.018642554801851768
P 7.399231626081435 6.250869169413416 2.8039400382777986 0.6863639593250696 1.3512378670971632 0.3114382401471927
P 1.4633303023553477 8.774118736466896 11.692264532467908 -0.5004318060032027 0.5260366510555005 0.3594934437832067
P 2.8418254605347717 3.097518235321271 1.5297450739545897 0.22020881511654977 0.007471111566064554 -1.0130048753546297
P 0.09472414047652183 4.9182661701643555 8.927647613042534 0.716412699081334 -0.6916648027126926 0.07942857574097288
P 0.6908049303313921 1.03764509209254 8.434976050139655 1.297655820105649 0.6257558587247094 -0.33375798669031553
Ni 3.7900148982662616 1.5978865541409428 13.04563037409866 0.338745669712894 0.037053967429503926 -0.15966602053648632
Ni 3.372880393107005 3.642618782520005 11.657414656543713 0.07503044667327723 -0.48312031130794864 -0.17053381648892565
Ni 1.9904918568233805 5.314994956039894 3.0490627057005537 -0.49053948659015517 -1.344953062529716 0.016680545979474496
Ni 3.4234114706296066 0.9705648565761972 1.8687635035338237 -0.9021340219439754 0.009411266011570888 1.325299035744214
Ni 7.560875848932425 7.357490562954841 0.8547354773456998 -1.9253880858304389 0.5054480282708714 -0.6887476290658977
Ni 0.49257860044696317 3.1485463398358986 3.560324918945901 0.43359469377399523 0.2952328340319238 1.1224600793646797
Ni 6.598723634406439 2.0901273603173998 6.0502359402990855 0.1559842008095249 -2.2942925385149002 -0.3913321855603583
Ni 3.2699405805363715 6.565376804922944 4.838965513586672 0.531875883445097 0.4334604821889761 0.5720105466824537
Ni 6.611140105003522 0.542604367194339 10.595432729828676 -0.15706457835789725 1.167126826144435 0.6514473499535425
Ni 3.622590435582085 7.82636189630254 7.149155256304825 2.499051080514651 -0.8352855968608582 0.5375989019718032
Ni 0.1647561640732834 6.195717581705687 13.192615061945961 -0.8872542766186655 1.2635593926425723 -0.23041969421128058
Ni 7.82717186621547 0.5440310187455236 8.432955727459106 0.6998884761740656 -2.2475568250212583 0.2209174111478002
Ni 9.310420065066067 5.76064408381573 4.387745081398372 -0.9260655930589082 0.12647230739333704 -0.288029117194633
Ni 2.611269365659789 8.227481087274304 0.4299347910446265 -0.14268979769346393 0.27582974691496365 -0.8326260477508242
Ni 6.475893537951225 4.900069459734085 1.321065530091578 0.5159309300800663 0.4170239338995076 -0.8432354478355543
Ni 0.523118147845869 7.740919274691918 9.977585839404506 1.1440272640124942 0.4671504182422535 0.5094322097296
Ni 2.6567657438372425 7.569803926381773 2.734818310412728 -1.4406351240150737 0.11676176497379245 -0.1018298262543085
Ni -0.0837251172270666 0.14445077060832673 6.387502809941608 0.010980153160587541 0.6076108123845664 -0.4657836198017139
Ni 7.969293973324121 1.745531183383212 12.340004835201348 0.022711325554586693 -0.7226473671371362 1.5654359572432588
Ni 5.766709653959154 0.5385572788907528 2.817612882660281 -1.2365270711151284 0.25242859438220394 1.0006597235257153
Ni 0.6415339082756107 2.02468547303403 1.2347429866209998 -0.36874581561941006 0.04722653708713157 2.769979276362939
Ni 6.734163489733413 4.272002221681301 6.455317540901722 0.49564209792404307 1.2155574108419969 1.1247118515133339
Ni 1.659140528806319 1.0781343835355137 3.7766605193268177 0.8113272862730477 1.3640985251099154 -1.6274072567397326
Ni 0.32066892936993363 -0.0445768782422064 0.03009866604857202 -0.02798928612407438 0.2900967983569391 0.7715471781616325
P 2.9784342497133616 3.719142530884834 6.9974285627854576 0.9708819780426504 -0.8698548501952955 0.8399495779954308
P 3.0475578184191425 7.337397786592029 9.4448511396833 -0.9352917396428667 1.035151329544682 -1.2601318550182619
P 5.421349528129815 2.8549506548056693 4.262623138257707 -0.6907762294601523 -1.2016287165760466 -0.8433426628373798
P 0.9084760606482891 7.178073023037159 6.053064392051853 -0.40352255697896316 -0.42138375353010005 -0.7594079716959373
P 4.503257836026542 5.602607908758704 11.627535050539775 -2.878803017436578 1.192415682618211 2.0230331845794387
P 5.3574723554509704 6.382351217211297 6.16871613015372 0.08920005330543994 0.7517010899699827 0.3286911136903694
P 7.777459962809355 3.0798553686972503 0.7994900067616996 -0.5641856513213961 -1.4262482591657824 -0.4317147031424629
P 8.826352591647362 3.54186036619215 5.5123680562546795 -0.25234014843345576 -0.753928693748921 -1.2549533961411161
