# total energy = -340862.61828281655 ev
CRYSTAL
PRIMVEC
9.32402669240019 0.00000000000000 0.00000000000000
0.00000000000000 9.32402669240019 0.00000000000000
0.00000000000000 0.00000000000000 13.64665555138873
PRIMCOORD
 96 1
Ni 8.375111213609243 1.7390894952498248 1.0351497189362764 0.160673121644762 -1.687143239147785 -0.7384655651163152
Ni 7.477347299059204 2.929497313025365 8.372536849826647 0.6355401918049829 0.9063604013204971 -0.66646207819482
Ni 7.8883876938146065 2.2774494751242047 12.16013926207103 -0.38874848399358214 -0.6441667571317293 1.0055103667497973
Ni 7.605515370611418 4.752531021005044 12.580783404367446 1.157921248385767 0.29480603090715035 1.2993398926762914
Ni 1.5685903423032392 1.5654015251585534 8.145688873686503 -1.1670535497043386 -0.6455898627315011 -1.185023761029514
Ni 8.372341977667803 5.405007764136192 7.697832559352757 -0.8605479709720727 -0.6705185076523807 0.48467839982368793
Ni 3.2055444486557167 3.3439503015671854 11.137731758076065 -3.9265530095818764 0.18824691749797257 1.2136617364811808
Ni 6.6743248202026075 3.7090978367139744 10.801137190011653 -0.3011268309188556 0.33981550573830505 -1.7844268407923076
Ni 9.76523968413092 4.484894157493134 11.043009902838776 -0.31204682026546904 -1.7671107181113632 -2.0600915228843166
Ni 4.232446133538808 4.902601231366813 7.309939993379221 -0.5660998376249734 1.562965127105263 0.36781456205439234
Ni 6.631201196535433 7.515184199565452 1.2182493616177419 -0.10227796953532063 -0.8466930673668516 -1.29848191555137
Ni 1.5099701861960984 1.0164494509088418 -0.12236945932332295 0.245536495248061 0.08442757161746105 0.11196820023989106
Ni 2.9365369532131953 7.370727053300471 6.817609936306515 -0.23233233785296117 -0.39486333864206835 0.939881158785762
Ni 1.8440873603559993 6.70232487249937 0.32938896020063074 -0.21006787002780594 -0.6802501331178479 0.661819437216486
Ni 0.8812594548196019 4.890834309622385 13.219078302828805 -0.057826166979848805 -0.7690534652055014 0.4035410689217244
Ni 3.366467826141505 0.7620368545206404 3.0519516209920114 -1.7016542882797663 -1.4207381279808307 -0.18787719286337967
Ni 9.659039019575435 5.333445858915529 3.8524239785355334 -0.7367940909511632 -0.24875911595041675 -0.8184327869695776
Ni 5.0986388935511044 6.457895511540453 9.295119458750152 -0.8964143458513788 -0.11269659376548334 2.0532122792659804
Ni 0.8060966104723954 6.697849339664722 11.504648993497886 0.42731271742002536 1.4067338432819387 0.424748813347591
Ni 1.2312284068382193 1.7288890099975247 10.685686158528554 -0.7479657912972667 0.583816023957814 -0.06742383797061291
Ni 8.922804544249209 2.4385686571715084 3.472105319481964 -2.249648931663597 1.5918203607740584 -0.5812492916719021
Ni 7.7638653167172835 8.753573458939107 2.579244910593887 0.2105584365109793 2.1651516831504645 2.0897152592880204
Ni 4.751551998197465 5.499963652444626 3.6795481311732154 0.066712156615569 -0.5219948768859591 0.47472308838318894
Ni 3.698515066365381 1.5574108342433601 8.736043356267398 0.7438584539971125 -0.8859810663331967 -0.04164467212397989
P 8.498906316620936 4.602675263258269 5.5502994107943 -1.7121880979315545 -1.1334127217214416 -1.043553694675764
P 5.152186779112312 8.561619720466432 2.423209187924603 -0.3357300228150218 0.0411744173557807 0.35817498208209925
P 0.6555648607870542 3.897443176838716 8.69727312068459 -5.409073460976827 1.0653219395907911 0.1449485118206536
P 6.576590371925996 1.1237876467264667 6.751519369976209 -0.9762504414434153 -0.3614821920784613 -0.6758226934741135
P 3.206392935088952 4.972941689084687 13.01295950293447 -0.4748310747159629 0.5809425590647608 -0.34390433109569807
P 8.94410062132074 6.26972732792375 0.8319642578539832 -0.8173135857634698 -1.0967791296588079 -1.3537356938183525
P 6.9398731017250155 1.6109493957778287 2.6868768132537855 0.7918295825597524 -0.24029658700536033 1.0362759300674285
P 1.4468185530938766 8.882170435721306 10.822616950409937 0.6075429352611085 -0.8450033383692545 -0.30860077069839753
Ni 3.03424342940959 5.604001142796698 5.318456553530155 -0.017031758671306154 -0.9786953034394822 -1.1881875034694762
Ni 6.3510235170597715 5.282611265135326 5.670499169095493 -0.22145400037756052 -1.3489876376104057 -0.21012726251083166
Ni 2.8184854506726333 8.026728278538902 9.321785242820583 -0.08679915717343116 0.8214852006426561 -0.09956879813427368
Ni 3.407735968487649 0.8925219467174571 11.13591637007001 -0.9843579010418984 -0.2583693853466712 0.5229942646847509
Ni 8.270439689438927 4.0865437631293045 1.3278943216505583 0.15777883081610244 1.126661261930221 -0.21898085624671965
Ni 2.514829871868551 3.6465429413230392 8.843538195734236 2.5361299876448196 0.4907104649503807 -0.34197831771757875
Ni 4.878424030032978 7.863874827518173 11.600967122112866 -0.13974922700790127 -0.6886445278291301 -0.012207597809785427
Ni 1.1019787481843 2.5153053972322326 1.8083726083355134 1.7179867068912027 -0.3385582362924363 -0.6484664129483477
Ni 2.5644150460657484 8.249041048073272 12.638004024061086 0.7631517550090857 1.1489049038197698 -0.8956946940765348
Ni 6.895276281833103 8.317041175079694 10.344847293492618 -0.4415023786568461 0.36398156146154736 -0.9795321975184809
Ni 1.525811707625402 2.897031051920694 4.572652829561851 0.4272299278982319 -0.5948748528751368 -1.992852290120684
Ni 7.929702456294444 5.9696055552536915 10.311112964751462 0.0516164386247111 -0.06836383328637903 -1.2104092909821542
Ni 7.250214007700853 7.960089459436352 6.02211940624956 1.247103303969078 1.7177000288887192 -0.9301171374204628
Ni 6.093484574506034 2.085085479475019 0.5603469673272584 -0.9889714885545096 0.4188687004177302 0.22393460070756915
Ni 6.895994231891994 6.639070675103021 3.8073348500318094 0.5931704685895204 3.0764876833086827 -0.05873890860210529
Ni 4.894983501521173 3.567810859540202 12.444563103323564 1.400808221826123 -0.0653957517969906 1.7134955038890682
Ni 2.34194376807682 5.887777896593556 2.6197074570297945 0.00415953069432832 -0.3295238940043099 0.9758411218201387
Ni 0.5532607070057335 6.695723461568265 9.07063139377761 1.9015565306284798 -0.06336535163052312 -0.23304350498737283
Ni 5.7551436162334335 0.2788005207263337 4.583243059131835 2.396588248662034 -1.4344387653963748 -1.8052715454518005
Ni 4.566805732393918 3.4424306719829043 9.56786122690158 3.1056031126173997 1.2844812303969042 -0.7826713130992521
Ni 8.52979681720674 0.7097803466627634 4.739251742123575 -0.3489362370926507 -1.7280862572190496 1.3441043413761755
Ni 4.893062752012971 2.16378958917764 3.0836122861864457 2.457178865760897 2.634391636931895 0.816222152471504
Ni 7.892369053232095 7.272134794563886 12.249469965047918 -0.7589431162443768 -0.9177408752432968 1.7168194260559788
Ni 3.572062615733117 8.670878665792259 4.896992829283395 -0.9134178223879107 -0.5272756656689241 -0.03045574538669594
P 2.851912086531406 5.926425987426083 8.675520166302858 -0.175931076245097 0.18500604196317172 -0.21719188266709694
P 2.593235612715529 3.726561738795838 2.847005783661424 -1.7180903223486026 1.4960089727996881 2.881587265049934
P 1.8996958558264923 0.6593261731735057 5.997432180653111 0.08618929150357414 0.8128583782055937 0.35884783977940776
P 1.5220727729031238 0.1590604369433661 2.1047097585522736 -1.082129755176749 -0.08404113481231978 -1.1548207550835725
P 5.118648254932673 7.37519326210838 5.261754349723196 1.8334246108472487 -1.5992853016925361 0.851266802780463
P 3.6641373797792465 1.527359496064051 13.227075520562714 1.3784478518530519 0.07109974416030336 0.23731847821364294
P 7.219258238927875 9.207476404612997 13.095057558370032 -0.9013683474225445 0.23894598651473686 1.3511010844089828
P 4.5154583171430795 3.616556871330902 5.158449727872796 0.10712681298718968 1.2899970180088105 -1.6756280394193337
Ni 9.075550750285027 0.0077100377103539106 12.010203317694302 0.15743353166154175 0.978408882547315 -1.4862359525733244
Ni 5.596047747988461 5.969111381836532 13.415767714482143 0.4136293063956618 -0.02976231886409713 -1.670796165248329
Ni 5.205249815283099 2.870886480944963 6.971858243049962 1.6355550826578478 -0.8651343047911745 2.7257635010776733
Ni 5.7263230495836535 0.8002756205793323 11.892514519793881 -0.204303456740203 0.7763466564328049 0.712188119477025
Ni 4.828409950605794 8.910151839964591 0.23834450110914354 0.46813720763555505 0.6407690443040899 -0.4929858912481187
Ni 3.2641832528163355 6.129773686573633 10.88906182975632 -0.5756188328590022 -1.060718636490825 1.2152452789182167
Ni 8.588547509688226 1.1513681178199808 7.305205252601234 0.5234753180862275 -0.40209945137919134 -0.9025073461229941
Ni 4.185835323871304 1.3679652589634341 5.556999656408837 -1.8007602878450082 1.79593329877001 0.4613073291979152
Ni 3.687829731722661 3.174346255187529 1.352327933719711 1.5145710520725915 -1.3333429890946134 -3.854067955038272
Ni 8.90700031892686 -0.03518328249637132 9.289660241094555 2.981230882286201 3.639695286987525 2.6589369303714276
Ni 6.154883290581352 6.701662866600911 7.428352335754577 -0.08772886807655214 0.23616276734264488 0.46267232786624185
Ni 6.092906484848225 1.66543900803966 9.753756212799352 -0.051194263485627965 -1.5995416406777163 -0.35624974003492843
Ni 4.235066185052424 5.488970624919523 1.387864596829485 -2.2661428155535615 0.785138286582506 -0.0069018693261558555
Ni 6.5968701300829915 2.71138035552348 4.98756642502457 0.7600301786609684 -0.6839229539837447 -0.3037257019942834
Ni 0.3764622415943818 7.4105499715020935 2.363286465282045 1.2648097201099056 0.16269349450890044 2.739949562770068
Ni 4.577062161806652 9.120949436476481 7.407076771541872 1.085330264391918 -0.4291292018034738 0.16471361026272277
Ni 9.131448290584425 8.491941268647015 0.4757444783096417 -0.1801893373008187 0.49004480634192377 0.03856988985339809
Ni 0.8056136258873232 5.765250861218346 6.129750376506785 1.3532500124311855 1.4653418827331344 1.0673225149605876
Ni 0.5350023978457201 8.302598257661217 6.887767643100307 0.14830791521118974 0.16148019092708962 -0.4423225605652963
Ni 1.7514531547055383 7.496759922729487 4.390934075240408 -0.2348399347661633 -0.782711165198252 -0.04638552924307496
Ni 3.110644504507716 8.047222489310892 1.550996836249706 0.5138714764478763 0.39099511393591374 1.2650974265536534
Ni 0.4985846142091253 3.235595786835026 6.560288243575794 -1.7740874065395122 -0.009432606167809561 1.4472827112385784
Ni 7.075183377759187 4.489658735156685 3.4519626245180293 0.8266130087875248 -1.4785876919994472 -0.3361779089857178
Ni 2.801459777847496 3.1214696995515188 6.331583853711945 0.5975734827532225 0.09454331989522428 2.0178914924774993
P 6.062239760904152 4.549808031648998 1.5343618401449264 1.1024370992755337 -0.8836750439078395 -0.3572568411432041
P 8.431064698069072 2.0102228687888037 10.119459459939778 -0.6537775407486159 -0.03309035479606559 -0.7476991678994414
P 0.3695279629087001 2.8924995749256137 13.129202144287696 0.07528935676161873 -0.785700586843879 0.657680732457764
P 6.069204808878071 5.796849987836304 11.313513904572881 -0.8343078063286211 0.789675255220911 0.0358000404177448
P 4.649845514530105 9.166609195416623 9.805108290063561 2.2418644026221712 -0.5291674833749983 -1.0600573487577423
P 9.037993570580946 7.62185106545788 4.761905397488282 -1.363096566207962 0.2420595924430541 -0.6077691923393017
P 6.052962354298997 4.570712499597496 8.484603259603542 1.0508846811195385 0.5231130496508023 -0.5192042015146994
P 8.131194674120962 7.778615927018142 8.45485401989057 -2.939754874529602 -4.257375824903268 -2.7024842188347584
