# total energy = -381174.52553119 ev
CRYSTAL
PRIMVEC
9.20107173677210 0.00000000000000 0.00000000000000

0.00000000000000 9.20107173677210 0.00000000000000

0.00000000000000 0.00000000000000 13.46669854535371

PRIMCOORD
 96 1
Ni 7.695785725945545 4.993762151817737 5.8117015582414835 0.3496669446110881 -0.2534457227928087 0.04824829348342658
Ni 2.445065239586743 0.19916272160067588 3.628104098526796 1.2575754071449954 -0.3333548377146259 -0.6607781404361652
Ni 9.125623095850903 6.823294084420982 4.971083349834824 -0.8836526753103363 -0.44430179577885415 -0.6941564587862948
Ni 1.1480913477052672 4.487795208844516 12.427298926888163 -2.2531394613153584 -1.5279855257062847 0.5885008310279929
Ni 6.464875530200598 2.993669949676493 9.633483619418122 0.30885582413199714 0.07770542240227908 -0.08038888277171317
Ni 5.205607630905125 4.627108638260001 2.0935732522816215 -0.255529859015347 -1.3054274936312678 -0.3568611483666822
Ni 0.24953674995837352 3.393511729524544 5.556966202667909 -0.18465997147766264 0.7397269483272422 0.463478368707305
Ni 7.5221522983978515 2.375974390799947 2.4867203322259206 -0.798842780652792 -0.289208739325031 -0.07264986225624263
Ni 5.523228632386042 7.698950894674092 2.9067198203603093 -0.9590297066897546 0.19904220834126368 -0.06753928050255464
Ni 2.2408198458766218 6.380244070999513 3.1159788781407367 0.08041407958269375 -1.0060189309550998 0.2851075726724638
Ni 3.7955065601937577 6.641195670738803 4.707581212968927 0.9727275158918215 0.09241650336020858 -0.0782335269916072
Ni 5.6771533639554 0.5472438715579128 4.107437618820798 0.8640343868587764 0.8446657525241776 0.4469921981268237
Ni 8.216501987150918 8.686299516542986 6.866911765693296 0.025303254651479007 0.5806882769621096 -1.395396049671616
Ni 1.87162683647854 7.68539771578703 7.4193698846886145 0.4119272361028906 -0.5644183361574924 -0.37069085516092287
Ni 5.025487447678288 0.4896976076656157 10.0205432702031 -0.5833090024144083 -0.11244719675883859 1.6164543572726549
Ni 2.0939247332276403 1.6113285128431072 9.953842859892108 0.8858892779503388 0.2423429280114278 -0.09067329541685674
Ni 1.4324504743207866 2.8777088407059255 7.820569742746937 -0.5896354588530685 0.4717897167864778 0.5753887191260671
Ni 5.315477630287618 4.800015181128756 5.784701012794041 -0.44791548127204156 -0.642960395528454 0.10464955509129074
Ni 4.683400796054331 3.0473950084148207 0.28283542911131204 0.23261927296576068 1.0887385187425183 -0.20785903530194527
Ni 0.803289459767955 0.35843879657853095 8.18116803089695 -0.496593663204035 1.2909951202560217 1.1310856162501617
Ni 4.446068347844633 2.5171004313768384 10.826108155048292 1.2166506439061757 1.4777559401267713 0.3325526535283047
Ni 3.337035550292508 4.049612562450377 7.040174390044012 0.70217675798761 -1.0872673335136307 -0.2877982321307495
Ni 7.15517674732413 3.968597124500218 0.6903674648411054 -0.31061882956969084 -0.41755769491579053 -0.08344361043763693
Ni 2.7666611041221136 2.4440991270387853 12.321611734784735 -0.36920809996780934 -0.43607169455957806 0.8638986326118606
P 1.6642990836868392 2.5086354452423527 0.8810026330184756 -0.4451026944135947 -0.448492436821434 -1.08083597606599
Ni 8.056651765287421 8.5925865993911 12.723014016424534 -1.3026591868575115 -0.6766153645787379 0.04902733774129621
P 8.560732488524154 1.5144504269626733 4.9027405481923045 0.08775072245342307 -0.6049471495094743 -0.23045080455953215
Ni 6.173348768586423 5.779211653307264 12.865006797973022 -1.05255486973311 -0.45057297349954656 0.22187231886190178
P 7.494319055944788 7.698840481811468 3.773315415020766 0.23667853063679883 -0.07954813203797267 -0.5601094243694934
P 5.276207455481113 2.6885624059595985 3.224237769836111 0.46994520737857126 0.0712612094388321 0.752719246821852
P 7.519769220779557 7.537177648786564 8.391787007102026 0.14771321904998433 0.11502112813360192 2.1674327658751578
Ni 5.676941739302038 7.4201400144054155 9.93532662283011 0.11971262007200027 -0.47642207335216663 -0.9371838144592569
Ni 0.32297510521097883 0.5837702867282183 0.5393613132737674 1.6351115673625258 1.1349926646140516 1.1185129217914735
Ni 5.402436960675686 8.116854378633008 0.5086389342487158 0.8943122119067115 1.03004100490131 -0.10078544415019416
Ni 2.0557678881192576 6.496315592832704 0.1765998531235176 -1.5326842167335346 -0.8676097629148607 -0.6886370716299623
Ni 2.9526239679961233 4.176780576977252 10.104791044706568 -0.2996996115540258 -0.8542037739215999 0.017087551609906056
Ni 8.402409644593616 4.306267261619226 8.343373727163089 0.5685750386383434 -0.6261692921130442 0.004838559039223925
Ni 7.434328067252563 1.4027770174906606 0.2683538620710219 -0.9517645404869093 1.0225243848092906 1.0999271883694863
Ni 4.304969910483397 8.535291524761272 8.11014403690705 -1.5247179106986064 0.1274153880328967 0.30414222070641167
Ni 7.247730329418467 1.5083777195183685 11.522888766993459 -1.0161778737659726 0.6161389044602357 -0.9264504872021528
Ni 6.364059385553252 5.511948118254652 3.755606111963109 0.7948837960050439 0.2990450086891624 0.6131661949851569
Ni 6.439554180372224 6.080289127538392 7.374458532709226 -0.14659221807166367 0.2647259236923183 1.1101141562048171
Ni 1.0647296364243546 8.322737563138714 12.036925970117286 0.6005204811966884 -0.5052994185081492 1.2960234267085486
Ni 0.18764205949307863 4.17896123101407 1.3060176254375473 0.5927295243973598 -0.06173064424057756 -0.3055599269895447
Ni 8.791605784270363 2.0928114035295176 9.733191034903289 0.5180664883658305 1.511111375658765 -1.3129070898377646
Ni 4.778999932942706 5.3861786666543425 11.06130411436622 0.74452539815715 -0.900326022200959 -1.8134849345005284
Ni 1.9243765815970246 8.31368370840357 9.84112696897549 0.7090122928522047 -0.8889018395244174 -0.4172807871053201
Ni 2.8044315042113133 0.3080408454339315 0.2897159906671472 0.5090403736078202 1.268935569352821 -1.1188672198070988
Ni 6.816209259069293 2.94733335166207 4.830989669523465 0.14843647036925403 -0.2950384586329306 -0.12786867352023137
Ni 7.757672135446143 8.569399898240116 1.575859300832424 -0.2071830922808432 0.18155382174851314 1.5545085116974775
Ni 4.005079374525474 7.058942736475667 12.361554507946057 -0.34080615178634854 1.8881495131939545 -0.14746150805049443
Ni 1.850528778645523 5.386224672013769 8.35242390146948 -0.6509359575347629 -0.2573581704733374 -0.0043392508053022045
Ni 4.470349976549967 2.4277672244423596 5.602752576583591 0.28847006138679354 -0.8636232674632868 -0.20727925153907528
Ni 1.9396595619985253 6.140887386975047 11.150359448929764 0.6169305471235956 1.3908122869556756 -1.3971197172309422
Ni 9.208248721380992 6.620336840774804 9.602079440966369 -0.1894324531656415 0.5079905921870671 0.18117072737748155
Ni 1.6156714187729737 8.071364279232032 1.6015808972878094 -0.3563001336568896 1.4805461012773986 1.1124044949008907
P 2.758656171581894 1.223926582183996 7.54504088481975 -0.07424034667181408 -1.2654090442568013 -0.6646929021095391
Ni 3.9462937262502256 9.053652311564006 5.432560349921004 -1.0240338794752817 -0.3178066055673817 1.3819646067570586
P 3.43531219909951 6.515831066301448 9.340179210715705 0.621522280259336 0.3576250231159002 0.09274534745453704
Ni 9.388865762489637 6.452877332462154 2.309619940791842 -2.6949475441380812 -0.16900863809365088 -0.6903627960718175
P 9.022331862866409 6.104184311224544 0.010060451999398446 -0.5624452715915217 0.05618914559705807 0.0002694516113027617
P 3.0425276413874918 -0.09790400539564585 11.58583145954649 0.6733212672084985 1.0735443275005836 -0.5386527971576143
P 1.517578791403679 4.102941975097636 3.8624379174090717 -0.9099033814767491 1.0447600562790393 -1.1422526886105746
Ni 3.210143567922192 2.4285769187682664 2.492066154991286 0.47360902938340366 -2.1512055053830177 0.08563599010326542
Ni 6.9240274194213605 5.400431127004689 9.85037864675617 -0.1611706301064708 -0.6713924256169017 -1.3518893846382332
Ni 0.5828354578246707 1.8161167697944618 11.875823482370198 -0.8789832948591249 -0.03845110488734669 0.9107806418753798
Ni 5.8422758000091815 0.29464040434016536 6.835951999013603 0.5270751196223439 0.5151886525974031 -1.5039824779234678
Ni 6.826348840286905 6.359670474263959 1.466940692282873 1.3720314068037467 -0.628846324724575 0.49343609141165995
Ni 3.9166294704919844 6.4289913498478874 7.074447462709604 0.4924385033850809 -0.4329256927314286 0.3090946796156806
Ni 4.930605994396967 4.702980677026271 8.658804873535301 -0.0776030924964599 -0.10616290641202362 -0.09625927414506649
Ni 8.453779228929305 4.409705711753887 3.5183767157585266 0.5961187525845669 0.1660374712804689 0.03201563367464809
Ni 2.743630821193182 4.393042570569589 1.6193840512786966 -0.7863405344207232 1.3327809459435562 -0.6381130947384817
Ni 5.878482017877879 7.190968916957988 5.325392705351227 1.3077098619075413 1.565080373676053 1.0631388158965431
Ni 4.027888831729158 6.412236197944738 1.3480702043821704 0.1395075433107404 0.6420602523116877 0.3000595659966058
Ni 2.0327560073340964 5.2775140076888265 5.644270573251678 -1.6019168257781122 1.1489146740117826 0.4269036549070648
Ni 6.958356618625454 0.6924505875159397 8.808931402630403 0.8643310921635888 -0.44725676464212005 0.189997324530176
Ni 3.6162236745084835 4.2401483590513855 4.153075855479127 1.173696766052469 0.03532670032575207 -0.7806743372738814
Ni 8.182642042612978 3.946118905884404 11.38323857834697 0.4701614371544354 0.17574158594211026 -0.00318611103746548
Ni 7.757782548308767 6.583330129652086 11.484333515472443 1.4184483035053894 0.9694311045287369 1.25736457668577
Ni 3.2732445189116515 4.813025496774584 12.663140801452442 2.3764778510654043 -1.19856421871811 1.0230036384385544
Ni 2.181114090412842 2.2622951476569364 4.69885399628571 1.2709340878400885 -0.5162512895339625 2.221199418073652
Ni 9.472043452332843 9.01599232433743 3.5679612921484645 -2.565027644515776 -0.4861197602559048 0.03425789274160551
Ni 9.13942470367887 6.322295720265828 7.2853489118215595 -0.784197005715159 0.12069015349392118 -0.6296657353020769
Ni 1.1876099514526757 0.17417445057454975 5.828643491903906 -0.15060005367947613 1.888415622371148 0.18372846080232874
Ni 8.459364279563689 2.022220780025416 7.195580494186905 -0.27571224750049295 -0.7804982167073332 -0.3344899797603336
Ni 5.392435395536354 1.1691157969632018 1.670772957865344 -0.16110609541712254 -0.8043809368622018 -0.008389252504959746
Ni 4.404755535079589 2.2612646276057813 8.3876253622883 -0.5088737661229688 -0.4025290827174422 0.38933880927941333
Ni 6.267714961842166 2.673951103805726 7.154668848156061 0.3383864866012624 1.27069291836356 0.27430765384348244
P 3.7062469618343608 8.693255526888281 2.0491734798990557 1.0188068267483874 -0.42918679451428665 0.18043539187335378
Ni 5.1051871323488465 1.094412294326366 12.629729869222503 -0.1782928916090542 -1.5944451999914153 -0.5331025567633463
P 0.8452849920668889 3.928314831786329 10.233411908484133 -0.19420107819887847 -0.11750249979455893 -1.0545839843479967
Ni 0.6412861870832939 2.2056809523466208 2.9914791744606006 -0.2568524344815125 -0.0022155195940800555 -1.0349147880538434
P 6.291656150887744 3.564320428003447 12.161560009446948 -2.1579189128474514 -0.6305170275587786 0.0013662842199073245
P 6.040393279843686 8.187537012855962 11.893882426159495 0.19247715352923628 0.4987004251343928 0.004262374820779756
P 1.8889432537666941 7.584047908970335 5.083409115303506 1.3775551648354534 -0.4181253944938025 -0.3020089764134928
Ni 8.737466677297197 9.247813330487826 10.605160055544767 0.45824848776693333 -1.9911857010515384 -1.784298285634243
