# total energy = -381170.40250366804 ev
CRYSTAL
PRIMVEC
9.23675026097021 0.00000000000000 0.00000000000000
0.00000000000000 9.23675026097021 0.00000000000000
0.00000000000000 0.00000000000000 13.51891767195235
PRIMCOORD
 96 1
Ni 8.582871296772215 4.94593790329575 9.743110557297149 0.415429335718878 0.03661790833334984 -1.237144135873837
Ni 3.4976247289048574 4.940737613005748 1.4623548818489054 0.8252639509587981 -1.6985599656251587 0.4570110158154065
Ni 7.7258486781797195 2.5078792485414163 10.011461238736388 -2.672760723628397 -0.9571618002430805 -1.4445606843217251
Ni 9.246541026127376 7.6256022296585915 1.3501237501105874 -2.2301239742567915 -0.7953041713719142 1.128225006872915
Ni 3.345162932232072 8.026015345238699 11.747641423791647 0.9230769427442296 -1.6716919375897208 0.713865507179448
Ni 8.187279764729196 2.7216915391861294 0.14991707202821045 0.772567649006347 -1.1789821828211244 0.3163125375203584
Ni 4.749693911286178 0.21870869185737782 13.51049549570209 -0.9763216610009829 -0.22440896924082643 -1.3299876994691353
Ni 6.834862529575966 8.7794939955347 7.241475351803764 0.5333923200896233 -0.24052335830418575 1.2319091127271429
Ni 3.5872766250944887 9.10496012103829 6.334869858829863 -1.3223859758624774 0.0021288734175447205 1.5218794128085467
Ni 8.56255968336597 0.8216883548706918 2.805797690633101 -2.5595092858007082 0.43575262065726245 0.21222656824202157
Ni 3.050418237464801 5.661139461297311 9.85818383703233 2.130537692621021 -1.538211317199351 -0.3965625807213622
Ni 2.5065861035314687 4.465091168096921 6.439154614482054 1.347371185052905 -2.4470237796047662 1.2074676918553269
Ni 1.476854732110443 2.377668782789795 1.3222121387458823 -1.4136295419605074 0.0004211466978186295 -0.9625716584047422
Ni 3.272931546676445 2.2888759043567717 2.5581040770527617 1.2807011945291813 -0.7537466596451019 0.9799037219252865
Ni 7.154509502534794 3.9708511452950677 4.640611587647081 1.6607660347058366 -1.251454381848922 1.7765451240513856
Ni 3.993915310222485 3.3413296809525854 11.332246299596294 -0.6454157990474819 0.4333414401126085 -0.8535576556971688
Ni 8.018690602432354 3.5641200926663616 2.4230092178635685 -0.24426379918322447 -0.35528660479071067 -0.09119574357923003
Ni 6.467553926250511 5.905405316926283 4.123959514472827 -0.8496184685437627 2.0875377920207274 -2.9076330542943927
Ni 8.838544538738935 7.399523534919522 8.212606933424022 -1.2914800303122402 -0.357750492950171 1.1956637572418634
Ni 4.589972029057545 6.808491608123114 -0.009826978400592287 -0.25527557691269587 0.7350547396625534 1.0018046357634358
Ni 6.175432468503419 5.7345069671116775 6.263341389954642 0.3638676615915024 -0.1460042067786776 1.2572254800047444
Ni 3.728395692680022 2.589818458421719 13.627879810305048 0.3160158322155461 0.4551179125577517 0.17931310534345246
Ni 1.802413225114744 6.370004608750129 5.74998776023076 -1.474360798402293 1.3844243811514607 -1.2632014950825212
Ni 5.674033964396499 1.0883662608720643 1.917226028497921 0.19565632258816626 1.9863592261971728 1.3943030737177535
P 4.024202613705464 -0.22747806237483464 1.9162524750404322 -1.5422456351697245 1.9252333054201294 -1.1483145785339384
Ni 6.279235065801902 8.114207834917103 12.17243309383428 -1.0467436623679716 0.6427336242296285 0.2007363082142349
P 7.241787553956166 6.954681651497655 2.1308655919163053 1.3269286009278374 0.07577169571467596 0.09938033627255143
Ni 8.871528973242663 0.5643626583162596 8.666274531538779 0.6521515751094188 0.28259046267756494 -0.5612684776746012
P 9.154247419417423 0.44345452356119525 0.704077739890993 1.1708207300562545 1.398296511147863 -0.7138480236779513
P 2.698941423761128 3.5928279118871913 8.54245497316132 0.22386415248094993 0.43054356565249724 -0.08734345971267539
P 4.609129048704908 1.9188701700105684 4.627593312096941 0.5444462639109399 -0.29331042019823034 -0.4241554027379663
Ni 9.392666412251419 5.260984974719194 3.25535493496624 -1.856802623451557 -0.024621912313738243 0.8264412590963508
Ni 4.967320979710235 4.607161620939773 8.072646154297399 -2.2282295854475564 1.179163445593995 -0.8208532234856122
Ni 8.596320004875666 6.283151447832028 5.220153921030108 -0.013739461073279563 -0.024033901020752157 1.2887533754096965
Ni 5.78624200425964 5.444796301133129 1.687674315732135 -0.24890644016155847 -0.7273884813665473 1.1445646245732028
Ni 3.3340418851465254 6.473086739543072 7.4005257223022305 0.45445765326593346 0.09014596215847702 1.0119970029154055
Ni 2.766748406032721 5.0393768670145125 12.840253818671375 -0.11026664416775205 0.7659146624662035 -0.7962241120830222
Ni 8.135387702830027 1.8120656289389931 6.261624278116434 1.061890802422055 0.08990633534384515 -0.06394102162833505
Ni 2.5422030118054457 2.230712089159357 4.95429162006001 0.26532319095668494 -0.2861663529542814 -0.2688618002375628
Ni 0.01053728448105619 3.1471085372085743 7.993546321388937 1.0009844538549857 -0.028931852543001787 -0.18599694512153128
Ni 8.440634582428084 3.798105445466252 11.61552172180034 -0.2547415587860967 0.5333889776555137 2.1068449769897715
Ni 3.6957622546789954 0.9488359142987519 11.287836005254675 2.3945192819481473 -0.04283714977018429 -1.329773269465484
Ni 8.79108611687387 8.699392898918536 6.077780623077249 2.229244399865316 0.6414843252035597 0.6319460466958213
Ni 1.2230934974084298 5.558121987754868 8.183487155150024 0.10773436466420154 -0.233037848560418 0.466681449025635
Ni 6.087175321574516 2.401397993722328 12.40436419341837 0.11586162175702627 -1.099494985928074 -0.3379429713059406
Ni 4.917793525829254 2.4711816405091263 8.89585303087977 0.12168902707208074 0.01274675814270708 0.6485607724343669
Ni 6.884186774955385 1.7570792557660204 4.076183348405317 0.045673590777714886 -1.1252121881885202 0.543307008100174
Ni 5.0141235923202565 9.224779242959977 8.755216121647948 -0.5704840827355983 0.944431754270922 -0.34591981886383005
Ni 1.492113843227821 6.79889462479929 11.020350807297092 -0.9944651646792292 -0.0825241839471611 -0.751389472266835
Ni 8.725754583621319 0.8561691428859292 11.94324715637131 -0.7389692442256112 1.1124536029712713 -0.5954415240118842
Ni 5.925957085834374 1.7678770165990803 6.376670771276408 -0.2821238074537915 1.873756477697076 1.6115836594439148
Ni 1.21923253587873 7.500813736198678 3.770926308382182 -1.0301132529001422 -0.10913895832121204 0.13945432147530173
Ni 0.6486175214393752 8.249969587461427 12.669253864605988 -3.0523085149593174 0.04407976392803377 -2.5227890475615387
Ni 5.5127141244055755 3.319891184037674 3.0750397184541973 -0.7320930859310683 0.8355280518889674 -0.6101145526430266
Ni 7.058558142796707 6.1782681507752315 13.460339942816276 1.3083639505517726 1.0513708767273378 -0.15512390969175865
Ni 3.3678668639067184 7.2119805614768815 2.5753130661101387 -0.9335007091807148 -2.1999975871850563 -0.591872061493071
P 5.098658328970524 7.485794780583149 6.999568562142939 1.073041933942868 0.9962006593130973 0.620210503426448
Ni 3.0997055358439347 8.965697640217039 3.954188971841897 1.0436609096775897 1.8747604934815583 1.237483778601443
P 5.76657696335837 1.3429957500807566 10.450664086239879 0.6568911466769332 -0.2591934239098633 0.5656622358669225
Ni 7.524690735132348 8.228586511046942 4.418496382363499 -0.6798035324987324 -0.33540297849290623 -2.402793349031481
P 0.5719053884242807 4.124550666477374 0.6554831977671882 -0.30749468211841235 1.7581923325758104 0.07581206203430814
P 4.769987051192279 6.136887510456918 11.496392585108959 -0.7051615516475469 0.11157507856653043 -0.22501369270436086
P 1.1160765110852207 0.37124438253073155 4.698810502494767 -0.5778600634846951 0.3674453516404317 -0.19478034774111616
Ni 5.577297480902371 8.00250781630787 2.9383505962027403 0.8135721164431665 0.04647088986802964 0.8552545837836174
Ni 1.333685106009136 0.28419632618612983 2.39457850114487 3.315081171580007 -0.79895050987525 -0.6561357565681475
Ni 4.566095030123876 4.29895898131898 5.295346608658515 0.14547507374808494 -0.8754058619205117 -0.36164442868793845
Ni 1.6436796751437142 -0.0690705696813131 10.466277888559986 -1.7825273097767491 0.8542312847254256 0.5186300741787843
Ni 1.3158304681217923 1.2999894417499382 6.742587396366157 -0.46100753856930926 -0.057577027083520194 0.09483745409687537
Ni 0.6923147386755083 2.270116064962465 10.0751624856014 1.2414908428783071 -0.3189679728653345 0.2948996190622212
Ni 2.3564150208763044 0.6181888956803084 13.188136612922401 -0.7920021035818747 1.0970431819534718 0.7930179464408988
Ni 7.4182649008136865 6.497314734979441 11.102883940206965 1.1314316867356708 -0.7944094274717867 -0.655549030826742
Ni 2.638135898043392 1.2706073397739215 8.744522736090689 -0.11034686258638415 -0.058047796072351644 0.5135716858192704
Ni 2.1179775545421666 7.77343641454578 0.43414110846455345 4.320278892185392 -1.9022774679549042 2.379392453609037
Ni 0.26613940347223014 5.780201169713171 12.768995986573236 -0.2483631660635787 -0.39797720168070166 0.661505505520493
Ni 7.004329183129559 6.091137887354997 8.381890699326206 -1.3106972266706394 0.04329326347099641 1.0487218691402649
Ni 6.921300036740873 3.551955292822786 7.737984844098075 0.6728414993586026 -0.2543108990065814 -0.1492895623981687
Ni 5.421806030206281 7.118199838005489 9.752208756117135 -1.0337454503360908 -0.28666668962946756 -0.3023128808071568
Ni 4.17148259358839 7.010406964676312 5.079084731894958 -0.08632581708143842 -0.5071863511182169 -0.7912533983413083
Ni 3.736034484988782 2.2418516097450456 6.916994787532755 -0.5093519913109679 0.8057780743200444 -0.17762671877996508
Ni 7.100049624115871 0.3024555337265855 0.42070995018623664 0.6263096743456504 -0.5176818513329019 -0.8061048615318439
Ni 1.4360929540468903 8.164658963805191 7.484370473722192 2.2806998874321303 0.7510945667342355 -0.32221733304056766
Ni 7.074861006672113 8.827368071152963 10.026237267825051 -0.48530343500219647 0.5957767958641158 -0.6142275463701357
Ni 1.4217113341862622 4.386892841995395 10.985607695579839 0.04688560880794506 -0.8568080443136663 -0.05567235386163961
Ni 0.46721883414399795 4.109993548365396 5.591491594736556 -1.0696501346524998 0.7043668236603934 0.8835452031981945
Ni 5.615759308198232 9.151217765394119 5.338364001089418 -0.31965394318876567 -1.3644211985566568 -2.422636609009653
Ni 2.16418901514764 4.31591765444943 3.691164200493626 1.5662288854581994 0.6057207944507053 0.19808524374463304
Ni 3.089859160268193 7.920014401423305 9.31764368082432 0.19820145760752317 0.25325417560729285 -0.9490815943381075
Ni 5.834568680631385 4.65612563306642 10.210337704516212 0.723182927925632 -0.2633673527818948 0.503955502885745
P 8.503389062410811 5.12881631795251 7.243125035366454 0.23203100456245848 -0.09146108142547474 -0.7603772775877421
Ni 0.5700931380603403 2.682684743636077 3.96382752054104 -1.7879891042222693 -2.08773088186814 -1.6410058213597738
P 8.936703481744006 8.055074160962228 10.514351477979782 1.0184481578573878 -0.028267222375809385 0.13186288228128903
Ni 1.5785882973930103 5.971642051685797 1.7781159540528415 -0.9269911901969712 -0.9351780968831378 -1.1690368986829545
P 6.275641970024263 3.335547475408107 0.9705930790911151 -0.556781388437525 -0.23880431873054997 0.19173076228151498
P 4.103204537063173 5.416818185167913 3.478512045657837 1.288319887416704 -0.7304555503276453 0.5024174689746638
P 2.046401978241584 2.1115672499928566 11.721077454262307 -0.47923511732092955 1.8264620634864865 -0.24469163074926245
Ni 5.379002930377025 4.599125648377958 12.864939956911266 -0.3814997728509688 -0.3246076876496151 0.3345360025069206
