# total energy = -340892.2734533107 ev
CRYSTAL
PRIMVEC
9.04545840711315 0.00000000000000 0.00000000000000
0.00000000000000 9.04545840711315 0.00000000000000
0.00000000000000 0.00000000000000 13.23894270776082
PRIMCOORD
 96 1
Ni 6.236119882683185 2.077090505672557 11.292010071413793 1.1660503052508047 0.23359449239483643 0.30333052343839373
Ni 4.7672640861159365 0.2228212978011607 6.006362527433673 -1.4805173049219922 0.08144971993605973 -0.252356603493688
Ni 2.7735546153402115 1.562566744878288 4.845373427897355 0.14068587988955772 -0.18136947365184894 0.29248946695883177
Ni 3.548768485239133 4.409100118034472 4.65764579478368 -0.1369662649461254 -0.829784464536971 1.2898864605728753
Ni 4.650677173685337 4.7870465034862315 2.210122061349244 0.96962085194204 -0.6892207120475743 0.46680409064642836
Ni 6.775446290221553 6.015627790402302 2.6667603160989497 1.488274837380224 -0.3992673812470349 -0.12887911706261676
Ni 4.861074534468621 4.503842248595268 11.249671899148867 0.8795340251562722 -0.16851087252162592 0.04950607714992764
Ni 5.365820154806882 7.780062028857569 12.740377000315084 1.0939041221038581 1.3685272503052304 -0.36842956993057197
Ni 1.9973547904831916 6.574302433311068 0.529016394132488 -0.5539436618784136 -0.11483960825041511 -1.4477192845553648
Ni 2.8326938219094764 1.6342881839862264 0.5153957429773948 0.19763864312551768 -0.472095935172987 -0.08076837759831897
Ni 0.4477076737393301 9.183944298231939 4.618206691913896 1.7920385917012944 -0.47797810498537674 0.674823819895954
Ni 8.417142704581016 2.5561379788919316 1.555854110250718 0.66697809859929 0.21728032861584515 -0.3391051099348418
Ni 6.842789727497199 0.6501676448370013 4.838065602111594 -0.33014944340345076 0.48251404518251734 -0.6095239702468793
Ni 0.8695751866639739 7.291471597098798 2.5246796839077486 -0.9333461858807217 0.09269778204605326 0.13954610985815968
Ni 7.705789770500237 3.85221647587528 4.034567488556902 0.5117603436421444 -0.7019926670012621 -1.3713618915405479
Ni 7.49741859238314 3.859669933540174 12.825596072344808 1.3137588963150986 -0.8171634333388508 -0.6530013247042238
Ni 7.920311860282538 8.873259940930847 6.765497190603086 0.8339766482414476 -1.002202642532803 0.6256504434950967
Ni 7.043544629699443 0.5750840088673624 0.5651846592697174 -1.1347862050302004 0.13853489498482593 -0.640587010200271
Ni 2.116112612913274 6.535868280861878 9.255556287294072 -0.42955934736235696 -1.012263883423547 -0.5233107674839053
Ni 0.37546792986901495 4.8529878947205445 1.1453124157025467 -0.4151442003782915 0.17245031678534814 1.027423621883121
Ni 6.4839473500408955 1.764144783788669 7.110437603150196 -0.29191662517449724 0.8581902693731736 -0.07000368288264719
Ni 3.18985374411618 4.320110898972309 0.27809357093384557 0.2873063800959955 0.25994572869485555 -0.23938024583867806
Ni 6.168450808907615 5.376412386512697 4.884613530683854 -1.2385613279363379 0.7548380929370678 0.42424873378272093
Ni 5.360221016099881 2.9136144921402267 9.041853716036574 0.8297335566943775 -0.7833433994656122 0.4997982861842618
P 0.13564840677189788 5.569261558133487 12.377034507339017 0.9166723247694664 -0.8089862968446971 -0.8092320943069161
P 3.905032907071049 6.279203400714602 12.514719046781263 -1.3826199809528703 -1.592626915835754 1.1105162767392422
P 2.2156488363895956 8.650135620275591 1.4398678162533096 0.6498535231038615 0.4389873255444763 -0.2846170061892904
P 6.313114823998202 7.6267867374356975 5.655000744017257 -0.35682463870179193 0.14952970343343283 -0.1095683325491468
P 4.964925441568916 1.072203403286605 12.72627784441427 -1.0125343634761141 -0.4320972832928623 1.185467790545468
P 3.9829143033025223 6.049331168144285 8.23302059115815 1.4741929053658611 0.5220218734691526 0.41406536549181594
P 4.672793319305077 1.2551930253264076 3.6731842418553695 -0.301213734205707 -1.69577983177686 1.8078861002565123
P 0.11716943994712709 5.623109171579011 3.648890854415315 -0.6039192224655923 -1.0560469420467684 -0.6177414730606652
Ni 1.3532910209280715 1.3609072968429266 2.691834326592985 -0.10875894927397399 -0.9568139299853585 -0.45504206501449374
Ni 1.7827060642842534 6.3994808601443225 4.789624459110618 1.1291143514564037 1.0207063577639452 0.4446460664921504
Ni 6.196980184484161 5.7210533943890445 9.184952866835866 -1.0227429285779999 -0.13652814896744228 -0.22270329940362935
Ni 8.599490099079306 2.434530837087527 10.069989455425329 0.1962880426348942 -0.5787704911141065 0.761224713189702
Ni 2.302539509118926 5.277138481327978 7.108530820533983 0.008960551627397471 -0.4015224958297988 -0.8012578178521877
Ni 0.6818674535586269 9.357526643607313 9.32341983842376 -1.0609392371420632 -0.92354179819579 -0.7748639012396914
Ni 1.387292898794983 1.1461681160606765 11.501410622688981 0.19046629374679458 -0.18785945225156678 -0.6483838805368705
Ni 4.173474973965524 6.9766534653403545 1.5757251731126578 -0.11584928046185208 0.002995335182898067 0.17791211123086778
Ni 5.807853612535062 7.803471675018667 7.756948169183901 -0.7158025763011608 -0.0034164818807166965 1.1912936531986256
Ni 5.355779696059271 2.898282440268874 5.098065542745577 0.4130703485683983 -0.5893140709579077 -0.2729133445991171
Ni 0.9130485639494657 7.4795990394707115 7.083720937423219 -0.4164953150895472 0.5488011984455258 -0.18809136575671478
Ni 5.128639191904971 4.490292152015158 7.1232658721554785 0.6620690913334469 0.20831900565749928 -0.305604407074235
Ni 8.148121728353345 7.211292654451205 9.088798740229572 0.05911197567080788 0.6927590642181358 -0.628702085837227
Ni 4.848383756429973 0.1262673619366295 10.75975178501541 -1.5476200121077603 0.7740686590319056 -1.1319153112403086
Ni 8.300248246567158 7.2689484058541565 4.8318169994964135 -0.43554898928688857 -0.8602810904639313 -0.8080331889028084
Ni 7.424457925483829 6.223510513769517 6.8202267362359 -0.192638618807765 -0.5769324094641032 1.5075920496515973
Ni 2.3766670401429586 5.251042334042519 2.5454914744361314 -0.8187608597329578 0.06518157890365549 0.04132482689071593
Ni 2.306727556326263 5.127074327613676 11.204276361967997 0.09678172230743978 0.047990411836349604 0.8752276844714346
Ni 1.2522442059104426 3.593561594895144 3.9153374932019314 -0.7999203299876869 -0.2179932955224697 0.30348607517965154
Ni 3.4913750521277858 2.790496758794515 2.795521510897486 1.0927350414964212 0.20513520861287896 -0.004981255264675292
Ni 0.940519620901264 3.4243843877270552 8.308535695490185 1.2648858247634795 -0.37303955789875753 -0.980448281574847
Ni 3.8395709251282883 2.469129715204297 7.053629411192877 -0.4187936242054207 -0.23372818975922327 -0.3263670935428831
Ni 4.258330418570338 6.57461902435266 5.995030377236369 -0.19918516167703115 0.965846472501272 -0.1833883038540906
Ni 0.5743323312800412 7.201442150328548 10.911019889233591 0.27174760642579004 0.9882076138052918 1.9670996066366124
P 0.2925174587887477 5.6595533231953405 8.007402437640987 0.3707199086266454 -0.02071974904585464 0.7551579381703317
P 8.515421609349305 1.5279316849281939 7.95456610643689 0.14059717683049336 0.7442760011505053 0.6871124074553199
P 1.7926922502818778 3.0975629327631347 10.387830579358052 0.1277861411087541 0.27129303538687466 -0.10352752567170558
P 3.917461366818093 6.241176293890315 3.761593647038505 0.3900870002993475 1.2011443207404604 -0.4185365138892921
P 6.988729152212482 3.891817492449193 10.34975553160461 -1.1646948196641747 1.4517438323337257 0.4949232174801476
P 6.432677692219759 7.774951344900452 10.357023557373715 -0.42207023807416344 -1.3468973307402803 -0.36415665358683086
P 2.356658486314385 8.52887220588777 5.826564143093111 0.48199056857887956 0.37204222698249473 -0.5207939145993226
P 6.585301710641785 3.9228072326918206 1.9422191037713077 0.8449660573734158 0.6482517258343803 -1.163731684419957
Ni 5.302140128155364 3.1056857543445355 0.24871211318250167 -0.3022722573772084 -0.9046328771064291 0.7731083520011652
Ni 1.4250848237026597 1.2793896263623186 6.960122890240121 0.9140451715592645 -0.6096157586297372 0.28719273733626666
Ni 6.959105276177863 0.5938831849170572 9.316667403779533 -0.9608024823194614 0.37404640189671706 -1.6768871086374153
Ni 2.827085637744144 1.548718148173249 9.10036969052682 0.39122034257284233 -0.3221707960733484 0.9444379249185091
Ni 6.393755085020685 1.879492468427896 2.6214299062180664 -0.24525367390031955 0.2093111943674395 0.02802013936200981
Ni 4.386622154081486 6.72068508548458 10.50294308208067 -0.37485604228220604 1.040324903325821 -1.0396283914794289
Ni 8.126512128400154 7.07277050556749 0.13998751313336566 -0.6678962395381853 0.6866555224235593 1.3503570071541067
Ni 7.761853521236901 4.142078188097993 8.268699496999663 -0.886805362006705 -0.6371458457292059 -0.29378298895927474
Ni 2.811807858622778 8.456191948196727 12.518730707551143 0.9904565577404685 0.21125906212242973 -0.9406509470722509
Ni 0.07792662352312904 4.94788379807297 10.161007570791176 -0.1805210096086246 -0.6482532684962771 0.3792287174286049
Ni 8.67599658564444 2.1327200744093235 5.734474140915018 -0.3895851209622645 1.526225091371752 0.04288780050246162
Ni 3.6620990326705063 2.513850461193658 11.58956856413051 -0.5843788384398194 -0.22139023701916066 -0.5696227631765673
Ni 1.1730693091376103 3.2545287711841278 12.595053571312153 -1.0835739438224437 0.5245572382964966 0.20138885419656927
Ni 3.112632666342883 8.32461671131136 8.010804434519345 0.7384959041336184 0.2964070568456831 -0.5663201811658957
Ni 5.481683430570986 8.059756645916034 3.6774473663668554 -0.4804952149802757 -0.6958539010933759 -0.22701992450111225
Ni 2.883990616105607 8.325810711811076 3.5199035231584994 0.5686868816258593 0.26831878324989916 0.69977329075244
Ni 3.3925805562346207 4.0378021444561325 9.029528374514506 -0.7082337628149674 0.6085502934797004 0.5667061037504046
Ni 7.117645024348482 6.030426160232116 11.45580251723733 0.4370307160387376 -0.5469034672021807 -0.8039631325984928
Ni 0.3825966555798191 -0.04756101990535259 0.20341607604327694 1.063468174211504 -0.10928371142919244 0.7125473025886567
Ni 4.637081849813573 0.21863325059382366 1.690943507697749 -0.163280477360622 1.3360285063465764 -0.9897896135804309
Ni 5.904350562012108 5.473623927197904 0.12075325053794121 -0.7292443036283635 0.6762749505201837 1.521751886091747
Ni 7.899145487787575 9.054684698679354 11.277513819892242 1.2414936710917845 -0.4038794260977495 1.4356883215327596
Ni 9.176165204067123 4.991157270729342 5.861224530326533 0.22348748586782155 -1.631488883008274 -0.005160975375649177
Ni 7.97474742851959 8.714403601718637 2.7014062305990416 -0.18845440552308834 -0.06568242979947397 -0.2403816905199989
P 8.361223681177652 1.646571916399971 3.6201226787388254 0.5137259520089476 0.6920525250694145 -0.7121732070786896
P 1.8030312091544183 3.2047877958209607 1.671376372235737 -1.4905410077065813 0.7645347513995414 -1.2789399888637005
P 4.801365464024491 0.7324776974674209 8.329651413418496 0.4748889245370918 1.2128412974624145 -0.28417194823207187
P 8.463654451319952 1.6809356126001298 12.564007749227871 0.22796531913351709 1.379917751530359 -0.1902374655654401
P 6.379960761065633 7.7394660118672265 1.4908507330453482 -0.3360087303977052 -0.14564553788767817 -0.10041906194971092
P 1.9506802254942948 3.3897493277769613 6.030285051082149 0.0311784824853334 -1.0029801441287758 0.18356339597937418
P 7.2086332897018375 3.822167463299095 6.23135835341765 -1.6723907634289583 0.23211405119456802 -1.2000364323882622
P 2.392885546930767 8.431904892577506 10.183738807577436 0.716916635300946 0.5691123991990521 1.3231182260428116
