# total energy = -381158.6627221777 ev
CRYSTAL
PRIMVEC
9.39779226365497 0.00000000000000 0.00000000000000

0.00000000000000 9.39779226365497 0.00000000000000

0.00000000000000 0.00000000000000 13.75461892126808

PRIMCOORD
 96 1
Ni 9.296784980864134 1.6097478694733167 4.6816456392518715 0.569845934930967 -0.6446886910734704 -0.463320245862886
Ni 5.606290679699836 3.752623107078759 4.678083875911745 -0.0673032532323486 -3.7358789706996496 -0.5791839245024413
Ni 9.127605921104319 7.947290177823911 11.424971468863722 1.2664811942750576 0.19997191924438465 -1.0797609978342566
Ni 1.5868548470549795 0.17797633327615517 10.815449445871717 0.3919225108461895 -0.8925481780277531 -0.8828834012444795
Ni 6.911794416262129 5.197919006396704 11.276174341378491 1.237767885500765 -2.179995690141833 1.456481861239343
Ni 4.450352810045523 1.5788949168463045 5.607881725962326 -0.7741252233014538 1.0712812424980196 -2.2955526361742464
Ni 6.320494712838745 7.162020038146633 4.054806304104584 0.4427097687013859 0.27915803995724825 -0.06667770383320774
Ni 0.7548288103597577 4.213584826955379 1.3781712269348518 0.27974656547086657 1.3334584316265552 0.9208760784381689
Ni 2.5569137797584336 7.20704486179452 11.730393145169252 -0.0441232155714595 0.14027913136944228 4.367452207437085
Ni 3.954882396277222 7.393074163424647 2.3898651995479776 -0.21658407387976894 -0.0558854983137102 1.5607971729196668
Ni 8.150179119116803 7.432892610052929 13.320400011813357 -0.5991449410054004 -0.47430194168537027 1.035976139438822
Ni 1.5102816341384717 2.4834324405593455 11.037655549554138 -3.18524174748665 -2.6529385466961473 1.0572635880626888
Ni 4.647358733262109 8.47015515659609 11.02516588338256 -1.0859136476992135 0.3522552741635547 -0.6307124313990364
Ni 5.095492466438799 8.932141235850215 6.349613772757964 -0.11305577687711496 -1.178213165865584 -0.05751532060764933
Ni 0.17159523219977954 4.456592944235085 8.34847629901659 0.6992390155155248 -0.23066857699729304 0.21476321862094624
Ni 3.099081824231462 3.7797827272712854 11.207442646485738 3.03294707971357 3.295370066304325 0.6876130012408221
Ni 7.357259176381837 5.306228564430915 7.931202096921631 -0.43172087379005003 -0.03622504377030535 -0.4637637611582078
Ni 9.51996375606556 8.906598035959805 6.282669537989991 -1.3574591654165264 0.2946245110239636 0.23425757990013205
Ni 0.33683097824582797 8.436623833119643 9.12818388534025 0.608591688240597 0.4644631012180775 -0.930611560558378
Ni 3.0210989424468306 0.24923415478058902 8.52785008403068 0.49610618204465534 0.7851652831656994 1.8784299719133455
Ni 1.4389711849962947 8.564734539854774 4.402826294046338 -0.6659969656329434 -1.3446938953310583 -1.6325170671624722
Ni 0.9015612428428077 3.4508599913756344 12.95265593506881 -0.3615593251732999 -0.7257018376927437 0.002584215787408452
Ni 5.358874997759128 9.140057996106083 3.1128354934881277 0.15087336194552078 1.3128620955324422 0.15501900868277818
Ni 4.825258944419385 6.434499333100177 6.728883302168295 0.2297740902074817 -0.361271618729552 -0.24289391541889135
P 7.50023719077945 8.346029113861526 9.103109635293302 4.819638291060023 1.5552962977060956 1.4555092129134288
Ni 2.364381205750028 7.2596161127831 9.768970484268758 2.0971668304700595 2.1572900210142008 -5.823297977754326
P 0.9840898368375174 6.256335983754185 0.3501523490496019 -0.28760385673175626 0.34519451066203133 0.42781176854363095
Ni 5.214816237229287 0.7893732158627644 0.34697777475858615 0.015939554048391903 0.4498993444712897 -0.19367554471271162
P 6.388600514754053 0.6452289354215905 11.86397806600893 -0.4834460700784835 0.16088575187620036 2.889075088786547
P 0.35361167645197866 2.3399375475767537 2.2919730944492045 -0.5238877230332978 -0.11829697067139627 0.9141284753016902
P 6.0076703954170725 2.137781634095287 3.301892763846985 -0.4853031778918803 -2.0728102560025654 -1.3000024659609546
Ni 5.807835736671783 7.643083636082705 8.69608278609036 -3.86274028600129 -0.8815842228170817 -1.6427289746984675
Ni 4.626420451674237 5.851873792111983 11.386472472296004 -0.374028147064272 0.4080055324509812 1.3009350050775532
Ni 6.907978912525741 0.8040271936365384 4.814639438946183 -0.6304491504353207 0.04071958920654922 0.6240687008302737
Ni 3.9664322832033863 1.7417116711146519 10.547743930022474 -1.9075759973496824 -2.0049534442595918 -1.0271081475252313
Ni 7.720530843697448 3.2764557590113057 3.568965808264063 1.7268850378220968 0.2551017703389929 -1.5248665204613288
Ni 5.190212816584292 4.225379056485352 7.755349664740117 -0.17989931686422567 -0.3422701379263847 -1.78749956618036
Ni 1.8037464991045717 7.878272790040549 1.7411562615806109 -0.04571935641398577 -1.0111207709580394 -0.9639420563897075
Ni 8.262022247113778 2.8477754562147313 0.40339554219865364 -0.20799093289411924 -1.3341125202707862 0.1720253134327876
Ni 0.7708257326752314 6.923212734093936 7.463972049478087 0.187204078055755 -1.3609324686771078 -0.08353822703397225
Ni 8.003376203190346 5.101149937496204 0.3837748311128553 0.05847305653522832 1.5368756291070629 1.3640149642571735
Ni 2.6418980169214157 2.5111371327142136 1.662383025450584 -3.135119891129594 0.07134605584315455 0.27544202455824174
Ni 3.1862651448287185 3.134361137104385 13.492662487277382 1.7068517733203057 -2.536595100206696 -1.217778843973348
Ni 6.457232593046794 7.392012212877326 1.5273677605993827 0.6270511804973652 0.8285361939521666 0.7456973069780641
Ni 2.048963097611007 5.669904336822055 5.478506076362867 0.019105096260567094 0.3945051839717012 1.0704798296426465
Ni 3.3365922329254856 2.542375394831846 7.603869467509225 -0.6191337254225014 0.10713066964193162 0.921740226210677
Ni 0.0006982559793441966 5.372783730591286 12.318004215054378 -0.641238784851657 1.0632264905143431 0.2137358057976964
Ni 3.4588293193767634 8.227353790750376 13.678308358975379 -1.4892978793280998 1.6417866653898563 0.15250241290851155
Ni 3.2558933891216006 0.49186636036212966 1.9383698760104346 0.5581286464940388 -2.1454248941454988 0.19966338686503032
Ni 3.9330795177835673 2.7802147262617645 3.3390986241730096 1.366033537349099 -0.04852622973516159 1.4354294114444184
Ni 3.0657384566040977 7.79941591355768 7.410218556198774 -0.4790453699076266 -1.91627686755779 -0.428047795813837
Ni 8.797508461151898 7.200748340850232 1.811716766884946 1.0893746096646206 0.5096173291572127 -0.09583092835839625
Ni 4.691481368834397 6.426530005099049 0.549300029166492 -0.2471370069659615 -2.706271710901649 -2.11067309248661
Ni 7.407227238860614 0.7946425580918127 1.7075262612833944 -0.48630256569067215 0.31780146336105913 0.560150562020074
Ni 2.3310096447453006 0.2935127937076162 6.287842082956761 0.2982435958337896 1.1910468272951422 0.575288446102777
Ni 7.61735248034321 2.970585808005713 5.786389034512141 0.7032393949241695 0.37327455672769905 2.349868476007992
P 7.918767877725531 3.9341978550856127 9.81822619407951 0.49209731799557827 2.4009781501996135 0.4487909418984593
Ni 1.6651854471604153 6.0437015316863265 3.318054147530406 -1.0232224393175797 1.5266560082615837 -0.9334611141920311
P 6.256213812452281 4.313398780611028 13.376380781904304 -1.0363497207281571 -0.6115248027269921 -0.2093307347514653
Ni 2.6785869986624626 5.139774864482807 7.807603270343745 0.4130726625612434 0.31077258153873577 0.9068147152490963
P 5.3586964397024985 1.775835055515712 7.419846594568061 0.904650617718242 0.1482868321652672 1.4260140316677892
P 3.5174621464982767 8.783703104036736 4.630258510112517 1.6769213043094606 0.5669243904087978 -0.22905263866042488
P 4.876345344200207 5.588218724810484 4.340889203097941 -2.3842700934163132 2.170227555011475 0.8674238721562996
Ni 1.2753086294070728 1.904519027590545 8.850162412714074 -1.2457563030228802 -1.542994083299975 -1.5361174107847995
Ni 8.290441171495162 5.634681410703858 3.3277921400714088 -0.3104599353943234 -0.33851375620774604 0.37193706886319816
Ni 5.35217437173931 3.05540088490452 1.2860531255199157 0.0974934036624837 -0.36287238755776857 -0.5442745142197658
Ni 8.530169459208366 6.454695189084171 9.609169481598952 -1.1595397578257964 -0.4174443092663778 0.12688779766420083
Ni 0.4581188876592358 0.21080940077325905 2.1105083006140646 0.04690514919197083 1.2784293677758694 -0.5401553498450697
Ni 1.0881046037201765 5.787602289517974 10.48476086477393 0.1761511626757031 -2.69494960102061 -0.43754185134720125
Ni 7.398402711746156 7.671605936181084 6.291857759672424 -0.6242864732680345 -0.24957389854222822 0.346577507052487
Ni 3.117849215762423 4.652743668338344 2.3495505494781157 -0.11877288186655027 0.783412819250967 -1.0165231729205333
Ni 6.790299755414731 7.323041814056236 11.282666336405827 0.23398247186187443 2.084485635457965 -1.1134442490193146
Ni 8.101207222638168 0.45017587347697857 13.172234415981046 -1.3069447016067426 0.5915283050004071 -0.13068300304057495
Ni 7.207430171285142 2.5983486466888315 8.487962093738236 -0.5099662278561992 -0.6043532246792174 -1.2037660746340237
Ni 6.628253620127625 5.315447798828448 5.630851810278787 2.6552062596844013 1.7300603502262848 1.2670743477743662
Ni 6.0731636110301235 0.8097551481373498 9.927616498245948 -0.7272897510051539 0.1629377493092226 -2.688705676993427
Ni 5.430580154184379 4.037131875836043 9.895265537501743 -0.051987448810884664 -0.1710971451915634 0.4893585789081766
Ni 8.116008745753472 2.5710950485717636 11.411175509541012 -0.09313384114220734 0.08056911710331931 1.3444555540680072
Ni 5.626627502570641 8.142726669700652 13.105869085228248 1.7045364949235675 -0.02267687277222546 0.007031710035800792
Ni 0.9882906500645277 3.977549871676659 4.052001063057017 -0.6004212366146626 -1.1099634895595658 -0.5242551336750455
Ni 2.770469215486799 5.17044925905319 13.08540163304233 -0.9532753207044807 3.019722867713812 0.5633554421106168
Ni 3.678944414238133 4.123018301074625 5.863305266853225 -0.2784023927381463 -0.029603167578413535 -0.9666111185814386
Ni 2.332626065047416 1.3354075121514353 4.127925828294187 -0.32172908055023947 0.5874402509739626 -0.5238866945920332
Ni 1.1215137558947204 3.117360530554807 6.303618157149562 0.8211337308405084 1.539657305617258 -0.08515699358431784
Ni 7.134663064312569 0.40324235818165083 7.501851731523074 0.5694942080185031 0.15288550727954314 -0.3522437041993288
Ni 5.224345598777806 2.8647948583492178 11.859453028942252 2.162552040744089 0.5228135161325125 2.5627398769228638
Ni 9.371271883855817 6.752323276107464 5.214527725000943 -0.6289201153853039 0.12586578415758967 -1.1166167332100252
Ni 0.8669435345586586 9.375923791120627 13.106928216437833 0.41573632543633565 -1.2345277812969124 1.141891191506098
P 9.483594299267956 1.49422080683431 7.0101930623741815 -1.4397090126563785 -0.752862971488568 0.19309858916331907
Ni 8.425675404910546 0.7579686128186931 9.965551627266418 0.9469066981739754 0.338753640132694 0.3312899847657972
P 2.083246244483788 3.7247304590748076 9.437883436770916 -0.1297646049913636 1.9235564319383387 -2.1862586403324094
Ni 8.311971514007647 8.92336369769803 3.615222682502691 -0.1673435916864021 -1.6241851502580094 0.6555068647348968
P 8.849450060046049 4.95767384009852 6.204213947244915 0.09648090323756932 -0.7050880180971341 0.39572491531141524
P 2.60812235084116 0.9514794970215772 12.542245880582369 1.588402336231445 1.0586183023183704 0.2844915363550197
P 4.453275523498767 6.137256555567505 9.31234490583049 -1.2897041693587403 -0.8792072379444729 -1.1070673989586932
Ni 5.3632543690427665 5.175477078016167 2.367403535803286 1.708333500072155 0.3026142140976595 0.019991355520262342
