# total energy = -340874.5800969541 ev
CRYSTAL
PRIMVEC
9.22349096676200 0.00000000000000 0.00000000000000

0.00000000000000 9.22349096676200 0.00000000000000

0.00000000000000 0.00000000000000 13.49951135461087

PRIMCOORD
 96 1
Ni 3.157034948830439 0.22106217601014308 7.1775150177353435 0.39845285576553957 -0.32256391774670895 -0.08310731014414074
Ni 4.766303542262729 8.773144835015701 0.8688261047279021 -0.16608452246832042 0.7544380292851717 1.0423936129293918
Ni 7.089903843707917 7.835263375468093 7.197615771686723 -0.03183025713671937 0.7114592117308004 0.18529117730375833
Ni 1.198076140852809 1.7428616371765122 8.116824273690822 0.8604248151306473 1.7989391754758697 -0.7936090430576784
Ni 0.8974410632277693 5.1497609573844025 5.196772168697571 1.9376440203796566 1.3006002474459535 0.5416373337072349
Ni 9.341828396538332 4.30944558570799 7.984704221460405 1.0361160074507962 -1.415120524683737 -0.16559626997799223
Ni 6.80149450341255 1.244940698658967 1.2790464013552536 0.0635152469448261 0.06108015514077222 -0.27008821644549613
Ni 7.498375366440357 1.408546982139706 10.497017148907167 1.7679373277777166 -0.3269903289491788 -0.0902295230112188
Ni 6.7112057499458135 6.163293490170764 1.8460854144313519 -0.3326249015271368 0.045446819478889476 1.4223175566528086
Ni -0.06024692090809785 1.0707181770292635 4.0076400470741715 0.9240729881089118 -2.2694466831158135 1.6380076579633984
Ni 2.295653123694222 7.948822996745286 10.913234559387218 -0.931527387504428 -0.67967883399541 0.38423156995983504
Ni 0.35458327652451194 6.631367211789918 9.997441516102981 2.015996589447631 -0.36651358385478167 0.1001624658542146
Ni 5.274222745031775 5.872366136830508 6.821357291295951 -0.2168653525656136 -1.0241382662636298 1.1289837394158104
Ni 2.184546951024869 1.6166197157648046 10.592243237109908 -1.1239466912125353 1.3304908643577988 -0.32663705937481813
Ni 5.396996633824881 1.4596451223180404 11.388876155377549 -1.0628935326549565 0.495479861314566 0.944390102399709
Ni 0.4263586388421585 9.253744057422251 9.310477750605815 -0.5798069027984207 -1.3183514007817876 1.113054984000696
Ni 5.773351960871227 2.387362294776023 9.077247022910242 -0.8102985878982173 -0.4727852479305277 -0.4586146128571004
Ni 0.5377258363070073 3.005059487509426 2.9568925727730906 -0.1935750145791053 1.3553534319274336 -1.3193093938196827
Ni 3.758434232954615 0.17912480709988124 10.042273216491214 2.111722616797047 0.3333360686615485 -2.202932244333348
Ni 4.091199341502259 2.584099357953617 6.174514789329783 -0.21035840468503128 0.6266045798782499 -0.1531145925712137
Ni 8.734387725804625 7.818651868164632 5.490211078639012 1.3979874645478763 -1.015301127587974 -1.1932104106053643
Ni 9.099407382403466 6.225422925593375 2.967827021361794 0.29675852664783087 -0.1116378134836658 -0.12067755508843087
Ni 2.7839355141095368 4.075952910867821 1.3662314500981607 -0.8367722087087137 0.4914614841837923 0.19730979903118925
Ni 1.8837412388162016 2.4711484870828806 4.740164168749119 1.1637733362911697 1.2308446760183707 0.8285148537959278
P 8.25284770731537 4.91139827929258 4.50721660222746 -2.977973294580852 -0.7686580295392955 -0.38745496199313917
P 8.959846739977767 6.401619274298559 8.000350029255443 1.2225089024591655 2.2785332187981147 0.2720692514312669
P 7.364856110624189 3.7897941023781416 1.736631169001338 0.8408018986933972 0.4288589788612227 -0.7306771794201481
P 1.4445462675397132 7.411997373160554 4.185901535415805 -0.17839547862518954 0.08595095024052295 0.32711039946681086
P 3.32264272985968 1.9391744197677883 8.436019782269087 1.377279028355931 0.27946194435091226 1.3314185183783909
P 0.4685708677844265 0.596559718392845 11.400809508042302 -0.39448435803609483 -0.41766799524140974 -0.2365905989086829
P 6.367962755614309 0.2376709162663031 12.858001181752503 1.0307416305127604 0.39722438267507715 0.3065893966953236
P 2.7682094619427384 0.5896863728944887 1.0118178858081759 -1.942517546421874 -2.0560307225513816 -0.9664349980148904
Ni 7.401427252466625 6.973789315421807 9.497702627507973 -1.141997378066659 0.2832934022818605 -0.03789883192830248
Ni 5.5077707608179844 0.985705260418486 7.180200898316559 1.0330407109595823 -1.494479680639355 0.5296824753382039
Ni 3.2547209420847243 0.3545943447137202 12.388542091784108 0.93669016265229 -0.4515800746078223 0.6171120670067823
Ni 2.041453711543519 4.102747152242922 9.811620454532077 -2.9698306108690593 0.35757257261141 -0.10100295947763896
Ni 7.81766495462689 8.280850226012378 2.991369982156956 0.709550681854178 0.6395110035272727 -0.7117736576474258
Ni 8.239796467540577 7.960472265887026 11.795954008618843 -0.06260456220509864 1.291453290839363 -0.062100625985486595
Ni 1.1100655896647824 8.17625583799391 7.087378451870222 -0.07299361874890654 -0.5319514738780386 1.5389970463254399
Ni 0.0994513694330094 3.669575120593952 0.6393299685410317 -0.21824243541879834 0.6031306651260258 0.01976458422143693
Ni 4.7779435879134615 5.941477754945356 3.1938625037228676 -0.3177019616687174 0.462302603231649 0.49590152223301687
Ni 2.3059096456939168 9.41801443225549 4.757673121727555 -2.1234239643943753 -0.841121486816345 1.861847384964316
Ni 6.401517815897483 6.9122963008786735 4.909880092672841 -0.023916144495965262 -1.271852228778984 -0.6500191021474483
Ni 3.4711224880890708 8.070573078036624 3.2258025307307294 0.6815451977801875 -1.5398581087741543 -0.5330107683804884
Ni 5.792121765070307 6.111854080825174 11.211236330329783 -0.5206509612635549 -1.758120598797611 -1.062952153807034
Ni 3.474267698522431 6.066824997729393 9.80345305324545 0.7476773135225705 0.17861865037958916 -0.3023308785292858
Ni 3.177262064608614 5.3041437498582225 11.930004537517009 0.7928852775177765 -0.6650153184459643 0.9028377328792193
Ni 6.170838305814425 7.339187135151932 13.20938021750121 0.6620168979392728 0.8370599151524617 0.15050620841408918
Ni 6.826720751316475 3.0539347663550926 13.108120121481743 -0.32133055956024015 -2.0848237355236745 0.5564623145352093
Ni 4.011287015418308 3.2234071901162324 10.50274124742606 0.5684752798356855 0.26050571496338365 0.8199821337345685
Ni 8.497795957986131 6.8784829828473075 0.5678054851787734 0.5611013559691176 0.8706670616839457 -0.08215240243003916
Ni 3.2916979175314647 1.0810484869570134 2.9598081182803777 -0.6743468802595353 2.214315289359309 0.2599920085517587
Ni 3.601182934777644 4.94080276862264 5.317673688816273 -0.2700113404609737 -1.3447987963400387 -0.7284899419608422
Ni 0.9859450711846659 6.384066970912391 12.274025994489499 0.2282355420757682 -0.423478945496232 0.7159565853805218
Ni 0.9564022294895026 8.72344866547042 13.22127298680553 0.37599169854854597 0.026613488822470294 0.15655884236607231
Ni 7.447830635722437 2.502997201529774 3.5929620372431765 -0.6484221899739736 1.009428470857281 -0.14488757667573113
P 4.139816362599732 7.132082868082561 12.430930489404608 -0.4917005967777918 1.4877883846621087 -0.028939308742169517
P 1.0265007611420913 5.741936750501659 0.8725274916689789 1.1776745197532943 -0.5343947932122086 1.6469113882109314
P 4.750623607550965 3.3488651147923525 12.710167990242695 -0.5753563232262349 0.8828417493732666 -0.5960228504366509
P 6.7292745688283695 9.220714736126473 8.943966655511154 0.004848329231236811 -0.11664915065532813 0.5212346016811669
P 3.7115696751484566 3.250016961671195 3.3355537725711657 -1.2221985703075984 0.5975521425969839 0.714317507115202
P 0.42951491746472636 0.8572663034489297 6.257482857984327 -0.11425005429553226 -0.12676258494024623 -0.7364845301305445
P 5.323347058134628 5.063429081559636 9.093324490084404 0.7029879410349957 0.5604292696027574 0.3230675968560049
P 7.952097336052743 3.303485539038308 9.19893161741543 -0.838960217498968 -0.8953280547657355 0.8775293360214177
Ni 4.634204704061626 0.4304483347546267 4.962311949650776 -1.4442588368105902 -0.6403666666593488 1.623397364249391
Ni 6.062222475716941 4.320578339353341 4.857029489203192 0.05267341913431573 -0.0738168859811503 -0.18696753656491671
Ni 8.117170154603583 1.5059839411368043 7.867879484366762 -1.1701183046725914 -0.4965728372684286 -0.31104331870161916
Ni 8.849727480846155 3.1262930533043765 5.873367807953859 -0.059012731088782244 -0.6157193004243138 -0.6224625326854183
Ni 3.5424938615006143 4.152720026518412 8.171241025933448 2.463311461021196 -1.3446545574526907 -1.1651956705599933
Ni 5.862570789381159 8.328102170440827 10.92397992641028 -0.09652435488099506 1.6458397524133073 0.19348811129225388
Ni 8.831907696220785 3.4178937214881384 11.784358235724943 0.01862944217572921 0.8089107064117553 -1.3065847471641625
Ni 1.1165035863876123 8.44151421586191 2.16466018206485 -0.5569096864852732 0.6818799554117869 0.6042385534782239
Ni 6.970035354581991 -0.08123866409074605 5.090328470732216 -0.33447403892073363 2.3342891335124962 -0.09530128110717134
Ni 4.666938873645185 5.492376754327436 0.43132548874938476 -0.5299935788207195 0.25807962202039425 -0.3096608365317957
Ni 2.010619581107387 5.8152911744796905 7.930490386019933 -1.2149161777135722 1.3324233054938213 -0.8215901016516367
Ni 1.5455988350115237 1.9868321978005414 13.03684282767847 1.0155106724956189 0.42562375975337663 0.24191895310013176
Ni 2.707251409878007 7.341031833353316 0.723831903750026 0.504131623452293 -0.9774475470753101 -0.4126281188246571
Ni 5.112396595315372 7.6574805863097195 8.675299275366996 -0.45077660486992044 -0.0065532277374854885 -0.5921890785128575
Ni 5.597570669261354 0.977108966800037 3.1222614653852516 0.8160830557904782 0.41339765000082995 -0.8995688323199603
Ni 2.3820864579200656 5.69151192516683 3.2538410210426645 0.11554563317850422 -0.21242788561955026 -0.8076259261620606
Ni 6.372823535374957 3.783678927840554 10.824893807221144 1.0567815062199477 0.8971016017263904 0.04717022992789941
Ni 6.656289084490615 3.432623636626189 7.126000898112597 -0.20585434616709064 0.5454086278242091 0.23278922288472165
Ni 4.1382760396015765 2.1649009151801306 0.9518919423871189 0.7423911254229666 0.07041145984402712 -0.8995480063843541
Ni 8.519222127595206 1.3404868419996465 13.073966456632222 -1.091536907423262 -0.6933051665295931 0.3264552823813152
Ni 6.9171570806393206 5.2178487679974825 13.239429428852652 1.6427066061009643 -0.3015919434807322 -0.5838764448821041
Ni 5.263634177355831 3.9492959323608017 2.0354695105782294 0.7997879181748806 -0.5721067059406857 0.7612599373030116
Ni 7.718964377361845 5.5485109205955485 6.693435772171883 -1.0266823728417223 -0.6081887963752235 -2.4544750936764888
Ni 2.9874057257221818 7.159651882702242 5.88616540172596 -0.23749125634608131 -0.05677741400036028 -0.7268377510693999
P -0.3533012112745501 1.0617621672615447 1.8953047294915766 0.24188630008998344 -0.3348473630997524 -0.7160794841116312
P 2.0180075974039298 3.9221327513454236 6.608577810210021 -0.22156532914444424 -0.6918044136143505 -0.4200997446113539
P 5.7448421501688385 8.057706308081972 3.069437610039523 -1.0299980674785165 -1.1096559856214763 -0.49203689707128806
P 2.8084607766969354 7.7893303902536335 8.6809016238046 -0.7562028344950783 0.7091465044372239 0.22538521711116669
P 6.43261020408181 2.068506210666814 5.494206694943209 -0.7196072947592317 0.1450482706233115 -0.41831719878963436
P 8.188513857542105 5.8341716605708545 11.502393348596112 -0.9820804178616312 -1.0258210532826912 -0.20439318824053185
P 4.952498155219414 7.935956226790634 6.304703442543352 0.5796991735759629 0.7756023220676126 0.41451428010377644
P 1.740731010753914 3.823349162661315 11.854096128879162 -0.951696149142819 -1.2050531688765633 0.5800699266518203
