# total energy = -340881.13765079866 ev
CRYSTAL
PRIMVEC
9.22877659528509 0.00000000000000 0.00000000000000

0.00000000000000 9.22877659528509 0.00000000000000

0.00000000000000 0.00000000000000 13.50724740623503

PRIMCOORD
 96 1
Ni 5.207604734510054 3.07117067755441 10.171375966992759 0.05523115255916295 0.4452173656145881 -0.2464872891971045
Ni 4.753105952940739 0.011465831835236277 6.164747901400489 -0.31960406378743667 0.7512331491946288 -0.07078555535399422
Ni 2.3498402830969862 1.6759734858132753 4.7703000863053795 1.0705394792359884 1.0459975282305665 0.23008210836620374
Ni 3.872652995296626 2.93956832567863 3.052205541993068 -0.30949011528188636 0.6192301417910496 0.14876942822864056
Ni 5.346202498918922 4.45588397927234 12.474915478746073 0.6661399189687108 0.3132894344233185 -0.8012117951056008
Ni 5.24451984022556 5.1967978373118395 2.4548342267730296 -1.675978737890533 -0.7832233289479801 1.9388840634343447
Ni 3.6321787678893886 4.876919217510548 10.524442189709934 1.6210082951919245 1.7807074829591913 -1.3088799709562426
Ni 5.662103516079369 8.149637143495193 12.855684642547448 0.8506728779502061 0.6828207220585015 0.3452027381921475
Ni 1.9940524942109363 5.405229752958017 11.937651184407306 -0.6839124124607834 0.25447005029226494 0.9673194575023727
Ni 8.108772121468128 7.936517009423147 9.042791666138369 -0.24167161297601603 -0.7257098081125437 0.990206132292559
Ni 8.20536049557275 9.111515595571285 6.9541525194302345 -0.45111290516341657 1.0821886334391426 0.09773020226363814
Ni 8.858222597704339 2.902524017093119 2.463289631737166 0.14353774751605602 0.6778646636048068 -1.256772708738042
Ni 1.0602018361493428 0.9352534320787826 2.7553970175086824 1.1874297993678453 0.47862885119549825 -0.7403126456273831
Ni 1.9456567906179074 6.6718147163863275 0.5901977873018729 -0.37707567564134414 0.9623009212418587 -0.4426449769017215
Ni 8.003176461568922 4.322952683590802 4.201442921617641 0.9501380606270797 -0.03576918717980936 -0.3777688450536268
Ni 7.816635203612039 3.9569209528686984 13.375484400372208 0.7788650519792844 1.1224017153229187 0.030945283428604774
Ni 4.980992129298989 0.7567098317751645 10.967979030637029 -1.014029459964402 -0.6085042707331132 0.2911216400770277
Ni 0.7315909480910483 8.807741190638383 0.41925316150979175 0.6225116407557989 0.9629786640351738 -0.2652046631009497
Ni 2.0922374466377542 6.8779025228195705 9.662031489984274 0.2302461447478938 -0.3467487425230286 0.2858063985117013
Ni 0.054219984397292864 5.493179992325211 1.4907676318056515 -0.34220148947197837 -0.5538755276446395 0.30463767228559147
Ni 6.890868953702142 1.955845359795387 7.642751212527362 -1.0421254468696697 0.5018171163865035 -1.460898245139484
Ni 3.3552047297059446 4.523466309061003 0.36287179767285604 0.06368571108441935 -1.0161256803717984 0.812157238373511
Ni 6.4061459293282565 5.901857898925154 5.214242993395344 -1.311394252737664 -0.04650431420912636 0.10682316570384184
Ni 8.092861710904746 0.7504250350270996 1.444465014706692 0.1891588877892807 -0.062087256249047915 -0.3790114592114763
P 9.15247290536264 5.935653678207699 12.613580613222872 0.6639079443143986 -1.1424159536613165 1.8310201151708143
P 3.904953712797694 6.347820062297757 13.13278603784561 1.0867045190316251 1.259640002983508 -1.5987623393095305
P 2.679307601607881 8.913235333996871 1.8138338709854769 -0.9211468156010522 0.737329394629343 -2.1741911676449135
P 6.471947105266147 7.780661433092279 6.354402948524475 -1.1983127648289362 0.6139784064738071 -0.23143990794567884
P 4.786384920743268 1.508037441137008 12.98189646611112 -0.33030088137965047 -0.2098650099883805 0.7047365482949863
P 4.3681460017630105 6.174734360374176 8.744213985212568 -1.1012528491594453 0.2535915043420536 0.46677735117355096
P 4.737047881954495 1.4788560500689005 4.2961560083519155 0.6008745221019974 -0.8480164141639653 1.0925584067092409
P 0.14604538698697203 6.136139617348615 3.870839540728352 -0.31286160285728054 -1.7635029461554466 0.18274115718839495
Ni 0.912724143060609 9.112521532202033 5.030773995111636 -2.5116780252500424 0.09195113368801583 -0.4689933849882633
Ni 2.092560453812765 6.594431426030197 4.9035359316090705 -1.120762637057599 -0.2507712612844391 0.8513465069784628
Ni 6.9095756835234745 1.3177954438321462 9.840583396186679 0.5317948936955164 -0.8767253520628836 0.3900813438723927
Ni 8.963190700806381 2.206812706002257 10.71983753577268 -0.008785716612430031 0.7512863710300673 0.11508617704358244
Ni 3.6503779150071334 4.866130777865191 5.316088078553856 -0.0649074993066624 -1.0750494512912 -0.8177504161905723
Ni 2.285331135859139 1.618219802921366 7.247070191772206 -0.11862607187604088 -0.4591221486211383 0.6516414682422197
Ni 1.7760411086315844 1.5293282283584264 11.942392006858821 -1.358883299457563 -1.112455402743484 -0.18759128619184465
Ni 4.284957811033117 7.490674820144118 1.5127708805673792 0.8472823642114181 -0.42004729410686364 1.2551819672121545
Ni 5.828581414079872 8.425411440742884 8.333526051106416 -0.562531917768057 0.055472579146007686 0.8087019328350589
Ni 6.824597110166379 1.2769857944636538 5.34153550667884 0.012400687657197998 -0.3898563723457802 -0.32538338947337514
Ni 0.8271936888730667 7.67402292145661 6.900906170946188 0.7863528757158973 -0.974625761355799 1.3538264537599458
Ni 5.202602737685603 4.705144001839868 7.274287699216249 1.616050694076333 0.38017848293638395 0.06209651222042854
Ni 0.6325587939880594 9.24529593868428 9.648551016254615 0.560142334489958 -0.4460421755087286 0.1902706327962207
Ni 6.855033614828814 2.1445553802130557 12.380945308514322 -0.22904235424777977 -0.6446393258927736 -0.8281384442931157
Ni 8.259773361397407 7.414011374349441 5.292463333773575 0.9664877056296968 0.02844899936931229 -1.0380443348217605
Ni 7.561358018812885 6.1369886647800715 7.505869077656621 0.2592222202652697 -0.046009633960894955 0.11073252806057704
Ni 2.5798675355867355 5.628196991479675 2.6146111102085277 0.5659995646016833 0.6294055396621546 0.02050249082872598
Ni 3.469152432273284 3.693937739751431 8.412772631423538 -0.5725270813075559 -0.9016745658090536 0.09160506320250676
Ni 1.2842949853953243 4.124395558723522 3.9473313312814526 0.21046459124559236 -0.6971690203603735 0.39888814353074525
Ni 0.671410096998344 7.656663592993893 11.6695995272753 1.0474625428118671 -0.05760428077702983 -0.3349221822017458
Ni 2.244106191551347 5.55841821290094 7.3501574702380434 -0.008608567604617432 -0.0038494556530772415 0.36622536319040155
Ni 5.908225754661078 3.637697576193857 4.520686601600626 -1.3523596394064323 -0.4739386448086806 0.5351185587521107
Ni 4.147190636502847 6.749382582271035 6.5783807380650945 0.7016445396332238 2.2060527922402007 0.2312401332300469
Ni 0.9517913994393294 7.791523702949067 2.959248691413209 -0.9742390674403415 -0.24219714646218285 -1.865548487964987
P 0.3867466422943598 6.1781120925471456 8.555355381494394 -0.7475361599590158 -0.8247823833366892 -0.3061366254286212
P 8.796085246008712 1.3817600932606897 8.562905443490859 -0.6514910587072844 1.5462640123004983 -1.2046343361715899
P 1.9009249112671425 3.5923658263752154 10.46457788564874 -0.3351857202757776 -0.5682672775899374 -0.25434355201672965
P 4.144837298513483 6.506038205394416 3.9109155023707483 0.9659439173110848 0.29254448856648324 0.3078168413445215
P 7.033758099150439 3.944157555067562 10.891163310031274 1.1107250503159387 -0.4710376691118016 1.1196683755521555
P 6.586651567500654 8.077191248528512 10.694551611235202 -1.4540208012933604 -0.4459164485641417 -0.7639331132598004
P 2.5700758037956972 8.938356063436274 6.251491939688428 0.8038718584362671 -1.0246314038499644 0.7574351642402827
P 7.090939597903757 4.22323575427679 1.9143278632748 0.22891971262698638 -0.11394229324712635 0.5975333735439063
Ni 2.7505352980859503 1.734188607526629 0.5284074375999726 0.4271175706900837 -0.29773040364279696 1.5600754642622938
Ni 0.8661492770569975 3.7048553822667922 8.371629823225962 -0.028385750231544663 -0.6922960085387884 0.10868927237830311
Ni 8.064824688113818 9.050125774766398 11.712971084980449 0.4739108768945386 1.3548425537292859 1.0436526821474734
Ni 2.6000600984131172 1.6757704527318402 9.598735926846823 0.2960440170793095 0.2706528306997145 0.7501070060099855
Ni 5.21232063926521 2.9960299798704964 1.1149192515961521 1.3128595244292809 0.9374550658427726 -0.9878368607294342
Ni 4.36132593598207 7.63893511347402 10.708396621633803 -0.4250128656422551 -0.9505265543147501 -0.35426356284283506
Ni 7.083805753724236 6.369932210621345 12.270361494955308 1.7927775267498478 0.03336314884147802 -3.2912974388968474
Ni 7.6995404882824525 4.022943619440881 8.760597832006752 -0.20839228209759594 -0.04588853500199839 0.7962562508725384
Ni 3.3964942754487386 8.533157405550018 12.997429419718564 -1.7331037650382992 1.1974226489144992 -0.7004037252475873
Ni 0.07471155957997044 4.770031528911299 10.567799904250439 -0.8833276878707498 0.8366608799418301 0.010821258985220072
Ni 9.074203652469336 2.194926041961864 6.101453261140682 0.06761307116328355 0.626120955373612 -0.06337255071937473
Ni 3.482811021388021 3.0445456575571006 11.966705218360696 0.3735985157260211 -0.3648480232269007 0.30472663245497195
Ni 1.100125522980663 3.523131545605783 0.0995425054395058 -0.7723732736073536 0.06607580858315072 -0.726060249473427
Ni 3.210322168549011 8.737971640836077 8.62066281789334 0.755084404619919 0.22694973338480914 -1.3233843352200048
Ni 5.615756600853549 8.343662939135895 3.919938477085261 -0.10001128498833099 -0.05081374021775765 0.19402521474264647
Ni 2.939033056645755 8.440685065732675 3.851712901579505 2.6025906903712146 1.182994132193995 0.5930527120647334
Ni 4.335273100123352 2.8090734269743143 6.1541043535450655 -0.21859750476537193 -1.7862785492890654 0.3329709720126459
Ni 6.129448754437679 5.78556608714488 10.157746909962595 -0.338701703848836 0.3782959212016904 -1.2784332244306111
Ni 6.572411565470897 1.8328996002098932 3.005146165226941 -0.2472843311771032 0.057112685852591966 -0.637191868475793
Ni 4.765121819851137 0.7976209976843744 1.6612701992067893 -0.31867306733273504 -1.396321646809679 0.28607379324047505
Ni 6.174116032353441 6.000984186547717 0.6124317554743224 -1.2473527009757228 -0.7057804161784683 1.6347770668412427
Ni 7.911654685723753 7.469171771064836 0.7004373675000894 1.1455868951901302 1.0701931516401633 -0.0894237392804718
Ni 0.24762745201725958 5.1351680683198015 5.957641238049498 -0.49335972964776975 -0.1850790612929522 0.9751343255611012
Ni 7.379578809493301 6.445202111175263 2.927209148285078 -0.34098998566238053 0.4794292356096066 -0.13087095068166496
P 8.545090213472555 1.2862145708925303 3.868069984922046 -0.6559218407851284 0.3022468034559117 1.3242654522733774
P 2.169629965770313 3.634485961996608 1.9466913364555842 -1.341960041339663 -1.1608800739037748 0.5112353243766099
P 4.732276604540765 1.5797819490950948 8.627619469565428 -0.06456631391715978 -0.47624492434435406 -0.6027288017019168
P 9.086579441660461 1.666218669127953 13.146967898583865 -0.3395036309248411 0.07831323118960705 -0.07292651295639697
P 6.451154671971889 8.571604488152719 1.8676339460552558 -0.21744616476974807 -0.7294407359098857 -0.05444439499180947
P 1.8758410969334558 3.4769968922378287 6.3119228906223555 0.41330663294892045 1.0509661850897514 -0.9573443485675319
P 7.291148673751806 4.057939139659181 6.613134464340958 -0.20190590304230388 -0.24396118034114117 -1.7477184296276804
P 2.362825171532416 8.961492605943468 10.731805413045647 2.2246192423884783 -0.9275923141160799 1.2991113216052528
