# total energy = -340859.81354860973 ev
CRYSTAL
PRIMVEC
9.42372182659882 0.00000000000000 0.00000000000000

0.00000000000000 9.42372182659882 0.00000000000000

0.00000000000000 0.00000000000000 13.79256945762724

PRIMCOORD
 96 1
Ni 0.36092099861652743 4.478953524550285 6.181291348368645 -1.909436190486873 0.20025551192307445 0.6631623243976256
Ni 1.5381398408893558 5.3945434685591565 13.499973122005247 -0.6663947152919943 2.1958588824263345 0.008144740594321458
Ni 7.860052905467626 4.962296205834534 4.973324787232602 -1.4242222298746892 -1.0933202245759301 -0.33635145844910463
Ni 4.944683270148819 3.289529078050524 12.420346340706873 -1.3532906358611339 1.949517888999107 1.495040952459464
Ni 8.628858961707275 7.315192169525089 12.630476485126373 2.285523019852387 -1.3497962495546303 0.09798319881470867
Ni 7.295129066221246 9.323924396362807 11.383365669174216 -0.6233598476887071 0.12147922505411983 0.5041653049037059
Ni 0.62968742362653 9.250230893386734 5.601286727432671 -1.4719460183132136 0.38568501457690996 0.03712801520054897
Ni 0.6938714491277755 2.3580790105750626 11.858133706167168 0.08117281212558923 1.023108796557851 1.646912930872828
Ni 0.8971807038472654 0.6459885772643832 10.3070494412768 0.5303437630712866 -0.9362350773927425 -0.9198797759631706
Ni 5.291513920216776 6.527745991944434 5.889427381696959 0.46551108286661763 -0.9156431121740037 0.8452427080735702
Ni 2.6744521924053375 4.213279964972092 11.98885957231603 -1.6784665373093932 -0.5271067441912277 -2.092714451125661
Ni 3.133707841259043 3.818416605867172 0.5999847954896647 -0.0560248521050519 1.2141296772565349 -0.8819261795375328
Ni 5.639211552672686 7.5205162159244106 3.7647786672176564 0.07739894690545379 1.1342071925982788 -0.7802344215229854
Ni 2.237766356803255 7.109312123550884 5.812105745901731 -3.6825110966014707 -0.5209227268677029 -0.7422132050842056
Ni 0.6752982362101868 6.956808036765487 8.516801488064244 -0.5471816605642318 0.032208466411744525 -0.6101538905213943
Ni 1.1524080680227762 3.016834845874227 9.812351175454678 0.28557474211686945 1.5458361807344603 -1.3208286586776865
Ni 6.4217291238522565 6.652930709787677 1.439337774060411 -0.8691398264061418 1.3478113579141173 -2.9914708148466542
Ni 5.379748225634292 5.165386830212713 2.705494873754888 -2.214860363229502 -0.3908393050843398 1.4806160352833855
Ni 7.496796708636587 6.533437919795784 10.765169531676717 -0.5836113641461755 0.05851625106833793 -1.673627464049537
Ni 3.7577089912671893 8.047660355243544 7.028086239893382 1.6428451885613577 0.6125709846033192 1.64443695852851
Ni 0.4570778267900523 5.030872627977358 1.9148917494354876 -0.37148044094175375 0.0017419223917711933 0.552230535842049
Ni 4.979588734985569 0.9279274803383187 12.66119216333612 0.775289161702568 -1.049534337739231 -1.0187595184502198
Ni 2.9527535389385102 9.139370232387945 0.45536742131816516 0.1550920280125587 0.8410204424621064 -0.465501826895237
Ni 5.9716710272881475 1.729036169506533 5.510972606656227 1.2435484967382842 -0.21454673173476596 1.2114523875346876
P 2.1031390699086017 1.4434502861702267 5.184750693373229 0.0017766322844485532 0.6262004024612957 -0.8891471227660042
P 1.663117236857219 8.700780805021008 7.235595647333643 2.4628010970436813 -0.8051918627992715 1.9113413779293855
P 8.903711226131847 8.18425719995431 10.146076255882118 0.7565131666466456 0.44048936401129946 0.7493467308051933
P 6.4335747419137554 2.4078456843879326 11.444467195337422 1.4462193029710706 -3.7965166389863643 -2.351702186782621
P 8.992690005556412 3.727270370472724 3.529297769299954 0.383035749879521 -0.6597198743749799 0.2850540937267091
P 5.73789676535369 4.469049193140073 4.834653781395873 -1.2112009336455138 -0.0494759952429406 1.3334838855478517
P 7.135830476156341 8.207307623007951 13.664339789551038 -1.1301631044358924 0.23497671745434373 0.4126823691013602
P 1.0197503389442353 0.8305521649608544 1.5816076991793095 0.20349021681028825 1.0258058837740398 -1.6956852151805246
Ni 3.241665996002509 2.4094854119477587 10.777279013943245 0.7409960448476529 -1.7870167130066708 -2.378473027118562
Ni 9.346437667284782 5.144409625912875 10.999298125543643 0.9660681015937749 -0.7156146286600708 1.4621349457600625
Ni 5.03561275994628 0.6244214479918714 10.209356546481137 1.1957141508638247 0.3784815548499353 1.485211882184184
Ni 1.5895933608700927 8.10908417268575 2.0208040142178145 1.3318656332181384 -2.588005850578504 -0.4112191542922724
Ni 0.06470892679482201 0.2164544039907591 12.34881840895636 0.2528335431301065 -1.0664095162280152 1.3438228055800148
Ni 3.4879926551190805 9.023882524079532 4.649750939721507 0.15229929575876996 -1.0373797046545683 1.0725559954453852
Ni 5.0081897300664355 7.63304487564785 11.106866138212531 0.7385732943387732 0.4776932267551064 -1.7237182100583412
Ni 7.186859928664709 0.9659880071694908 13.65050576623021 1.0080737566015994 0.24227042290227951 -0.3563258446885025
Ni 6.148733332584497 5.890268920036571 12.49587464228006 -1.0663632363711117 -0.056466053407528555 1.0841215887957973
Ni 6.826977424169405 3.305313811744248 3.475355444442493 0.5195376735947181 -1.981850796803858 -0.6885409123717303
Ni 9.007334468935545 2.1073232023026396 5.466450233918316 0.6831415957330299 1.0801224949387334 0.27846821297907526
Ni 0.5068916192109635 -0.014158199344150031 3.384558829119709 -0.10513549358877378 -0.10778321562426599 1.7228597187127876
Ni 5.560099409771901 8.985000248724125 1.2160973481395918 -0.18667828745927206 0.814834528095358 -0.1317124727463538
Ni 6.151626415118211 2.981147212143997 8.854166952148931 0.0026634057647760582 -0.7095136579686555 1.8569373492572083
Ni 8.275893468872384 2.46321004883607 10.030397246025059 -0.8230607726598922 -0.24799369853930195 1.536478136558328
Ni 7.810804536343206 6.431642878984076 3.0147248746061517 1.5195865030093119 -0.9436473106964135 0.5859078734898361
Ni 1.6890042001149268 4.469388447117969 7.974781061814418 1.8108919769623717 0.03970503189910581 -0.44860942201527254
Ni 3.65910859208066 7.217138346191835 12.849709002247227 0.15569058082850606 1.9133239555770534 -1.924210263472254
Ni 3.0904058404693937 9.323792464260293 11.720897933131367 -0.8207727479566638 0.512777472052749 -0.22996178073825557
Ni 3.331587147587892 6.5164375260146015 1.0856900037810873 0.395162615050042 -1.20838994655928 2.953519789524178
Ni 7.994463446765291 0.9684381747876212 3.6964359533707145 -2.647756231164259 -1.1387009667035743 1.9014310607942093
Ni 6.793381856636194 4.186346968615874 1.2641357114095195 1.3975724884976446 -0.5706206083134624 -1.6927312747585235
Ni 7.7093958681174355 0.7727574227099641 7.221458180177032 0.04636984551379111 2.6294867434311104 -1.129372490213797
Ni 4.34767165882654 2.758643721252939 3.8488712469883715 -1.6987150031457843 2.8212439880751865 0.4710487248553953
P 3.884948080421019 8.453898146329552 2.444815886629037 0.13860251499796775 -1.1032503392054482 0.5421649240759308
P 1.6275049928998555 7.735885949558067 13.030874395931784 -1.092634254252499 0.7437751502546868 -0.24748384878241897
P 1.6453346741825576 5.524600250473836 9.797440963126194 0.9941478905491266 -1.2186291077887852 0.6512519461132849
P 1.134531268132033 6.46620908984293 3.5827161352359993 0.33163502681004176 0.40824001705929047 0.01943394035489556
P 2.8461806712714486 1.9874534634464174 12.74234736908156 -0.7922358168592356 -0.6576416516897126 1.642701978115274
P 5.33327985438429 8.850467199045555 5.822312578775566 1.1063706300019849 1.1125477053469741 -0.33082975729992703
P 8.92847676651818 4.907572654455753 13.644451025096947 -0.9440905688814192 -0.5771121295750771 0.02835489699360923
P 5.615887841692407 5.390133166846522 10.143331125777651 -0.5225355798807775 0.4902972886723621 0.5612746483221882
Ni 6.005323137151007 6.396275651788525 8.303788627204797 0.46776156946369113 -0.4920803487147138 -0.40857914556626407
Ni 4.14145235887444 1.8875148957915244 0.7688541172198502 0.3056218905757317 -1.3190332573401606 1.52018634137684
Ni 1.7467244949651124 3.0087115978479635 2.6391528160053657 -1.440022173021423 -1.093792022006026 1.346119057813359
Ni 2.0071207704427176 7.461787582862148 10.659131931397 -0.6145327363153804 0.38030318143970626 0.6300105202360053
Ni 2.8565656124836782 0.872132451812687 2.916273370221032 -0.4489616631483688 1.2326092241179611 -0.7752063721807747
Ni 5.380926190835317 0.9000257254007792 3.5999153695431136 0.9182077875773863 -2.6697458480614733 -2.7589950094372937
Ni 3.5554382306689223 6.037033960362578 4.412601100706993 0.4524357377398982 -1.3245873543891704 -2.2466759650782016
Ni 3.2064589720742975 9.281329174693774 9.066931969130081 -1.1055679315950315 -0.07842327440491009 -0.10156937350407022
Ni 7.029757065734514 8.356852661208375 9.187712981865817 -0.7383115560369543 0.8728375869727033 -0.3965217001810977
Ni 9.006354401888292 6.831048471904144 5.103319372584667 3.6545308093384605 -1.2718427156972871 3.2193201772275972
Ni 8.766351059970818 8.490857982476887 1.4060004164992654 -0.9079341735655202 0.548847478302429 -0.5500093598210142
Ni 0.912734556361589 2.8198225219333315 0.46446319741439357 -0.33413053953838584 0.06462673484144998 -1.1827902437133049
Ni 7.177285427510785 8.062144615355338 6.810026033740586 0.1326630095850812 -1.2337055425059333 -1.10062627131904
Ni 4.036575761096853 4.0632825881344745 9.076903208963712 -0.7851634833934864 1.2482006507983148 0.3225991418600186
Ni 7.5071345312407765 3.962590122750926 12.286999737578773 1.147639406843785 0.5293472034859722 0.4325863071141388
Ni 1.6913601305169752 1.5988474554893388 7.901059287673519 0.6480095279165872 -0.06859060458520445 -0.6891993718913356
Ni 7.023735307626878 3.9970903675585223 7.107062681203009 0.2592553874960503 -0.006423901248472807 -1.7148095947148014
Ni 2.1637430235708948 4.1205316969042505 5.03686705729233 1.2493823298112419 -0.7864369507892714 -0.8192372851487438
Ni 8.542405739673706 1.9593613493323923 1.8672105452145105 -0.2482754914457789 1.2922541894741033 -1.203244912023231
Ni 4.799124466188662 3.1075193189098735 6.876464213450512 -0.9095030607145369 1.1107703017315773 -0.8719965791286465
Ni 5.676802778167771 0.6725446247562727 8.068253071701768 -0.9163990165034217 -0.9202415301779636 -1.8287868549649215
Ni 8.664838730807357 4.655883897744119 8.740103168175517 0.6616942244925313 -0.708796834407289 0.5957976217997223
Ni 9.378977777997875 9.264319357190983 8.21158505024591 -0.35523235451400753 -0.2921128003457034 1.2299658729578429
Ni 3.737419718644748 6.6023912908029345 9.062725219804184 -0.566650825032437 -0.5019824383197743 0.10615493599222364
P 6.168843554496381 1.8806450027391513 1.5114311291074134 0.5706812863480688 0.5592581321127916 1.6636870650073734
P 9.07392248581904 2.4237058078545224 8.066584130604957 -0.28548809594033414 0.4835805387738188 -1.1591749182872102
P 7.981081762081655 8.164505079463535 4.21525706176549 -2.317120335042693 4.170860260408526 -1.7980328616115162
P 3.9806459733522246 1.9568263682197882 8.492898218205061 -0.7375754492018781 -0.532349994868038 0.9004152394806558
P 3.360282379884841 5.5524379241044395 6.82874248722662 0.3707407345622518 -0.5123306143233177 0.16774596933114339
P 4.060521437703273 5.274428712941121 13.0318817917717 1.9966230700170258 -0.5402448242350825 1.054132241522559
P 8.0062054038891 5.953982701829569 7.245167321371085 0.1849502490245718 1.0954704381497133 -1.2681356991593449
P 3.1104595200516294 4.493041988354534 2.549611440400793 1.9000079551944373 2.132408941501805 2.0701504497822154
