# total energy = -340896.3517073578 ev
CRYSTAL
PRIMVEC
9.02970654425657 0.00000000000000 0.00000000000000
0.00000000000000 9.02970654425657 0.00000000000000
0.00000000000000 0.00000000000000 13.21588826425046
PRIMCOORD
 96 1
Ni 6.332776839531986 2.054456839796552 11.374861906182336 0.5430442413570905 -0.8600635751364865 0.4423341305295221
Ni 4.621150859329476 0.5739362600039762 6.114343728962026 -1.212124731011364 -1.3213523923916406 -0.5481671644059527
Ni 2.6336492918454537 1.585508072125759 4.893922936551134 0.3836913811856488 -0.6763507980634417 0.11688954880090836
Ni 3.538109824709184 4.416275852788816 4.791657900671387 -0.43374895996367235 0.09779756516646383 0.677167380427466
Ni 5.154950977741818 4.628528129387377 2.7136976383121536 -0.6507649791745372 -0.8689685909356003 -0.7535245163319668
Ni 7.164819127763687 6.0594024808992355 2.6489266519567916 0.3865537903351085 0.14682156047365036 -0.817729847365282
Ni 5.19005847588762 4.585429341154376 11.32560666418498 -0.485424276850777 -0.6768341654577634 -0.2993370860082844
Ni 5.439973657518623 7.696361819597725 12.399013905139698 0.7109994984855627 0.904140767961359 -0.24074035941099828
Ni 1.6880674764313175 6.491871235064617 0.36377165150503193 0.5915933539103876 -0.35946387609685193 0.20309118159965667
Ni 2.798080243809199 1.5931291442541173 0.4902209498034777 -0.506279008812599 -0.2921649937398775 -0.1260745577342861
Ni 0.6073172783026897 -0.15765957519946106 4.764116393445433 0.1263632926192985 0.9018630276707758 -0.07592184813929505
Ni 8.524503274702115 2.2344911242695424 1.378707932199121 0.3056311465471123 0.8310633312493946 -0.11605728270760014
Ni 6.584434754481441 0.7185759016704046 4.794433632392071 1.6174311193636273 0.014316930843304373 -0.5835784540257111
Ni 0.8326581142022635 7.555137212858957 2.5951908696868164 0.2014505606724402 -0.2811946107713028 -0.10769476967551776
Ni 7.5580357485855 3.8486504545271503 3.7472197635107443 0.8306727806791953 -0.17167152963779467 -0.28561150889207587
Ni 7.509970621880227 3.823881970109986 12.53160882155492 0.9744226442060572 0.055139107065988915 0.6874643914780999
Ni 8.095854086307225 8.855306565486949 6.933570155023374 -0.6968412047073096 -0.19360998158209883 -0.39234520020590496
Ni 6.768297634431236 0.7070187805601137 0.41583152028327336 0.16609454977064944 -0.5840494801248587 -0.8841496695514128
Ni 1.7823376103413395 6.508296270848366 9.197068307853504 0.5030468750285465 -0.52705146547326 -0.4045535693466387
Ni 9.052009687814143 4.86492584066749 1.3655444263357082 -0.18881693106882966 -0.6747091486949606 -0.09991692550231179
Ni 6.454145122087982 1.8687248106399197 6.908684284424138 0.6215371926576715 1.0020208655393001 1.1898612916274733
Ni 3.4919680254486276 4.267294728326991 0.4963349639481593 -0.4451374043062721 0.4885245130426555 0.10907056697712184
Ni 5.941691229400093 5.536338683293312 4.763905098317704 0.5771211284361416 0.38608070735343186 0.7249816716972676
Ni 5.3145329774153645 2.7811043959403445 9.31885285987054 -0.2240418157093948 0.7344183916301351 -0.33824584725834006
P 0.10532520334929775 5.469112519791386 12.307375027649348 0.6401995449538651 -0.16850135943992917 1.2801157543393566
P 3.9019979594256564 5.97656395518175 12.374789009042589 -0.28763599552127234 0.7441965540628216 1.5348521709191307
P 2.453985225331306 8.43647266785453 1.3235183672127173 -0.4486392468119435 0.5353265609978587 0.6054186898292542
P 6.349039340602095 7.782252386049078 5.868924438104375 0.3464003580446744 0.4243034982800564 -1.2416924173661519
P 4.792986170470062 0.9380781294678501 12.468476726895409 -0.5513075098071473 -0.7217428530449956 0.5711060325903132
P 4.170126058690426 6.118357433418252 8.231383657274247 -0.6630659080290774 0.08896274048365323 -0.6951198511408285
P 4.596517820507011 1.2068653972934844 3.6876426642267464 -0.239490031943665 -0.9013814600486669 0.6320267793350857
P 0.2926843855835723 5.643629653706998 3.47464182497482 0.10378386465688577 -0.9450683594136563 -0.1266258022520658
Ni 1.4249779532893254 1.1938174716708807 2.661812042865757 -0.07733852598116359 -1.2303739070295392 -0.5633685547367394
Ni 1.8837050934135524 6.54764773096138 4.872235387928041 0.5889626011557598 -0.5946802203658275 -1.0404269761213243
Ni 6.178251475393843 5.713573758809204 8.934535014620408 -0.8947729535932138 -0.5233729881804083 1.7780358496642992
Ni 8.76670708714163 2.5856383433780605 10.50480726328387 -0.33156663546595155 -0.3752892731648827 -1.3869993409674886
Ni 2.4353388817945056 5.339563323315611 7.040275097497331 -0.5381606880125441 -0.6030633022232 -0.23437739330744797
Ni 0.33120240380387694 0.17445663488331378 9.242094938384378 0.6022780873177435 0.22023169793468522 0.16399113027440146
Ni 1.3940782982854847 0.8900662780298255 11.424090962031382 0.4473310695234812 0.47582737719096113 0.12268712931929193
Ni 4.118340692984106 6.752306024550522 1.6052154061543629 -0.4040838287990718 0.8267816731549051 -0.5990004450077362
Ni 5.761404113150332 8.002252150664381 7.968083741975156 -0.9746437590779279 0.5446820340708297 0.29763938659088734
Ni 5.343599602037621 2.901118222549358 4.943851794639456 -0.4579769792731016 0.0469740547566933 -0.28507980475832195
Ni 1.0245465971232495 7.466980190122984 6.9121471767952585 -1.6969018611964453 -0.6834251884117197 0.9528953116572428
Ni 5.126335838435223 4.488161344748365 6.980605895208939 0.8215003701513078 0.5493812393187119 0.15004443828632225
Ni 8.153346226403501 7.211258907332581 9.01351334088899 1.3041332002998764 0.4129353656524308 0.47752970459404864
Ni 4.687672705738971 0.2066665002732026 10.405317959124806 0.12442725193885024 -0.0882456598119706 -0.569829736981051
Ni 8.173175461467332 7.026971631186063 4.643640245873183 -0.790333200519884 1.0419932921671797 0.7201343709072953
Ni 7.359824665303997 6.253315423975645 7.020715850652264 0.2908640155402668 -0.9839048726648797 -1.7408926649550989
Ni 2.3947864707418325 5.119897657833897 2.655401854354002 -1.0250625778501121 0.6401064710194266 -0.530506513901396
Ni 2.2833418354240647 5.153921591222111 11.152636318960823 -0.233153805312992 -0.16376693007873733 1.374552630563704
Ni 1.0999897933702067 3.23677046562439 3.7486735462271725 -1.1833121776550457 1.082633177175729 0.7837573470745792
Ni 3.381823667839964 2.852637729353677 2.834160241324934 1.2284746331242973 -0.39979188629193724 -0.33822450710210133
Ni 1.4192982680183095 3.2538636996753163 8.31539694778308 -1.905469235419325 0.5721370449579888 -0.9893345283208832
Ni 3.558869119523278 2.851229095168815 7.141574857772195 -0.19667962164635805 -1.101669882092206 -0.15870134263037183
Ni 4.351704422942976 6.829771875011642 6.029273059843913 -0.9009433440699839 0.6052327990706932 0.06050191403979903
Ni 0.8948447986107817 7.269699166591743 11.3578923791079 -1.410797728938667 0.6619670185379438 0.6505096686306215
P 0.26129802940944924 5.58234503695917 7.975405027853915 0.2877596655833302 -0.536380713293986 -1.0659343763638094
P 8.458911488042883 1.748322706659438 7.991396637734629 0.5085917161061757 0.39556550691541553 0.08070461423991906
P 1.9252327127480537 3.102778653642511 10.36971473010241 0.23299979623363098 -0.26775365477504853 0.9974666705097144
P 3.960086060138604 6.272711233136444 3.726153458682001 0.02303811276638613 -0.026120094125819535 0.7459443899918637
P 6.946887165894111 3.8676308971975395 10.313771184638853 0.42931689233424775 1.1785571794685639 -0.4553541969382739
P 6.429457905027637 7.62552377357051 10.105330347075101 -1.7830173620392904 1.1136684492149789 0.9182751504802121
P 2.548101854234003 8.431840428515846 5.830479560505207 0.37841264928521284 1.3937047780121226 -0.46866171268045737
P 6.867416720631457 3.9249875916991157 1.4881488756859846 0.17745959707448147 0.6641020626030756 -0.05575900003817494
Ni 5.274495259622544 2.6560068446769876 0.4969571107131402 -0.28636767033181004 1.0071838977974783 0.0650620226066557
Ni 1.3555575711532863 0.9723187758075822 7.139275894544849 0.5587151151251281 0.45550897734858325 -0.5913025621428462
Ni 6.932602170506596 0.8183595742552788 9.253341437597495 -0.5363560307036375 -0.0974628075348644 -0.4369165590583766
Ni 2.8270385119556973 1.4418093258571685 9.214923649117267 -0.3571370277358882 -0.3910372800277588 0.4473588374376231
Ni 6.282978009214575 2.097745251862131 2.6199440036032478 0.42722067192685137 -0.6689020550948802 0.1393764170495148
Ni 4.110566115848424 6.8224216940726805 10.366449588299547 0.03171095795003571 0.14109622795409896 -0.7825499570300395
Ni 8.01685318577286 7.111227820794724 0.2765717776382617 0.3753756622311019 0.21299892763167186 0.010260244275427492
Ni 7.65028322828136 3.9679780234563586 8.196268935363394 0.8853732575458688 -0.9005849322893005 -0.6185662829548058
Ni 3.064285015629252 8.258876404086108 12.455538060719194 0.29129596087136284 0.06919429960747439 -0.6442683157066
Ni 0.004682805694036145 5.1001948386584495 10.15064773414926 -0.1363258031486491 -1.3828176987859733 -0.6680445921905914
Ni 8.66846388245379 2.1816944314561417 5.674822774166018 0.4280107719283145 0.5637861018901322 0.09114277885410756
Ni 3.6842375619760315 2.709282111924989 11.75734310916836 -0.35585173326556135 0.07887784544382544 -1.3910470286743009
Ni 1.1800381398369062 3.182863118934464 12.448639365095893 -0.5689373070737687 0.6355229654138023 1.164009363561376
Ni 3.059408974220113 8.195361449878915 8.013440859757093 1.5993896884808843 0.3007028560075595 0.20366993692126215
Ni 5.483108564576877 7.949906943166643 3.671981541597097 0.24991868347615667 -0.5445737906277395 -0.3330162234282845
Ni 3.055553289624368 8.400146159356442 3.5451484807803393 0.1466521247753216 0.19132195687887052 0.06433440041201179
Ni 3.4556053981252886 4.267258609501739 9.259077107047654 0.5635544454953004 0.5099088922557026 -0.4465437977354955
Ni 7.214094235114932 6.048169526245589 11.364500318187915 -0.452885166572491 0.13066526242876206 0.17257090152361246
Ni 0.4752000333514354 9.06582513847337 0.5257438144396871 0.2113629346901457 -0.18865829400377832 -0.3928280533795944
Ni 4.555306240893472 0.4015239506299755 1.5807259396622777 0.24678682271539432 -1.0825318757111744 0.1700170247535072
Ni 5.871214371625407 5.6610479571852 0.3104611684024095 0.3919911593005959 -1.075822839122115 0.6683484965842554
Ni 7.867086476861785 8.840362401538568 11.241606015264985 0.43906548708057935 -0.5445313674255784 0.8649360727374396
Ni -0.028304517409420943 4.906832707667145 5.583685948346684 0.7749042675593235 -0.5831130843535184 0.8870593869990401
Ni 7.805160750965719 8.743961256938626 2.404934957667261 0.35553625890767154 0.33179417809572537 0.9965117627956128
P 8.403162081265059 1.492213146497565 3.5794965806251993 -0.03047374310882494 0.1307349393244329 0.20341976858366903
P 1.6600934462729604 3.20158170012177 1.5677872734860638 0.14486906473296987 0.07715752031860906 -1.025216329819157
P 4.701108908733043 1.1417792741877912 8.167656504968692 0.3620635185032281 -1.084020801551875 0.2727444231214206
P 8.536955239708046 1.5334427855237298 12.391916555977506 -0.7556909278556663 0.14567459135340075 0.9415166375066558
P 6.237477319102257 7.684614171684226 1.434479010272096 -0.9099997978452973 -0.10233993312150763 -0.5706990269598816
P 1.853536844621083 3.3690195442878172 5.896294380910377 -0.5807214441928903 0.2638964858124874 0.19905043587137977
P 7.055008869288613 3.8798210007203875 5.944572608684641 -0.5292836972378885 0.2920374670230777 0.10845273088746483
P 2.2050181628631904 8.379350745717096 10.12974035215163 1.7781785458897503 1.1288932365845332 -0.19835315269403903
