# total energy = -381172.27798598685 ev
CRYSTAL
PRIMVEC
9.18213659921291 0.00000000000000 0.00000000000000
0.00000000000000 9.18213659921291 0.00000000000000
0.00000000000000 0.00000000000000 13.43898505753926
PRIMCOORD
 96 1
Ni 5.266845856645582 2.704598258141092 11.08154479606765 1.648212109300226 -0.09472689666094009 1.0264072648034646
Ni 0.20519962822427326 5.625711291114868 6.044787666402129 -0.04223962539550145 -0.3220406982533873 -0.7498848626968505
Ni 0.8975749458811254 7.377424168720058 10.265220738207706 0.42845917231964276 -0.036064606933041116 0.22253643480846189
Ni 4.148801389811314 6.0041530402552015 1.0164588196805828 1.0927594669764535 0.6217498228891098 -0.13667264496510656
Ni 5.344884833375987 4.715844219319047 7.356096820649495 0.5638007571781516 0.18323686587789087 1.0459982995615147
Ni 0.1607920622563637 8.33705841946385 12.752601788086315 1.135922632627489 -0.5893870902876881 -0.11926087724656236
Ni 8.868465377846663 3.3984831190117903 6.405731936538172 -0.3157831473794497 -1.5141578757945728 -1.8267891078086023
Ni 3.746072890058917 3.0811852157412982 7.487462890585829 -0.0861016168857743 -1.8622063109656315 -2.2320931821680206
Ni 2.462208223109999 6.6610522559594 12.99776941935943 -0.9724997161517316 0.5643610005569959 -0.0456350242302956
Ni 4.474831504738544 8.543426933643858 13.399931381299817 -1.279824191240867 -2.0027826618605187 0.35156596140601387
Ni 2.7412533463994495 6.3977636786246945 8.738108424693793 1.00885537196263 -0.3517017156529298 -0.5897840686157907
Ni 6.447907325162493 3.920377384149198 9.587223727841375 -0.08423756709384203 -0.21439683642046298 -0.9316680268473502
Ni 3.5072547060630193 7.947157364174611 2.2505462073315594 1.3417666943819342 0.6273440291474357 -0.7879389892560946
Ni 1.4673788437854751 1.781977198972812 6.7041045386039295 0.6994511315263309 0.2402243390065282 -0.6913971508736028
Ni 7.438090543500361 6.030588410770184 9.853275209999964 0.09219153183359606 0.5095029150665354 0.35852542344298255
Ni 3.1733830467037656 3.6018949852911986 11.868544783320909 -0.745199284295723 -1.4321309431988045 1.1089224498895611
Ni 4.990986934665161 4.570105351373995 5.008951784409018 1.5433666361480451 -0.6466180468856992 1.0555540615707497
Ni 1.1660578577418217 2.882676610265989 10.824456915401498 0.9680043993845393 -1.2136331972360905 -2.415934257288813
Ni 3.387244184134979 1.5848459139480926 10.92336780624014 -1.9993957476661568 -1.2401168453489158 -0.9418981892157908
Ni 0.8998126325065167 1.3693870847941942 1.6921566231080625 -1.5260284019799137 -0.8516205865754559 -0.7221344320564596
Ni 3.286442691424496 8.085871897821656 4.698604758345835 1.0092677769097005 1.7091464828917533 -0.7379282045556065
Ni 7.766076453467429 5.822346740777375 2.4211806015278365 -0.484048736659489 -1.6653377132369191 -1.0688160687869788
Ni 8.318152400745422 8.720265697363223 8.716445010433288 -1.777480234271145 -0.2534927739806602 -0.5783465162028104
Ni 7.316629244031033 4.349008690509016 11.818713329418577 -0.9606728987201325 -0.8800400182584134 -0.3636228925705479
P 2.166910718503591 4.575137162086815 0.2153761899268629 -2.0890575710993633 1.7813086068783002 -0.3385970599501717
Ni 1.8211206461785683 9.056258430216385 3.0312298029984137 -1.8799929455250912 -1.419301395534304 1.4023621965768043
P 4.762985307274561 0.26807430679368804 3.584553602604642 -0.16693195807028025 0.1887264282375524 -1.044239407888879
Ni 6.796204120707588 -0.10530624879754517 13.261643816992454 0.4277670313486246 -0.6435959722299238 -1.1986894314420646
P 0.9144296753418071 9.020769473272859 5.284302934249988 -0.04093633320304563 0.6443081678056001 -0.5753403823866349
P 7.268992320713309 6.858780379846042 7.92069536546425 -0.8526107184028672 0.7635559324260398 -1.14196343950493
P 4.948492007696304 5.565173466243287 9.797019933516083 0.1153376309327562 0.5332426818856365 0.7531280522244965
Ni 0.4284623550512121 3.873309753284383 12.600002027870056 0.02438691348479671 0.7313544079928308 1.1852842137797521
Ni 7.699854886203082 4.6585844171198705 7.5899355321096955 -0.277741876336012 1.7771660454648361 2.009821570985171
Ni 8.314286721347434 7.791639521030372 6.1942159167274955 0.8159748123473883 1.403627693552789 0.216024344721557
Ni 7.782310470511711 7.385697273559933 3.909212824576719 0.5312217948008658 0.6170948406156017 0.181705516835029
Ni 6.507903403990175 0.00891126331531465 4.872720100427569 -0.5324081017994832 0.10210621984414672 -1.2972125619206434
Ni 0.9673013345854066 7.016263200166456 4.148210978444827 0.10645189840735217 0.8281237890050963 -0.4152820115077364
Ni 0.018864699104908754 1.360921155091237 13.054871288813606 -0.68052626959737 0.8932729720089198 -0.027260635488165957
Ni 5.307283985074892 2.5816494525851286 2.972313543403993 0.37888573226688943 -0.16106495776654195 -0.1910476201715613
Ni 5.134053800936071 7.693895679720197 9.145161710661041 0.7998838203227967 -0.36909908519377077 -0.5585245963808768
Ni 0.9146821840910819 8.930784537167673 7.498228027227637 1.4366098049057645 -0.16269246606763596 0.7857604935475371
Ni 4.737036589985453 1.5367039731318177 -0.2867195528401362 1.2552020218168125 1.9164421894910608 0.591964106986245
Ni 1.1659109435604256 1.8962856142354108 4.073585001790982 -0.5246595682023157 -1.1207873196479472 1.5116369091449322
Ni 5.97583533179108 6.817681137600449 11.868357467739628 1.1238201929370002 0.8573801147670524 -0.03316748789090417
Ni 5.563236035476124 7.07249460309586 4.367172792611392 -1.998830876301622 0.6961752889885365 -1.338147095351476
Ni 3.7233103740788396 3.6186707483793796 0.9751392061628951 2.1920554495198443 -1.325932041342523 1.3811516239374602
Ni 1.9910544433723119 7.299467831216687 6.3239292021231215 0.008892417393623396 -1.870039176746489 1.3133441773751835
Ni 6.111427939083456 4.677068057566782 0.43907415001618805 0.10934258969158586 0.42112664321397153 1.3197333687309787
Ni 3.7722419786201193 2.45868228275649 5.004234002758932 -0.28987002705811366 -1.0283548754481386 -0.021203373550492517
Ni 1.6219601090233133 3.708389402530786 5.391721074405104 2.149963919666433 1.8159542219766276 -0.09504957010768146
Ni 5.873362690267213 7.517516022817694 2.0581134214706176 0.5700107426436054 0.5536189315491433 -0.9441638453215159
Ni 3.706690707308392 7.298926085172789 11.062582766317565 1.136916621109642 -2.147830675373514 -0.26879263756252414
Ni 8.103666878043274 2.038617909599339 11.20303364194599 -1.6141146533958848 0.5924287053274894 -0.6637737327293793
Ni 6.432407879025192 2.495199638969788 5.1842626406418635 -0.6711402003967797 0.8840126297529164 -0.12925115569005483
Ni 4.845165427493073 7.050494204431776 6.556020553038339 -0.6495791863965523 -0.36101605107532014 0.8244735938470188
Ni 7.990212401460042 8.314920288754706 10.897659660923068 -2.1473488506410887 0.4234835734819222 1.0021301374236549
P 7.188015060354978 6.67457754278419 13.755472882415013 -0.6305327112880625 -0.1864628290143563 -0.4683776057811353
Ni 5.294327990703013 9.29461750739542 11.265430849425865 0.5827837260385577 -0.1560137684958797 -1.2373742496067721
P 5.011793655605401 1.4879101006355973 6.781674308167502 -0.6581975241931826 0.8352069211041229 -1.7741570834351832
Ni 0.6113392916259631 0.5487786421192826 10.247131929623295 0.9800464181507378 0.8654137837048064 -0.1425275610839868
P 6.8871348168555135 0.9424269272477587 9.751044976875402 -0.6245726370498856 0.05353036781797233 -0.4232238920626324
P 9.030658634108093 4.529557037308637 10.325655723152309 -0.025651639129833242 0.18620726136012447 -0.27060089441585655
P 6.823493429901936 2.7432825985299853 13.267368878998736 0.11779329156210036 -1.6900501283819345 -0.2779110549240246
Ni 2.839933765616025 8.706501674993664 9.517475302009883 -0.7148618096544463 1.169445961195915 -1.3813501131015113
Ni 1.7714452885939704 4.010059309755255 8.082944632757338 -1.5866282750501577 1.5528879453749191 -0.49833609981643856
Ni 1.997289113945314 5.311572042744395 10.87848185096906 -0.9902007329759206 0.38940257263781325 -0.18287459744246568
Ni 3.6415893606771905 3.8574154752845793 9.51355177515297 0.46527839803052123 0.6902404115613403 2.079589226597612
Ni 2.196523108191267 6.058887754961631 2.1861601491210307 -1.3341225475731153 -1.2033315581997663 0.5064697846671665
Ni 8.554684232793342 6.224662044394595 11.992318144719958 0.4817748530236477 0.6930742814657095 -1.278135233574218
Ni 0.3728792109472186 6.361035133275639 8.215264726659113 -0.3781303421581036 0.12221841721298951 0.23828187056817673
Ni 5.368299281036011 5.224699850857541 2.854977777790999 0.14161816189583998 -0.5307325138692731 -0.7489086148265103
Ni 9.524446379917135 4.802991875296019 3.6732108017954603 -0.5859140441374232 0.29712850839273985 0.24609930973006652
Ni 8.372088269590511 8.070978472682615 1.3229493484821158 0.22298792052358368 0.9570620414404226 2.3589583541244017
Ni 8.174874345338758 1.2361083758588083 5.858832877727127 2.2843673089813885 -1.235764224807175 0.5438603095004827
Ni 8.427658558703632 3.551218774845839 1.173490797106837 -0.25503389321553493 0.15789195935519904 -0.7645375796130187
Ni 3.550135282758042 -0.22527728753933457 7.1997883955666175 -0.18684206673064596 0.19402984272833682 -0.8518198470704554
Ni 7.957698456689791 2.497238073236661 3.0638465876956427 0.1379401988236205 1.257822490158795 1.6860296943686317
Ni 3.099163838689661 1.636522977254214 2.4771411314352916 1.8599756218629 0.18580411238443487 0.013763115222363393
Ni 9.348975754512022 6.005264078752011 0.5885446381687054 1.3982893120590112 -0.9670708318266763 1.3983515327555143
Ni 8.570036764749247 0.33633155368400697 3.3306234586248755 0.31165446992305684 -0.660065944860489 0.823034290297331
Ni 1.4871479833196042 3.376647998801777 2.4084807887597663 0.9588044780528262 2.1701398803936756 -1.3697667791392862
Ni 2.2617070940495037 8.814033673639361 11.727382292126348 -0.3213045914183112 1.2106995685290631 1.2689723361280274
Ni 6.896987249145397 6.055031257699981 5.756764250202101 0.37735001234865334 -1.6417923218168113 0.6309232618582619
Ni 4.445595582640696 5.188008034053834 12.321922865323286 0.5777407642980115 1.0983958393266244 -0.8452787035178282
Ni 3.1905628237907857 5.787794361740251 4.621008360586885 -1.635771312433712 -0.02817312000010632 -0.40439750338474867
Ni 2.370304220510324 1.8350499470021975 13.288467591874502 -0.25454024140856807 -0.4785594314101436 -0.23244623772300615
Ni 6.792237437809891 0.9185350084981978 1.8559374707422056 -0.8402989909150496 -0.17726599300643664 0.10170281375814097
Ni 4.531623017984521 1.0756689076377957 8.843147473323924 1.4562077816423502 0.5667112459567272 1.4180258712559903
P 2.1240117775358938 8.829009738005439 0.42781134158490014 0.21866101101345567 0.28966382458457857 1.3855399828131427
Ni 9.147519683272451 2.5197894000809806 8.549559682503515 -1.122720532114918 -0.22870913927807707 1.1516940365291326
P 7.54528280310158 4.352204073954384 4.399721629499725 -0.7200366689871663 -0.31485575046917386 0.0633614949757812
Ni 6.353349685161349 9.156059070066107 7.146986520559182 0.4888240465609453 -1.2859686135757078 1.5426248728860144
P 3.29931604656934 5.2163532889269675 6.761031947467699 -0.7684759954354764 0.3933906107512838 0.018760825547270914
P 2.0407481652295845 1.8430016770702682 8.837744704303079 0.8057533917296963 -0.7761561376885536 0.8059385111573089
P 3.4883027766629064 3.9625050256645653 3.288572947054741 0.10614722268273978 -0.2287425636191738 -0.042593152080178255
Ni 6.82180391681588 2.4316133448342354 7.679251090475895 -0.36568260331305413 -0.6465599399542543 0.4861156464908466
