# total energy = -340861.50433951104 ev
CRYSTAL
PRIMVEC
9.26607541467328 0.00000000000000 0.00000000000000
0.00000000000000 9.26607541467328 0.00000000000000
0.00000000000000 0.00000000000000 13.56183799863392
PRIMCOORD
 96 1
Ni 7.657475514238784 5.623275430995861 12.838056776106693 -0.4972464662966855 -1.1879977560561732 -0.7010393019490572
Ni 7.890850891389069 5.910792487201538 6.210087651955444 -2.310896722730485 0.2903636788650806 1.805936432729309
Ni 5.744549826935785 5.8636837594388105 11.318723397332223 0.8064416760459724 -0.9920172173593689 0.042827379578171405
Ni 5.475796573586033 3.2193960002270194 4.540937584926429 0.5255779662515272 -0.8726594095236262 -0.9576431107548732
Ni 4.189804287482553 1.0196296802287048 4.567084596728329 2.04927334922289 -1.077602556730357 0.24209275967383465
Ni 9.159422955581862 2.2645917840872287 5.848325239323405 -0.10679179824527414 0.23892773168229176 0.29892828060564
Ni 7.4297987735114095 6.001359108986135 1.6567001680081663 -2.5787406232264947 -2.2863547717250623 -1.4399149580195978
Ni 3.1969906297057227 4.236968611698186 10.787995024849561 -0.5007215693294796 -1.293888639753733 -0.49518032779627624
Ni 2.594445539181163 4.465710951106267 13.127316781110986 -0.9705970998123801 2.2838039802787504 -1.017802553853589
Ni 8.485436423072523 2.0176230742013184 10.4712305279849 -0.942600614599454 1.4925472395033328 1.1826686305337761
Ni 0.10830467008439891 1.1483076704806703 8.666326895464026 2.439842945585611 -0.1483678219148477 -3.035277784729276
Ni 2.562551707363833 5.211611495450094 6.007121681329888 -1.7197898215382126 0.24623454975635012 -1.673183948754215
Ni 0.17602207633199657 1.789862938794585 3.4209600136317855 -0.9639700814141656 2.1228691203321697 -2.2839919279198404
Ni 3.0935441629977984 2.723549768905411 0.6890633639300198 0.7397187207971261 -2.538790308085802 -1.0689659641012816
Ni 4.519528317519705 4.814004196414173 1.3561568628865095 0.4883211387825977 -1.0870464757520761 1.1823377295569186
Ni 0.23629975057316352 4.459437818003323 0.14631874475918025 0.16490052946254827 0.06327099214450395 0.3768604743067445
Ni 2.503063502753937 4.862011733498887 8.34021848808089 0.6606948366937396 1.75455962091923 0.29646182134301846
Ni 1.9915576038636806 1.034937236928946 4.327894757211579 -0.2991658505377428 -0.6847349083620788 0.9809787001570202
Ni 4.303851144544638 2.454018165214969 2.5657095858889187 -0.6405700409194065 -0.5952759449682975 0.7321810176591841
Ni 3.87759314011093 7.703750295207914 3.514930064941806 0.5095563940122902 -0.7848467234840161 1.3807230210404737
Ni 1.2160148840452352 2.5459098357938372 12.622735420430228 -0.4318432583005272 -1.7164651280403536 0.0824791896418386
Ni 7.813775675509768 7.888951345914765 13.2489256823759 -1.4106172374967447 1.4025853683312037 -0.4511784682940294
Ni 3.4944316527551997 7.245274146314921 0.8684684844213735 -0.1577510629019606 -0.1349824017468772 0.4783190332645633
Ni 8.996173237697572 9.170857292729622 4.462820862162681 -0.3429676782140416 -1.2642754448729903 0.893045686489462
P 7.581938466889894 0.1542375328681548 8.974207079154237 -0.2275202611762985 -2.0501711784468113 0.05355453618768842
P 4.268436204043233 0.5966870776033171 9.000028851706634 -0.10878954540159329 -0.09899544212930693 0.969941211395936
P 7.317438342187486 3.0837221229843266 11.997547747851971 -0.16564254983489538 1.2345768893672933 -0.7214628599107317
P 3.2489640470977634 2.247940646441749 11.85132444367028 0.7918198123677395 0.47431479720117664 1.0173999190985317
P 7.989636522128335 7.893630714034391 2.1814083712486068 1.4942387682731426 2.2624440265457357 0.17644503976703804
P 0.35934396693060927 0.12926360622257999 12.614692466909764 1.7863744514369817 -0.9236071042160867 -1.9353706509644473
P 8.536594425821935 6.397057596472269 10.972164761354998 -0.8679046684474602 -1.2736882535464582 -0.14461915350569288
P 5.426640043141251 6.099357123309228 13.575535384442741 0.8875162720308006 1.0250425232454539 -1.1089391620601097
Ni 0.5804371610263119 7.983354122949907 0.6186282177428453 -0.20667889895091504 0.23041609466685478 2.5803509051364077
Ni 5.534172849137799 5.681030879490171 8.960971416932308 0.48290716685587803 0.0044220403270956105 -0.0012133035818108137
Ni 8.615698912232322 8.119166991324867 6.656652260813232 0.35189531972097465 1.055659991020995 0.10510232635799319
Ni 7.5538159277947186 1.7895756904545683 7.5025578514300735 -1.8822205493040294 -1.4798403334596255 -0.42130379222178405
Ni 3.823849902301367 4.724530971536734 3.7791688863155546 -1.6922805603743503 0.2702476248414959 -0.3956763214616669
Ni 4.784102570825989 4.134569211520001 12.602554834632738 0.9531981876096423 -1.6215927069404847 0.08059585657619668
Ni 6.3772837913885425 0.8887222722151911 10.5437320090051 -1.6080617623335856 1.7921560911157655 0.3087267547533006
Ni 6.108688061322026 1.7767329098331797 -0.3513751420140189 -2.2358179393177755 1.0027168631650603 0.6387733540302999
Ni 1.1752904822912649 3.749313591104794 4.281865527242785 1.2824107210211204 0.9610626779593835 -0.4268488904097294
Ni 5.582245248750904 3.157266964104068 10.419004146732137 -0.8837074398076716 -0.028821037996750364 -0.3967371586260135
Ni 5.957243323604871 0.4349190051889844 2.7531076230931224 -1.4602981496616398 0.488691634748139 1.3727960528839132
Ni 3.3586373165312096 0.3868901561306556 7.014074443688376 -2.84066944378965 -0.6731145505143311 0.10585848779772737
Ni 6.8600277919752 9.03287616269131 5.237920663572972 -1.9562436377587145 -0.7446189863122208 0.4437150700374487
Ni 1.3202304350183651 8.265997223450785 3.1988447714101524 0.7143270201968988 -0.5341906476212026 -2.5191614781112808
Ni 1.725927017952174 8.046548757753566 5.460294429300618 0.38226853269619326 -0.3216203228865171 0.8738721988848046
Ni 4.235291452035509 3.781161092544702 6.620306079725644 0.6470348227081438 0.06536284167652613 -0.21789585071265696
Ni 0.17748889608117827 5.579826803049474 2.1845820021020166 2.6515588927398013 1.3630050349354204 1.4498694981291482
Ni 0.19343766520494027 7.985383393480992 10.013220462688773 -0.14763994260988766 -0.031530980728745696 -0.5815282563649017
Ni 3.26129719356751 0.27421745806290704 10.982173049485706 1.7936061932987304 1.0980999053527603 -0.3935142808133416
Ni 9.365963778129304 4.194631912809929 11.333465723427913 -0.6125493873367643 -0.5146340656455137 -0.797620992430549
Ni 8.282435241360124 1.3560716149920529 13.380217632522015 0.5347398352564532 1.6787881823148698 -1.241104920293798
Ni 8.188653291382437 4.185412167702943 4.229502934680399 -1.378308240951394 0.30405274631639895 0.47361751402383595
Ni 1.3610752957536327 7.467400507827135 7.782067165202125 -1.1462795503817809 0.24919774614973209 0.547430029129612
Ni 3.778724114692303 0.3123510651114372 13.45335661953554 0.590500377956525 0.5850997757662441 0.031011360779849815
P 1.0494664432884968 3.6436062019786744 9.238120661278483 -0.8277818322846454 -1.196992760465932 0.8439720688912625
P 7.606280447187433 1.6107774979074432 4.6046511199572135 -1.8092935221270001 1.398984795464139 -0.8944970742240079
P 1.1849735311724705 0.6286902491113633 6.629189466292545 -0.6965187883708843 -1.3072447493456647 -0.19514081640432845
P 5.96102388240251 4.995656340210495 3.2655012120147857 0.8641719408779052 0.2549364484057222 0.11261688956748346
P 0.7864692760296587 2.6999212764201723 1.4752565109102431 0.6075143960160183 0.4714274483510526 -0.25200127703679825
P 2.12455358529138 6.294973242860552 3.4721560072906845 -0.3252216670845302 -1.5244556581761552 0.3395864204466345
P 5.610886688073208 2.993090638671338 8.03114390726074 0.8723920147948524 -0.0840457627980101 1.7617062592663402
P 5.988905503535091 -0.20232661141713226 12.481556567742249 0.06712121912852956 -0.6994441895477954 0.2463610480318854
Ni 3.4151418448351256 7.004133797908703 7.102782290730801 2.4643992947687363 0.43517000868091504 0.1857832864488284
Ni 1.0653206984423178 0.7448608906744756 10.580213474794759 1.565371936774543 -0.14314848249743733 2.6751071123733863
Ni 5.433144828131305 0.980804823949038 7.123138931962495 -0.45420542804581127 5.60007377285022 -1.5118418260668867
Ni 9.259756020927027 5.602741807722414 8.738285384460838 2.273954855398813 -0.3328786694091558 1.04572499129547
Ni 2.6020066567764397 7.726313189012447 9.80284904453608 0.0652931647808553 -0.21713583261818087 -0.6673881895535152
Ni 5.136704541234144 6.087033242914966 5.118291922639078 -0.7551977902693316 1.0497135436295728 -0.0252294639907501
Ni 7.908576893790739 0.9707325998974871 1.8771892139822854 0.3325202576284725 -0.829760296167255 1.1160685740160392
Ni 8.076422585115296 3.56917181761243 2.0296513667876277 0.24975130466035697 -0.13293760340270655 -0.5481363111680172
Ni 5.996614878338119 8.395694482006036 7.496265259568613 1.9018861460537568 -5.179105252480667 1.7102111767108414
Ni 7.417502691343602 4.39991254909149 9.919779504288911 0.5862313182675258 1.0166175324065523 0.021371009476608357
Ni 8.46481013904423 3.7257406950724614 7.74757975885671 2.4684174147891937 1.3244773111738672 0.7625447175527061
Ni 4.38803344032048 7.652082658306859 12.175777929971902 0.22903001295260556 -0.656858750777101 -0.9378805834159655
Ni 1.820413189666676 0.7656104135067092 1.3527367544252147 -0.7537880544059986 0.04549129956357972 0.1734234793318949
Ni 2.0415944114794806 2.6616523846695697 6.6682876717990025 0.16068906248436196 0.3232007799997595 1.3774638906732277
Ni 6.4645146259987545 7.1306249943463484 3.548590937354013 0.4888446153862355 0.5500702949659365 1.4234352151970195
Ni 6.534640285264749 7.956232320007047 10.642557483868949 0.9720227765153131 -1.4821157597573638 -0.07031658613737568
Ni 3.427187742964856 2.758251221594517 8.76028304766082 0.37667072689344167 -1.5506929946061294 0.45215934415006
Ni 1.6266966155896552 5.870661114278569 11.308267557755617 0.030369613430792853 1.2871700900829768 -0.4291937364928221
Ni 5.848209413379849 7.772921548699015 1.4661701972902332 -1.1257122677533904 0.687782694049467 -2.090764526488141
Ni 8.926622075111611 6.575299824490329 4.399121226245121 1.3233743079176759 1.0558376542494396 -1.0288331006361378
Ni 6.865485510435516 3.7212373823870397 6.220530519026371 -0.7940222193356972 -0.20331203936121117 0.05184500969574942
Ni 2.022450699528695 7.931908871860477 12.265706119155624 -0.5205553162259551 0.9613511557340797 0.27646635205769804
Ni 2.2139341494139737 4.39476061112216 1.9634017068967604 -0.6293209503681484 0.7176545419082351 0.7628738187573507
Ni 7.696671013537826 7.032015419041285 8.608132234991754 -1.7767572400621918 1.220160456831647 -0.02971501056592947
P 0.38419372816469305 4.862984671424749 6.02269054135879 0.399609337967486 -0.921902205709838 0.08979140703253569
P 5.712683793344907 5.539046804842597 6.945573127454797 0.9896829127992374 -0.16269529428111337 0.703798095641117
P 3.938026484420235 6.139636753439946 10.213230555234805 -1.3088910266998361 0.9169726296187046 0.5508542243198127
P 1.6672356958339376 6.292286080970074 0.23992649251776058 -0.16175324208281822 -1.9530832377528622 -0.6269429370542752
P 3.0300344816276703 2.868498987707996 4.8398537671930235 2.25796619328004 0.8474983368769663 -0.8501848825701939
P 4.698317243991346 8.481192560500663 5.75489818003677 -0.36549208456880283 -1.4869694883052391 -1.3508046362144865
P 3.6509356676868405 9.165723886911259 2.1204338881310125 0.7132055049979459 1.8005831388371958 -0.7842437997926945
P 6.116907070276695 2.9124201855040868 1.663155842798153 -0.3898198626808899 -0.9791838130401264 -1.1677739728101308
