# total energy = -340854.54187020636 ev
CRYSTAL
PRIMVEC
9.46026285151039 0.00000000000000 0.00000000000000

0.00000000000000 9.46026285151039 0.00000000000000

0.00000000000000 0.00000000000000 13.84605094120344

PRIMCOORD
 96 1
Ni 7.996542628076205 6.838237501071658 6.793371258327666 0.0055278717967646735 1.1413018946615312 0.28227755942283644
Ni 1.8029936616216127 1.195720466702707 10.691297563976798 0.11033683528405513 -1.0926391393485053 1.0337338803718648
Ni 4.737169876565186 5.872004091359586 0.3197956724881321 -0.023656977297307646 -0.08222516464950355 0.4018284571059918
Ni 3.2074548288148113 5.531472468660481 6.606725947824285 0.9065154388411226 -1.3344953575315017 -1.9073651668904572
Ni 0.815172878039191 7.302102570962902 7.958958895698746 0.40562674780615954 0.3316031451308418 -0.5737766374439408
Ni 4.666671997568806 4.650447646726241 10.73258688132512 0.4720056894520258 -1.0036056935279167 -0.5363362332092957
Ni 1.732940414980684 7.202486002815843 1.7921909874367001 0.8283353907952703 -0.378299006525484 0.5686524288434981
Ni 6.468445285278646 1.936165782210992 9.590674497842437 -3.1265169799519317 0.8559598373807581 -0.6275558880479256
Ni 7.919848276892139 9.22069118473921 3.1636150245935113 1.3974619310617094 -0.2014240783098789 -0.30697403372825194
Ni 5.659611729396657 8.869081594205326 10.400197706888521 1.1275796599794323 2.512978232118704 0.31575049436930136
Ni 0.7952874054613069 0.011431781666562899 2.218358801795901 2.857391641640337 1.9061030123485818 2.1504444588472773
Ni 8.71133171064861 6.281075318638505 11.584644378314794 0.07787485810060782 0.828019145106432 0.24798624234013422
Ni 8.332117073025163 5.2637848701524845 2.0595172039026064 1.9768024357466731 -0.34360685445993727 -1.528362192319413
Ni 7.843116084656546 4.5355338334990485 6.68764241433257 0.05478635171226049 0.3658006169481571 -0.8976029668428412
Ni 8.955330810900174 0.9682862867574581 0.7035938074778901 -0.2771186409297163 0.8924594749686889 -1.6286385580436726
Ni 2.6261689760326554 7.106398112723753 4.034836176103174 4.132014748296239 1.2658972967471294 -2.3250393327794536
Ni 0.40660493674559195 4.847419780191572 8.343920643022987 -1.0313175576208884 -0.5388188904218334 1.0544945099579839
Ni 9.759774804804932 8.393854748592847 4.967146029146819 0.6382074542245008 0.9902166738155206 0.4558267656993181
Ni 7.705138150523131 6.5346198241379705 0.12297301117633604 -0.09768777906147692 0.9564593748594172 -0.015096489321806258
Ni 5.710290357655328 0.1787469370232313 2.944515336247271 -1.202329085077181 -0.8088001489758199 -1.0784793029083555
Ni 4.833314528234567 1.8914187387793115 4.112996868033944 -0.5241651450644005 0.9848304698029426 1.1886477309353465
Ni 1.7985094970155626 1.0973337327303019 8.321268989578416 0.09009608275714806 -1.1101766340116366 2.719648903539503
Ni 1.63778909091391 5.517376676966358 10.43630847633526 -0.2912165137836791 0.8333737245501259 0.7353267623770174
Ni 0.7506680755785331 6.15756212645161 4.043517859349951 -3.3840949797455586 -1.0563277065119807 -1.3493830732766114
P 3.6726821765610573 8.685751159815785 2.349093012640599 0.2747357425198365 -1.336673081909111 -1.748069899429828
P 9.115048429136339 8.184470750226382 1.3527466401489534 -2.3118739990420893 -2.513921312758264 -2.0734622877642677
P 6.864896521873027 9.659590620884954 6.173829048477144 -2.0629840139407634 -0.86984790821676 2.3834740798775793
P 3.707808132641782 0.18039964494871005 8.042395576238787 0.5070639666077397 0.1194115438918137 -0.7168338457791525
P 6.57367178931471 3.285956090209332 5.0499318436005805 2.595672880205459 -1.1377231761713373 0.9539427790851507
P 2.4059529766663434 8.396636065880143 11.795007513889542 -2.3587560083056087 -1.0489085312297741 0.8443117116188685
P 4.563347006372017 2.5467027678241743 11.300205492321705 0.6539778296848802 -1.0949204791835143 1.2646256291235576
P 8.966995315033634 3.2632230785039775 1.2385877558997413 -0.7229854672028452 -0.3560288822733739 0.237154698942269
Ni 6.75955649468238 0.47691550253691006 0.631499036107034 -0.9854169384340319 -1.20561855446173 0.12983351055608605
Ni 7.195428646705899 4.741540518016654 9.145122604838097 -0.401176939564922 0.3809616409593117 -0.1395931610460112
Ni 5.1552378138448525 5.965641773365247 3.0344729759918474 -2.363247725528375 1.5996807373587416 -1.5749662653311973
Ni 0.7724342484173513 5.597429421473521 6.277189988672884 -1.0245936086334935 -1.0431585161198746 -0.5156146843912282
Ni 2.5141216224586973 3.085341755534446 12.084611703416181 -0.5776654309753858 -0.37871603945824456 -0.9162504067406996
Ni 7.270372849256802 2.4069652247947135 7.254721790344883 -0.3152277890966119 -1.1059255720447663 -0.014332614572588219
Ni 0.7830817742909996 6.87536903288336 13.595201883724382 -0.4841646934120629 -0.16761869972465973 -1.142501057175955
Ni 3.4470170657747357 7.482869274111432 7.619149091057536 0.6513743306237622 1.1995026713719792 1.1730182519282057
Ni 5.617381115891578 5.571848870640696 7.219635567368263 -0.03316311701552998 -0.10834011656900053 0.002227860889254228
Ni 3.7085176523579295 1.3407462966831845 13.983265651247617 0.40978422161795874 0.3366967576036653 -0.3222731259791675
Ni -0.09073243527460949 3.5789688124523416 5.0848931911071595 -0.0638497474661094 0.8574047973574007 0.3301257892543669
Ni 1.5303488853634672 2.268656181460429 0.9959868825021311 0.1404709356652742 0.0366598173148788 0.021721965058123877
Ni 6.296609070290687 3.982988259352293 2.0579799111842876 -0.837702433832467 -0.45322969439610333 -0.7595434688325371
Ni 4.942958975036507 4.30216806872681 4.336139872735935 -1.2992560747132333 -0.6178633433505102 0.7430873801590429
Ni 8.102213764467722 1.3199620991315142 5.086139107728714 0.2893630055147081 0.8597385876968999 0.18127511416582973
Ni 3.0659765974150694 8.56769653931178 9.801452938957704 1.251950090538418 -0.857713329736755 -0.7797423123779152
Ni 5.611761719739693 6.85039393887498 9.739575251499366 0.2770417649451939 -2.177258236606012 -2.0472015542955257
Ni 4.516452483266131 9.281586896910397 5.372751962132076 0.6762006456388225 -0.17349624155135926 0.1877992884375927
Ni 2.068571621506932 4.286359969451051 4.265317506722703 1.095573796496797 -0.5148191850731263 1.3020174395084543
Ni 7.891410726668962 8.966806109775995 12.084667518967183 1.0824226038268197 -0.8081522309791759 0.39353870629337384
Ni 3.589072373210277 8.54247547846847 13.671106302957803 -2.04232725692236 -2.028162535386204 1.812804620604052
Ni 3.604407459341937 6.40496692134068 12.094497678127832 -1.1756477191312529 0.12441336798177928 0.06939150321994501
Ni 7.044688817944716 3.367995489921707 11.420734917595631 -1.7698587131701453 0.645251762665792 1.1063585458171268
Ni 8.280170769540309 1.0877126453793464 10.223397691966397 2.464571815790859 -2.064705367507244 0.48848980314997803
P 0.005171925717568634 1.1337841256145016 12.020726548174292 -1.2021601635994845 -0.5632906503109525 -0.4127127081186634
P 1.4620552476185833 4.907851939481546 12.783546331424704 -0.02459414439959635 0.722907048556426 -0.8804380250277805
P 2.091011365062946 7.212107090166797 5.930554604362338 -1.4999273340174877 1.7083036752754839 2.1157787891442914
P 3.616204407155744 3.463099512674071 5.785613916747797 -1.2378972119897778 -0.06548522618700335 0.22944678877504998
P 0.8765652540116836 1.4069208355425087 4.972878002427 0.7063308893652998 -0.5207576620447484 0.4819057221745572
P 3.582573172610369 6.267036288521674 9.838782190263638 -0.6782734690074512 0.6896850532785025 -1.3134071694026348
P 8.812206493758971 6.781088053001726 9.49106644393197 0.07144041532917374 -0.5015042131317751 -0.5074892270706163
P 8.52936355411407 2.93034480847638 9.22606650610874 0.5303669029997382 -0.026788066727121605 -2.16769758950077
Ni 8.981800626443905 4.152743216506219 10.825036354312807 1.896374215096592 0.9454797359194619 0.2522131359372882
Ni 6.343276547087406 8.115902764857921 4.807030133843324 1.371412285162509 -0.675139808474476 -0.5877058459305233
Ni 7.237451134427573 5.081135574690444 3.8958355875522184 0.019671767397314507 0.0010086437701724564 3.0746130919937884
Ni 2.542010477434721 0.4775521782288661 6.206575748443055 -1.715332557097807 -0.2733746005062518 -0.6756730552701267
Ni 9.173039840602767 2.147016121324161 3.3479056756655723 0.8332963343449713 0.24166055723242255 -3.6794375998824695
Ni 6.781135354316136 2.645411150734566 0.09237757498978269 0.7701592966751705 1.8264841749736738 0.086930797655289
Ni 3.880968784433215 2.052886505648639 9.27826634463883 0.2366325078902118 -1.0763452872844883 1.441759467427504
Ni 3.808777518380963 3.6452001128889577 13.758516293908269 1.0387853267528433 1.198038428121627 1.7717268767271357
Ni 4.063712682524075 0.1442273837932401 11.840658012426449 0.740032395382803 3.2036235924279475 -1.1527836700488856
Ni 6.284726980110943 1.2335331374419092 12.107250112492714 -0.8584288677465408 0.08847963019964762 -0.37696228999193143
Ni 1.5060833110712348 3.28194493874738 9.876457687191053 -0.03686319157493651 -0.7987093403987212 -1.1942301101191304
Ni 8.775396610885258 9.347562770249201 7.3647976251342415 -0.6086752490933388 0.0828244887963993 0.30331586815037437
Ni 6.261558796313018 6.129890857521871 11.883788296931602 -0.09792766298642488 1.8195023443392022 -0.4384533074178772
Ni 3.135244642236795 3.0434990128075277 2.5702285495590376 -1.1221345777044611 1.184330077396599 0.6051960322954868
Ni 1.629293774845908 0.5675457669723943 13.144083572040294 0.4994059358418496 -0.9187587749848499 0.5181883586556753
Ni 2.565263803598584 9.664509957583574 3.7765378885055245 -0.1888778662137521 0.8950274928061811 1.1740911732774102
Ni 0.6478785352608629 2.241968779870414 7.001061869638259 -1.6588600759323753 1.455611542819248 -0.9139829508627614
Ni 4.607053420886682 1.8565860508479275 6.884962685471957 0.2594998994066886 -0.19551105525955362 -0.04079697941170393
Ni 6.8298935492097685 7.08584096148125 2.458006181121763 2.3685848214705723 1.450994869982843 -0.993025089798593
Ni 3.0333481507351823 3.833686390549169 8.142004576175541 -0.044301135910220474 0.3773530976724469 -0.6824173159724957
Ni 0.7708780351732686 8.564281384411393 9.92230212111704 -1.5236043659194534 0.22019981625548526 1.0390079842866105
Ni 1.264364134174223 4.46060855147391 2.0349129521991993 -0.10935441676612781 1.0727742821037785 -0.08157621821159498
Ni 9.538688461253479 3.0794669322847477 12.87454270803372 -0.30530718754879027 0.25220876506191403 0.8161912992335686
Ni 5.43628330354218 8.011584446058526 0.8436482693138967 0.7785896868307107 -0.21108962642410095 1.9357930832138468
P 4.610809145250821 1.921984848150931 1.903278124328139 3.531601739211692 -1.0018771408725842 -0.47882811169049794
P 5.352796483608865 3.4589559175317715 8.354527489766243 0.32593720509431606 1.036737443084879 -0.5575306078987237
P 5.884113227848498 8.501957172545026 12.689296570410582 -0.24451422463113376 -0.11802494795693222 -0.4488266802324012
P 5.011555341193613 6.512984202926923 5.131609861270864 -1.0976671886907161 -0.5852195891735599 1.710215804696532
P 3.403310651260071 5.219936551694591 2.038332837231029 -0.9254868377373029 -0.0735633752094475 -0.5364632457054632
P 8.181121817166167 7.135166772147801 4.166678183731349 0.7616422603430948 -0.5401152406357537 0.48262794505256246
P 6.421465619806822 4.777716563277276 13.356800421020075 0.4641242298214201 -2.0853173873306408 1.502875103791902
P 6.69763907411994 8.494332200662166 8.551777754960302 1.3135346961194345 -0.25386712660094346 -0.6762620950043772
