# total energy = -340888.7823108575 ev
CRYSTAL
PRIMVEC
9.08314678051271 0.00000000000000 0.00000000000000
0.00000000000000 9.08314678051271 0.00000000000000
0.00000000000000 0.00000000000000 13.29410345182915
PRIMCOORD
 96 1
Ni 6.599514765456233 2.0655620951038793 11.508625925670101 0.2682557912224477 -0.6757522452474943 -0.22743618610292446
Ni 4.437353403484155 0.4068504975747075 6.101647503074181 0.1335261289163249 -0.708419139352896 -0.41601914678407703
Ni 2.384080806083395 1.5667338357839191 4.766972628242667 1.7155798972219227 -0.3201316541561325 -0.377275450356976
Ni 3.1047921769272264 3.9475083764098597 4.313590985927723 0.5372356050951135 0.7173310971305452 0.657702586834635
Ni 5.413818940497041 4.12819033377161 3.499393142645004 0.7483383441453371 0.8963544391477208 -0.5604372400225575
Ni 7.133703715506603 6.019555838372591 2.7446744699530727 -0.41162898813618143 -0.6408253514633222 0.9254562416096836
Ni 4.956491579185619 4.567914556466148 11.469581110572813 0.6113383977477987 0.4122951609652706 -0.5160710552023564
Ni 5.877232010205424 7.857185446143082 12.521662936889983 -1.2060314736294326 0.46586229555844927 0.49122545691358616
Ni 2.047613796906271 6.466809989815011 0.36007047461047614 -0.023215518884514855 0.2987313341034855 -0.8158997361350787
Ni 2.9587260922532717 1.5257506771464657 0.2976292898282712 -0.27574541473127345 -0.7022492630967583 1.4538454520577608
Ni 0.4896470144727221 0.34248550228731356 5.092771481431384 -0.16316554904931255 -0.8088032342996135 -0.2583740133323615
Ni 8.754118949239846 2.4549747673345745 1.4127245391798988 0.23638105400103807 0.9869791407148292 0.0027438812937243067
Ni 6.577569882639724 0.9953221498966077 4.6294456099328665 1.1517595996597454 -0.30324876235786485 2.089639668855079
Ni 1.0235253209004402 7.383771831740584 2.358439990809089 -0.6623830230294399 0.08989605093120002 0.012896910567326177
Ni 7.861881433070289 3.7867366769677226 3.425944092181786 -1.8556672242955332 -0.07383179837948575 0.8740915139844624
Ni 7.664068660728432 4.094019535280011 12.532789791794878 0.6185891657729411 -1.0527577297725352 0.37825555488205825
Ni 7.677629798992111 9.046732525371397 7.129361971306979 0.8295240117867327 0.10946137465763728 -0.7374906027975557
Ni 7.493768740228961 0.542499121113624 0.5231638263903202 -0.5461653034845755 -1.2020961431307684 -0.64566365339223
Ni 1.8113702301949406 6.503351489637368 9.207297129065099 0.4177173604221064 0.6322440375522144 -1.0928098605984147
Ni -0.14841861971099 5.0993694793113145 1.4226288025172835 0.49639748803282896 -0.6625889683926589 -0.7717690643644514
Ni 6.386342391772192 2.1365832204111146 6.978965950524319 0.4733174662849139 0.2659487403558259 0.24232441606866653
Ni 3.2760276615533948 4.216987177486093 0.29084872069643186 0.5278490216738909 0.7002998526798714 0.2825454683722425
Ni 5.96294058398712 6.000871805279231 5.017061635714429 0.5944578199423761 -0.9412312450557532 -1.11272331169289
Ni 5.241666058037898 2.953239871549144 9.196674388811 0.21281972174133024 0.5663896009512505 0.7272447566998314
P 0.20631732274793999 5.694660758296557 12.509140002312533 1.8204533953985615 -1.477521455518462 -1.074499492325001
P 4.099315009900054 6.159518048355862 12.779276423221514 -0.2010960055464988 0.21169692099079668 -0.6780197011254323
P 2.536414262091535 8.662406415382938 1.3104964462018525 0.5976297899124546 -1.0202183623839334 -0.24432627699004372
P 6.397414747795919 7.961005814765885 5.901704732793388 -0.13515595121026402 -0.2801304311728466 -0.6340530657364951
P 4.992778750895864 0.9586807354587783 12.826815797263334 0.2853032336230377 -0.38026795732639673 -0.2993766809969683
P 3.9221573135204246 6.162252075561065 8.251570232965564 1.0965230477839436 0.8456535703587436 -0.5036485131682875
P 4.501752914729621 1.0186658373297317 3.771723143520948 -0.1579888899443795 -0.17632394080814148 -0.47082401043909883
P 0.05642904987481795 5.807182781612331 3.576885101776114 0.5772723093020252 -0.4107833523064345 1.0273865979975982
Ni 1.2313204716426873 0.908341935554353 2.488669608930651 0.6834958937486552 0.17913467078405923 -0.015253069504328571
Ni 1.861327537931198 6.339346189912666 4.889331699609053 0.5174661357776701 -0.21997793005266633 -0.993188869069967
Ni 5.993714285552655 5.69013735115971 9.192513399233912 -0.6955703084146859 -0.325995054915445 0.30035164331572795
Ni 8.587597617834609 2.5539719849741145 10.119551175972546 1.2390601219496273 0.0705659831440204 0.7974960368169104
Ni 2.402692174001866 5.314749057682612 6.986144361488677 -0.7226674217417941 -0.9527639282857011 -0.05834707248032532
Ni 0.3367867359466358 0.35763709956637735 9.419177879265485 1.2319484506055105 -0.4699716897411325 0.2905418563141577
Ni 1.5805493021597095 1.1742510599141593 11.55578017428501 -0.2585647891869289 -0.22996460895173296 -1.035718000681429
Ni 4.164604669537912 6.657165498583874 1.795660927698603 0.6030314205440002 0.863237601989094 -0.5802357628057233
Ni 5.5601756858705516 7.908368978705592 7.965693626860919 -0.19858069532381284 0.3593738874862069 1.030796909230728
Ni 4.849501192308277 2.5756352902379276 5.201357777212228 -0.2404768213369665 0.8056847432752898 0.19182769287069545
Ni 0.7081448371614477 8.000399422702639 7.584498477595494 0.18075729398914675 -1.215989356173093 -0.33372533368016716
Ni 5.037867491914551 4.507275468021192 6.903296070653552 0.25613638225109436 0.19334155841206058 0.4162178930584444
Ni 8.027603447551746 7.214761718095395 9.095746094148781 0.23867062136616315 0.45079228859920434 0.3850802911133755
Ni 4.627300170644266 0.6642023892766358 10.668225928637055 0.9209375278037235 -0.8634160365484872 -0.025275743847653243
Ni 8.840654089385904 7.36314400521894 5.543056678981366 -1.3031230138678074 -1.7299816744695495 -0.6944277101698104
Ni 7.183969850236138 6.134448563019122 7.076251903295221 0.47766545884096445 0.07206030830135976 -0.5325903930136182
Ni 2.2148526969135385 5.259205614626755 2.4164958322867367 0.11056180681066766 -0.5482563816856494 0.7605963355770836
Ni 2.19833953591999 5.524896743461893 11.239326970901717 0.01887292564510298 -0.7868179882777739 2.592604268582464
Ni 0.9378167471187451 3.435455055260083 3.712843460622995 0.9222544468429342 -0.8205500904228965 -0.5387268449286592
Ni 4.211083132026354 2.5840008684970353 2.2338083160980466 -0.8703464451197334 -0.1170723542356758 -0.06853455453628843
Ni 1.3430795106221256 3.1816083499318677 8.287810172312131 -1.5373736517894039 0.7531774174051932 0.5047947109575888
Ni 3.508501722317353 2.6068994817339637 7.433198683700152 0.4737990339070227 1.5462015344936788 -1.7714250292160008
Ni 4.2045977651675015 6.967318631304281 6.063706290320524 -1.3286026461961506 0.21774389851582499 0.15331513861779406
Ni 0.5753664880306507 7.546478241464143 11.116729012772883 0.674028320577852 -1.0158400308105795 0.054158488320274464
P 0.24846312418361893 5.810225635810812 7.769858255590731 -0.5749079228349067 -0.26579858793120675 0.036104201921724914
P 8.524569661765174 1.800379622492964 8.020798353923382 -0.035659401074822454 0.5212281739232637 -0.020378049435719744
P 1.7510399687432643 3.3648154221210156 10.481776173018483 -0.35803074319475114 -0.267366703749275 -0.06633626133338898
P 3.93545504052513 5.968090728257386 3.837861169075636 0.3901836737782119 -0.19268566999561654 0.772088138266767
P 6.919514029374114 3.8992042014023296 10.26397866095275 -0.3067755445642007 1.5374466711191843 0.5782626982397525
P 6.18465111572063 7.906543266186503 10.301175055663796 0.25525140854297973 -0.8795569079744078 -0.2971344219300109
P 2.3517538864046057 8.290097308691765 5.8330670252225145 -0.8156595950998147 0.750035786452418 0.06786195394929602
P 6.768125220639532 3.7433374012652068 1.5023134333006722 -0.06092331784793378 0.23107044042140207 0.27146735618120993
Ni 5.3163567746770335 3.024651572171409 -0.0074454554820745705 0.648354827071148 -0.10803544084438813 1.242128733572622
Ni 1.5304920798079797 1.0368866299331738 7.210921363602506 -0.26387231744277134 0.9195169933071132 -0.8764844396966711
Ni 7.099378503518364 0.6171099060603813 9.347522750307343 -2.3599091480734455 0.7128581489608562 -0.33211530888056995
Ni 2.9384979241935176 1.4940232451605118 9.300315819440637 -1.4945825247658067 -0.3766020784390353 1.3697292410331314
Ni 6.616963490576479 1.5205642002887563 2.404823988570175 -0.19624099144704266 1.8811121467311989 -0.08646645642436077
Ni 4.071647744561028 6.855977417080456 10.47152584178569 0.8407422491000552 0.5027907931536825 -0.7604253572168581
Ni 8.07881422955484 7.0833830818959 0.036995657165413844 -0.6888173059615684 1.7673860832599368 1.623577084360365
Ni 7.703625765308687 4.006421666951199 8.106278940718862 0.5096795498537158 -0.33502116967345524 0.018536625351606783
Ni 3.2545369360799423 8.305765737027228 12.20086253941895 -0.412208000568103 0.2603013122620614 1.244718348676669
Ni 0.029481169767194622 5.052981848291484 10.207505103658313 0.25074606447345843 -0.8907473773735884 -0.8558274255679518
Ni 8.757125470850882 2.3659871775360086 5.9310178643436515 -0.6324782650502075 0.3682634766663529 -0.48207335810067303
Ni 3.4623048373816063 2.684024481731884 11.690356078179626 0.5739530151208051 0.3423994644153974 -1.6959682936385825
Ni 1.1777571546025585 3.416298698529944 12.64253328048583 -0.8364803884999078 0.6717204983802818 0.3790194296312763
Ni 3.080376678164489 8.501943542934079 7.92396383355148 1.0563927554219614 -1.0231234518458703 0.9750106554990434
Ni 5.643568057202657 8.059349045831423 3.886278883418931 -0.9514570365488194 -0.28569249864165636 -1.5122141218046408
Ni 3.0122439935590943 8.17492300649254 3.5600276895165286 0.6021919553618403 0.7297492682892399 0.37296756701024153
Ni 3.2432647508252708 4.442340051110919 9.372197118755624 1.2416597643560037 -0.8076326110302801 -0.4360678379048361
Ni 7.408259995678212 6.133821825885704 11.287039833048587 -1.7905684349136708 0.5732112518587742 -0.500724397542957
Ni 0.7599551068573772 8.63695543787803 -0.04439660522786884 0.28650830967473234 1.0189837186458839 0.8179555902228429
Ni 4.870001854773866 0.1149962725207477 1.7040119758697239 -0.7497534793253088 -0.7066707892032217 -1.0069589262708658
Ni 6.101086164598163 5.577043089591685 0.37643830525424626 -0.505644974773026 0.11979129582873563 0.3182969149402389
Ni 7.859683311529894 8.896651689784818 11.43280980713487 0.04355165933870564 0.6872067669413391 0.5826199467671836
Ni 9.199138646554426 4.662324784940814 5.754073621915259 -0.4285198503542491 1.349985739857617 0.34662712934349976
Ni 8.159190996129048 8.50034490908652 3.0316274289607623 -0.8672148414692872 -0.07050376244751728 0.09616285777651826
P 8.518738281480323 1.493641752992344 3.5820824784100567 -0.2458159741616928 1.1793177117836722 0.0667340109924399
P 1.8702744375894187 3.2110014131745097 1.602005511675089 -0.09580933109184143 -0.41904919185965256 0.5518366428377399
P 4.8267115768336835 1.1270913614111324 8.185897264530166 0.6481100580501935 -1.8588330236180246 0.40447669336211634
P 8.85139036897577 1.7398586149572035 12.594900350031336 -1.3508138921858672 -0.7607927678586058 -0.3329120937502525
P 6.563972411788602 7.610850503269027 1.6237414821137917 -1.0487090136244583 1.6085548999199202 -1.0737063069997443
P 1.8942902778902668 3.2202298903854256 6.107364435708582 -0.33166845115113847 0.30843236344133335 -1.0896844275955555
P 6.813341125714276 4.077579039461352 5.4909966227467555 0.05241013817060006 -0.8686572303427684 0.7703341316901378
P 2.3206986072863764 8.51584984077848 10.153996285499352 0.2973794480612814 0.49872690749695403 -0.04001330716814399
