# total energy = -340897.298748824 ev
CRYSTAL
PRIMVEC
8.98929204073674 0.00000000000000 0.00000000000000
0.00000000000000 8.98929204073674 0.00000000000000
0.00000000000000 0.00000000000000 13.15673755319058
PRIMCOORD
 96 1
Ni 6.445259432835829 1.937480081504243 11.354251561118039 0.31932227088095977 -0.0550401195942794 0.5065284058192437
Ni 4.445897065262346 0.5173760037811196 6.040363742956301 0.3841025005811385 -1.0131989936433066 -0.32967893152493544
Ni 2.566119249051311 1.6552792380162102 4.729452595053493 0.3007679049175401 -0.6387039342449452 0.19515187214792198
Ni 3.494254657877989 4.057074229463558 4.797670534118315 -0.5150531554608032 1.348822058566819 -0.1000987024958147
Ni 4.995277645320675 4.499131652435797 2.564379821050963 0.04946905326440513 0.5197765290784017 0.300861750182927
Ni 7.172538101405232 5.964548054300294 2.6830402731966876 -0.10098161932140028 1.1166573566399736 -0.9478819176030515
Ni 5.3298051574910215 4.380490976732453 11.381223032809226 -1.1813072314098751 0.6150112186136957 0.21276675701620773
Ni 5.6073944941874325 7.65554174939859 12.334717234343824 -0.43457197008559995 1.328255804379693 0.08540870458380775
Ni 1.785120571540918 6.4469044732702665 0.483094439842472 0.2001776074972875 -0.12471650104449489 -0.7196553743883477
Ni 2.7414464000528276 1.6126879725606533 0.38154690286089765 -0.4459843256875996 0.17739223417165575 0.29115326464591146
Ni 0.6307525500942615 8.918006905971803 4.540350253004258 -1.0284214670200158 0.08021173376390058 1.0689829333821461
Ni 8.605853741568211 2.3530730288536117 1.3399744278404118 0.15647965238870468 0.24775998526194107 0.573899021954418
Ni 6.83471151907402 0.6496498397187174 4.921435106256793 -0.5861595844893259 -0.38973810160036104 -1.1019735293755537
Ni 0.6913718406386997 7.310334958342386 2.4584419138607574 -0.3557838561421034 -0.07092130960091012 0.6278775330534025
Ni 7.350867675931897 3.8567298788497966 3.7521439611751073 0.9385182169999643 -1.2368656854014697 0.5577787193537878
Ni 7.546016215774592 3.859291827067364 12.394659631201305 1.2437888948838642 -0.3001112451701477 0.9792856287253134
Ni 7.977376381276988 8.869392814881964 6.882368250566766 -0.6277628618524093 0.06901843615124242 0.5605400841490088
Ni 6.802988307636142 0.627704281179956 0.37722575020060084 -0.149688083388168 0.0708007248626458 -0.19127207747754157
Ni 1.7935435381369198 6.550757763647651 9.148602920924436 1.5326700756661473 0.2547104484378452 -0.9309002954433903
Ni 8.916262983325458 4.857211109623778 1.472699526235981 0.7303071976752391 -0.42656066974534923 -0.12893465289090053
Ni 6.3147978381637095 1.9881527204601264 6.949296226230814 0.33315094923393596 0.023611725881669012 1.2451711199433717
Ni 3.1308805077070354 4.415746979922976 0.510981021458392 1.5489202189764226 0.0045822200540437215 -0.8232978283713627
Ni 6.045199982047709 5.588121452157734 4.7986440744409915 -1.2688041859812793 0.4414015914129236 0.19121139944293522
Ni 5.495055312170106 2.958250144302959 9.355111229056744 -0.20062883610209317 -0.17512272141118873 -0.6204951245464023
P 0.18615834892203115 5.543723339011892 12.468837470856469 0.06441667571317293 0.10875689239144497 -0.8751400098536348
P 4.0880962761261 6.070666646259527 12.492454138776443 -0.034406502504327835 -0.2885348531864579 0.3097343700822085
P 2.312279621796348 8.3911355130601 1.4212699888944165 0.8332909350283326 0.032589761010563226 -0.3743811595283166
P 6.229048981857134 7.647819947577923 5.883942870871233 -0.050908099703776834 0.9612681091019701 -0.6538258774880482
P 4.749105884134431 1.0826793167439293 12.504163590524525 0.19439262538439425 -0.5061321988220896 0.978649023582579
P 3.9208684772088933 6.199213521737463 8.01916310509931 -0.32086081901267316 -0.24819784413030804 1.2618704349759238
P 4.636110483801727 0.9595170271688793 3.722948538645231 0.7648620528319731 -0.11576186295436838 0.36919318756947384
P 0.23553563090194438 5.569073142427822 3.715134147117051 -0.7216801181278604 -1.1168599595690831 -1.2186303933403657
Ni 1.2985301960429654 0.9290702951937904 2.6305841587096976 0.8700253143348888 1.542462379166221 -1.6256907882692582
Ni 1.7310949266722184 6.514387088250187 4.892609143627766 1.0423946413706564 -0.3996065097540086 -0.9064922989126711
Ni 5.798354023962105 5.408245719408536 9.090226458731868 0.16994400542372667 0.9842242036775114 0.05318172622930196
Ni 8.642889624573042 2.2887366660707036 10.140253071246002 0.6639863629608178 1.0755317902442574 0.47148118440712344
Ni 2.245597053803667 5.160752532299547 6.946928446720263 0.34238635178927485 0.8027747687173464 -0.10857537250825817
Ni 0.5245980009670619 0.08502881401805988 9.35312459552663 0.22594366071779798 0.12071046520889533 -1.0789076486950258
Ni 1.7678791095012898 1.1655875567812026 11.368933771727695 -1.7316611190545017 -0.004088311136760702 0.2583367323365228
Ni 4.097220407497436 6.7630039368581105 1.530352350423236 0.08944687920892337 0.17403720165649383 0.1109641844554089
Ni 5.572498062676569 7.795783693757421 8.058554182605905 -0.34980732684369437 0.5460956265889046 -0.16817765755192327
Ni 5.311116419440767 2.673963785072906 4.892767355166815 0.33482139495782337 0.1479153077584614 -0.41514291482671084
Ni 0.8499780096068934 7.5433284174691435 6.848778862111462 -0.5976359605600416 -1.0027533728299503 1.1692361591779539
Ni 4.821712395549486 4.503491459051657 6.925325380206376 0.4861940651372659 0.6253000021342134 -0.14432373375246113
Ni 8.13572275970663 7.14077893279939 9.157444788527242 0.1967690960363708 -0.28041350963090417 -0.9160496035838029
Ni 4.669352885586161 0.41392813047254967 10.43426674334002 -0.3966150312258524 -0.766517586157525 -0.44968799979143204
Ni 8.100367874304201 7.122090194749136 4.721584267773364 -0.40817162571520027 0.40640733472592594 0.5124933651534271
Ni 7.127600630739903 6.075889424906568 7.021829924380739 0.8237084335462201 -0.42062065011183036 0.11007792519571365
Ni 2.337269853532618 5.107895495389737 2.7747427375892104 -0.3542849029990737 0.4346506458423353 -0.42949815510711836
Ni 2.60153705949768 5.157003997539107 11.221723328217081 -1.1113955940204021 -0.027893383976158415 0.8941263211481504
Ni 0.9583034727500317 3.328950567446956 3.764063762355789 -0.1295810282256478 0.07454116574168453 -0.3299802648154382
Ni 3.658318226014201 2.603883264707452 2.7086957125403264 -0.389813949143619 -0.19417511005694946 -0.6184600963942445
Ni 1.2531612393620462 3.345086346571634 8.18080675583142 -0.9181604792792187 -0.023270540492166373 0.17487178174264723
Ni 3.648034475975966 2.55899074050208 7.105480679936508 -0.7571605704226574 0.21766522275908964 -0.5508909910950189
Ni 4.028452323762736 6.8241041545240915 5.882772465053945 0.5378287585944221 0.6702408285109618 -0.09610963594107964
Ni 0.7768788849907056 7.313310413991561 11.107944061622721 0.39742570005260586 -0.3939333706286312 1.5601564540118742
P 0.2613402924926413 5.62518430303854 7.820417050601631 -0.4062831504432358 -0.020329969806603697 0.5782745253142944
P 8.55783294374981 1.7449294470470817 7.960602362420917 -0.42946215966286033 -0.7769932888778682 0.3173363507991825
P 1.8620868895718334 3.251705581364305 10.400058891595702 -0.4360567821612426 -0.08911366423922072 -0.6069235565095547
P 3.9658598836261714 6.12925885145989 3.812007252263064 0.35113350185428555 -0.39628284469741426 -0.5092915703866777
P 7.153642609639174 4.070432317362873 10.29410750046751 -0.14537351517321417 0.007707910167218982 -0.4847375351963975
P 6.331886482239483 7.76059061561084 10.107584186290625 -0.720281952228753 0.015357456292676775 0.6632841946874706
P 2.3684087609910494 8.464398242790532 5.656884142317239 1.2636941184482235 0.6081106348391204 0.2878920773961365
P 6.844698622476536 3.8347780278066415 1.5720986224315954 0.35110933348456946 0.6320496621532211 -0.16408214732631096
Ni 5.258753793590489 3.0011380563942343 0.35989439524105804 -0.518933464351816 -0.316031773055146 -0.12207263566374461
Ni 1.420389038279253 0.9827813148427884 6.9081423485646924 -0.2510623101622967 1.2423675890563055 0.47330769609290096
Ni 6.894400417897341 0.7599700267547616 9.22567531260085 -0.287815201411614 -0.13662842199073244 -0.9094845487717756
Ni 2.5903274123843243 1.5610984258216407 9.100028382719362 0.855133999045353 -0.5424408034451367 0.22669879371626767
Ni 6.250344614584912 1.873332493853155 2.464756891484761 0.46899801297395355 0.09640994079031784 0.5754882208184089
Ni 4.146023273719095 6.843979479117219 10.384757318767832 0.24874677465524256 0.5950293761751301 -0.8423810702550588
Ni 8.147291978499643 7.203308447892013 0.3399237841528214 -0.7869570849587996 -0.6071004484070512 0.21109142619631385
Ni 7.696047499112128 3.9244641940054787 8.143336690023398 0.6849390539530849 -0.49961008143285573 -0.14967419943109705
Ni 2.9864046068202246 8.268009180653015 12.403961750554071 0.9644531916981712 -0.214652661185011 -0.17651703065555405
Ni 9.204675427579593 4.986899625184631 10.123504222407508 -0.16431483216240733 -0.9352549728676602 0.3151244307495283
Ni 8.506602968690455 2.258442752059469 5.73377225350783 0.4045047183865743 0.26760941588770043 -0.049678855282366055
Ni 3.6720808320531324 2.617115502518887 11.406733744551802 0.6783799126783284 1.0169222081311649 -0.22029314730023997
Ni 1.0185317290928413 3.355055471390168 12.502018745455361 0.19177781346936648 0.44969879842470933 0.1920578066036305
Ni 3.097458320082772 8.338790865793804 7.783183403172987 0.31877385457665747 -0.11925110705454944 1.1483881120843513
Ni 5.674571473239644 7.8428875837926935 3.5186506974136242 -0.9687896142899961 -0.07891846887377377 0.45893265831815155
Ni 3.0954537079686757 8.410192812082004 3.503441714293266 0.16963444460310784 -0.9408954589828892 0.4585549632637586
Ni 3.5131411603520557 4.249813639052539 9.18235052091879 -0.39706111762433555 0.2577368939689948 -0.5458068917038923
Ni 7.223768076464586 6.169423008077752 11.305623986090213 0.6943531481781331 -0.7014424509247468 -0.21004010211366406
Ni 0.5619880620763577 -0.013776089976918753 0.3331116986816899 0.10306395577172571 0.872127448279556 -0.6174630225882979
Ni 4.40791730659841 0.34194098127570594 1.4509517321210317 0.7783145787924531 -0.7879528732131654 0.3843698953099122
Ni 6.11581087064066 5.517986996040331 0.26308331620978614 -0.580984982266922 0.47857871468385316 1.2926416547205093
Ni 7.936573984927733 8.77192192181852 11.262114913922327 -0.0407337302739363 0.5351707521462847 0.810665998539965
Ni -0.012194873515620213 4.648228049406221 5.719365115233109 -0.21257598116164034 0.6921008618088467 0.7951049108769145
Ni 7.776663469691577 8.828941000920375 2.6350050925110997 0.3043062570881017 -0.37544919578151464 -0.47519977090929133
P 8.463975746066932 1.6808807416079 3.545661721989575 -1.3818890163241169 -0.16859289071247094 0.7302506334056907
P 1.8521717005052487 3.203325211866245 1.6068853845801632 -1.626693775612476 -0.7363186939766415 0.7002867400537488
P 4.708905770348604 1.217968161215464 8.37209259690538 0.4408158941127827 -1.3573645488201913 -0.9518069636890706
P 8.510962775306316 1.674624194381841 12.41289530893519 -0.21812030801863724 -0.6803588907815702 -0.7344659570386189
P 6.231610930074701 7.690465148785428 1.365077025726575 0.34060483440881983 -0.499864620645823 0.2172278781113549
P 1.8334829624549949 3.2796532901657667 5.9914467127263515 -0.6614959924387963 -0.9088188901633187 -0.6756522293345202
P 6.751290889393232 3.987802745377335 6.136618384813302 0.6032787606681159 -0.2611001540142729 -1.0880607759492036
P 2.52890358020665 8.519565527742147 10.141463029948056 -0.5893523803950108 -0.619656944915823 -0.08018525140133932
