# total energy = -340897.0171821588 ev
CRYSTAL
PRIMVEC
8.99592972134184 0.00000000000000 0.00000000000000
0.00000000000000 8.99592972134184 0.00000000000000
0.00000000000000 0.00000000000000 13.16645246970106
PRIMCOORD
 96 1
Ni 6.330804394946249 2.0199819849331084 11.235697295938516 0.11734874782551404 0.5022320924367351 1.0740130396068857
Ni 4.388376317898047 0.5261440268035851 6.065823895109266 0.16057799082779442 -0.3648768195823071 -0.020709464633209496
Ni 2.557524753956965 1.639292241994534 4.744452298237864 0.7862988825495104 0.07025719365434997 0.09792560610389588
Ni 3.56252300557256 4.411801718214982 5.005595134566704 -0.5296297677233975 -1.2975542615307782 0.5640149300714867
Ni 5.149359982878903 4.449827512047426 2.6470360512816833 -1.2286381552853551 -0.6189146674331599 0.03002200028338701
Ni 7.1234897153483345 6.01963519488374 2.652026093353804 0.25386095595335634 -0.11871734603826652 -0.4099233182989843
Ni 5.0194947451771865 4.530727905691894 11.386926966517612 0.4167981910419467 -0.2740271464885861 -0.17124421229238895
Ni 5.655345031352912 7.890446677491421 12.320007260055734 -0.7041392810306195 0.2036041166803332 0.2761099971595438
Ni 1.8498329751041893 6.534679144325165 0.4315095476507206 -0.5328418469027919 0.19001840757609856 -0.4281619527941981
Ni 2.7578011315514046 1.7172239789168098 0.3319893792074845 0.2844288014378843 -1.0967739874524853 0.3784525013842127
Ni 0.6530055236582113 9.105949678498826 4.5897466005149665 -0.36101605107532014 -1.003466339736575 0.5622817494304639
Ni 8.600630328804945 2.553611524641348 1.483951431651677 0.29695804425314665 -0.5089562985344461 -0.028754960645505315
Ni 6.840558737864495 0.5094035016692595 4.719501188284311 0.21361290706658695 0.12135555499206198 0.39873490578233267
Ni 0.6622488411795825 7.507606907411621 2.471566848769417 0.7601967861458199 -0.5744736635109655 0.11504529650331799
Ni 7.661869105812082 3.6841839556056732 3.72981850657639 -0.64955476091652 -0.061102266627959284 -0.09711390883587791
Ni 7.7498403000130445 3.8199505230339295 12.44396936884502 -0.688124393659602 0.22352605241524084 0.2268926548946286
Ni 7.804895388315518 8.618181387183725 6.882880987607602 0.7501301459384372 -0.3361491126303114 0.43495017936062513
Ni 6.95512189955273 0.826254530779456 0.4439806046627662 -0.31380159817304665 -0.135961734941011 -0.8238120490036198
Ni 1.7658019980072275 6.611945182467312 9.199479457513855 0.14440832304646742 0.030210205034793134 0.08898947995653061
Ni 0.019013796509167995 4.993361570092435 1.304273033744521 0.10569985073267602 -0.06527953793410049 0.017818259128343505
Ni 6.595950419885319 1.7380765434078445 7.030451114081885 -0.13328573077074465 1.0878733425287457 -1.2288189038375934
Ni 3.395531566984518 4.395402138807235 0.39488172125654547 -0.49093235115319966 0.22192014138070165 0.1621682181330497
Ni 5.887044190555282 5.409441299531324 4.801884111103983 0.7046938679825089 0.3153062077430312 0.15454849680426286
Ni 5.077131665235021 3.0346328688605584 9.271710473936576 0.645441767189411 -0.16391862516525318 0.05905515429094345
P 0.11680224853112524 5.700639536189995 12.244352392880085 0.80203403389658 -0.10587211464448217 1.1531364254026142
P 3.95210972274825 6.16088028335386 12.355925307615422 0.6761186274479776 0.13236399028742363 1.4624702176122943
P 2.4266969518029016 8.465655403169274 1.43468252517864 0.11980080891043239 -0.2246138861627809 -0.539415900575884
P 6.325082983808933 7.435981317041639 5.796965250081564 -0.3705998381090133 0.4767038662586435 -0.2109207049464045
P 4.759107566923086 1.0672770712754025 12.563125852116137 0.27070142454946283 -0.6840090859396478 -0.05264153745511579
P 4.036446561446892 6.079799971120168 8.007651943662408 0.07021682733471778 0.4353656696314889 0.34579537747082384
P 4.771656888521444 0.7489327178746487 3.825447035934716 -0.8643400910246533 0.8694933530908187 -0.1793357310512718
P 0.15375842635063366 5.581272548169486 3.552295533368135 0.40542645886989537 -0.48298558550229725 -0.9092369515373439
Ni 1.5358930287676333 1.1776571257641852 2.4336076248149863 -0.9740032972804517 0.07795867606366574 0.8974052490097383
Ni 1.8306086738456295 6.49657238712757 4.71019310007082 -0.27784394913151506 -0.9462433535583639 0.6877842367113639
Ni 5.89254969938553 5.485357948254293 9.145693694858357 0.3250797421900272 0.8088078622853039 0.36569314483601534
Ni 8.466887845505456 2.1867035456373145 9.955312053285237 1.3127885619820294 0.6151102060854052 0.6161808134417647
Ni 2.1902479418450227 5.206987907007277 7.081668538876215 0.599743750931664 0.3571218582272366 -0.7866578085508259
Ni 0.5431697229018305 -0.011766675735234544 9.15477868402121 0.4536701243676316 -0.38361064854638455 0.2543787761300393
Ni 1.5450688768180454 1.0744738148443533 11.442292414386497 -0.473043900908553 1.0605247753124638 -0.4879678692082371
Ni 4.012364458279291 6.652399877254276 1.5289409744800269 0.7276491912271017 1.1518950967963453 0.12977746050717004
Ni 5.556578721798523 7.864205551253133 7.902872754856159 1.3038146406181934 -0.20115822624300198 0.3076396923367089
Ni 5.314858097176388 2.6582161924160483 4.630904776985796 -0.1407630129843963 0.8599720438639447 1.1410522405445704
Ni 0.8306877248179297 7.236658507970085 6.785963341557488 -0.8516429551729592 0.6974315299931408 0.35316878711675953
Ni 5.229594677743243 4.408068407488589 6.998048675755629 -1.1301013979600214 0.07704336333824795 0.743141630435746
Ni 8.309818917113105 7.010194979714127 9.406942683154838 -1.0228018068403932 0.13180708934268914 -0.5916506895108843
Ni 4.634936752570301 0.48011815290130644 10.432688246886771 -0.4220509548004538 -1.0716077725995028 -0.7377798519032004
Ni 8.15506194259228 7.105866689533866 4.645440399809185 -0.18282908891651092 0.6877289579933963 0.8089868110653292
Ni 7.235372090057135 5.846310621955021 6.981906379930473 0.5552947765896695 1.0135232097519449 -0.09797111462985063
Ni 2.333948919058048 5.351183660340667 2.624613697099671 -0.9082506763646745 -0.9628102567781095 -0.5746191879498942
Ni 2.214366028730469 5.41061976629074 11.410100480809632 -0.690141938310263 -0.7025048307509902 -0.6726581797032029
Ni 1.1124636249589523 3.5252618657443175 3.877652213783885 0.6340376391175274 -0.6477814710661811 -1.153408191006762
Ni 3.5816663434659692 2.3833275758705117 2.5870368001473407 1.2302664349173973 0.7179561323090539 0.586115618625268
Ni 1.2166904636962823 3.2425827742853914 8.075472255870308 -1.6957610627237827 0.12024560975733484 1.2701614713401221
Ni 3.568595257958862 2.7583768710369205 7.240390019510587 0.17706724673206925 0.4942986965222714 -0.791844752068404
Ni 4.130795869635837 6.92082941644668 5.93835967098074 -0.16335375380071865 -0.18361147560849023 -0.29792040816641596
Ni 0.71317029989464 7.690116324320214 11.479486984336726 0.12329956609231021 -0.5897717273206166 -0.13395344626173059
P 0.19762167881044262 5.561193633612113 8.01170730866351 -0.19263373371175854 -0.8704472323636557 0.24168421138150636
P 8.691426244856721 1.3983632591649837 7.869245970530238 -0.8472805644392053 1.1607864857487042 -0.38973501627656754
P 1.8053660957775346 3.2487899656136117 10.345263105604106 -0.5042280398208413 -0.11024838933530691 0.22259994105654568
P 4.004825869390815 6.022378953369403 3.780114748193895 -0.24499656358419097 1.0693966238807968 -0.5125255039429432
P 6.995486635045083 3.864525353514119 10.272387081039016 -1.2667331623848634 0.9358805222668012 0.46647601788304827
P 6.322357217182193 7.790663827907918 10.117417802582908 -0.972276287287016 -1.2632560024695405 -0.945359922512146
P 2.395975852692943 8.387327845350706 5.845325567679021 0.3373297632019739 0.20115256981604712 -0.12004094994569649
P 6.8438242602589066 3.8658387592154524 1.5253336067660903 0.5868370701723249 -0.02947409819971698 -0.3452621306751732
Ni 5.130306604280107 2.8915616067098164 0.4041088461048865 1.1266815736451952 0.0637733857022192 0.3295503763668711
Ni 1.7415309803209411 1.0346218473312883 7.052978720638593 -0.6011789407162936 -0.40069460061186474 -0.6641935938756174
Ni 6.817097353829715 0.7152645522732047 9.158873631111945 -0.4008223844389807 -0.4946067146809933 -0.5869782237358794
Ni 2.6929944557130026 1.5571054304371157 9.12816962426796 0.4841382110495016 -0.5650760243461493 1.375954653117553
Ni 6.218193349951092 1.8454879411744352 2.5395185015474504 1.2285851905602325 0.6630083153182647 -0.02031660007016501
Ni 4.066034173444741 6.8306632154571885 10.293519418936294 0.5137935720220893 0.6176530271119169 -0.7864238381631489
Ni 8.072920110682167 7.288277151218385 0.2763180697369196 -0.46951223360621075 -0.28141546853285726 0.31047510490297503
Ni 7.6105383323065405 3.845391011550171 8.189138523391263 0.6827271339034306 -0.6945997169713005 -0.48206435923960855
Ni 3.126112475551384 8.247639052677371 12.238967429504617 0.46592760157874596 0.32729037668810085 1.3707193728605425
Ni 0.06851209918346543 4.7644421530935706 10.244316182748323 0.15224375993048617 -0.7274728135502374 -0.4506344228651013
Ni 8.923809094698141 2.3182240343598903 5.780085288040589 -1.2219404315502052 -0.6425395059409514 -0.0138639024662858
Ni 3.5841132362794124 2.5558245232888006 11.407176803734746 0.1947178699342969 0.9482889232334831 -0.32322237726631436
Ni 1.1566336386133877 3.3752277541906155 12.609563739587738 0.23940827086313607 0.42737236701336717 -0.3156149972327016
Ni 3.306570820542825 8.221191020061477 8.091601057801272 -1.2455485578874486 0.704411817965716 0.021631976447478874
Ni 5.470802534386091 7.698455550930735 3.675849226959882 0.06997642918913755 -0.32498358293179513 -0.34482632868933516
Ni 2.953921389734775 8.20562806209362 3.6782457425683424 1.1925807474411656 0.9688222673001445 -1.0049917752421658
Ni 3.2323184187701752 4.512673075263288 9.248036785966512 0.23894727206631747 -0.38327794779731406 0.21780354810916683
Ni 7.161092700496102 6.136915127269254 11.366940710033688 -0.41673339924228225 -0.7308640986199736 -0.10136162836863832
Ni 0.5271821570634063 9.13194791464166 0.41632891668496497 0.13778156175856918 0.1851788200956101 0.04430756366812369
Ni 4.642637268189079 0.3243518350949355 1.5465972852335015 -0.6962292821549235 -1.1237919108022258 -0.39370222845443165
Ni 5.984766972292173 5.543831489752019 0.42430200896641634 -0.1627264046293649 0.026515529792025302 -0.7679298931240194
Ni 7.65557195518925 8.938661374238565 11.25506463247551 1.551213900106606 0.27867287279071357 1.1370032672861774
Ni 0.02386979923231754 4.778187933310266 5.591213050224099 -0.29194773552274883 0.5366229112117791 1.4869185804626457
Ni 7.663794234716776 8.602852323381859 2.537649147405416 -0.5239645990178202 0.6262140293080505 0.005358436098435932
P 8.493533788569497 1.5523555796816082 3.517220404398961 -0.5026426976115924 0.33596810696775686 -0.2014058234774338
P 1.8456858516225814 3.317680793427393 1.6509014889641975 -0.42063941916490777 0.35356936498928787 -0.2237404824188921
P 4.8101864544037145 1.214963245239734 8.17499782187122 -0.32452489812782176 -1.3485844886347162 0.15565535671519645
P 8.629111441479068 1.7531177374669518 12.32192969018159 -0.9789992078331463 -0.6189876867629404 0.4417358348238909
P 6.082489754029064 7.5505714665182575 1.3286789903727254 1.0323508839814093 0.5164968298858653 0.5856273661349398
P 1.842276394356791 3.3085679168832085 6.023414384850384 0.5397997662778639 -0.04077203971103945 -1.3909477840922755
P 6.861807123251823 3.7129259502341703 5.950736270733443 1.545357698436145 -0.3329694293507492 -1.098884606037585
P 2.411790696685712 8.47961708569304 10.240076401193267 0.3371862956455741 0.09208328839050593 -1.2668645457564054
