# total energy = -340887.499871942 ev
CRYSTAL
PRIMVEC
9.08363715529895 0.00000000000000 0.00000000000000
0.00000000000000 9.08363715529895 0.00000000000000
0.00000000000000 0.00000000000000 13.29482116489612
PRIMCOORD
 96 1
Ni 6.48464486262035 2.5109624916156386 11.771646720534019 -0.0352631940776683 -1.2417063013232228 1.7335357103693951
Ni 4.723672849938554 0.48370366381913765 6.126041045902004 -0.44320856271467546 0.17854203150538284 0.3623810497436469
Ni 2.8821380617748424 2.0867021475341994 4.763587258749589 -0.7248191779774743 -0.6899316220716699 1.53892531254724
Ni 3.754121783996779 4.694178280991685 5.405301694446667 0.44986720568177363 -0.9261764076051597 -1.5453417575965451
Ni 3.932097481371584 2.9738192087969377 2.8383512985621895 0.2385860320721568 -0.5087593520322916 0.6156262264898753
Ni 5.126859156460172 4.86575909800351 2.52642829176622 0.18486077463455902 0.8294401938236746 0.6623184883400915
Ni 5.379238923512772 3.0314821357063066 0.9222870865317511 0.8932853133040938 0.5632178880914881 -0.6773931232850269
Ni 5.588416913567742 8.496352504079605 12.851504930918754 -0.32131101917621435 -1.2260369702170821 -1.7853742923072413
Ni 2.6684727551015324 5.540473478119152 11.661804658299273 -2.85146807706705 -0.7085505227244377 -0.7798922076922181
Ni 1.2330219536239166 7.901510543043056 11.4398478078826 -1.8947173962194597 -0.4200012713602767 1.0075428237987938
Ni 0.5963280440299914 0.19639095442007326 4.969616860262216 0.2802145062462206 0.38416215017448035 -0.03626463875898916
Ni 8.917279153426366 2.6545657070394273 1.734402374810041 -0.7557729460465112 0.47525479251694286 -0.7354031241409077
Ni 1.734284287530611 1.6416493586361967 2.729334030556079 -0.3175965464391046 -0.9489586956069981 0.5541624627574392
Ni 2.254676760704969 7.064126393694116 0.34119139318454483 -0.8036561428810353 0.08937643098230415 0.7428968614147915
Ni 7.525466143516583 3.9076079963451726 3.8501140250817576 2.3302069930233227 1.3580895999116738 0.2432579836265294
Ni 7.840341332298303 4.207104587890352 12.888744208668856 0.1606206711402718 -0.1642328139715623 -1.1859267324597575
Ni 8.087652429972291 -0.06153891476573731 7.2850431676881175 -0.16257830908727483 1.0544335748130615 -0.9692801807731695
Ni 7.088488707804218 0.8436345998855393 0.7021742144015616 0.9505293825282276 2.143930054767527 -0.1665172391303648
Ni 1.803946698757446 7.060865368054472 9.243809556687829 1.6860744315636382 -0.3580268865400092 0.4628818727738867
Ni 0.10913535528554044 5.27912816146675 1.4266142395214985 0.6138007432453623 -0.14344518780224974 -0.2085848577243763
Ni 6.468094476226388 2.309723600193119 7.316857697493942 0.400057224138182 -0.09008862655798032 -0.40781887036147185
Ni 3.603297077254 4.805044069102719 0.5707430723959447 -0.04205064931314693 -0.09679252094071718 0.1396669517067401
Ni 6.082257916144102 5.777956080689809 4.5813022840392765 -0.8417840601010084 -0.3479988128800458 2.554290203493614
Ni 5.6739030202382 2.910442674290531 9.699874438574524 -1.220070725331318 0.5166814350928456 -1.468240030216536
P 0.44211059891281934 6.072175079208154 12.464811783878757 0.5014232233821945 -0.670922685069335 0.8119739187181113
P 4.184032150217101 6.691125012522186 12.696434532298621 0.6556763004332256 -0.5736825350682379 1.2225996624007591
P 2.8009303480745027 9.014837413509325 1.6313012795033748 -1.4927822383322742 -0.5894750220158042 0.426194287544866
P 6.189726424062304 7.879964156365515 6.159131826689361 1.8895083412146942 0.34879662619099283 -1.0445098879414465
P 4.719721467896087 1.5707788237044236 12.828704093988192 1.4207340142157725 -0.28433135662807163 -0.764153971021355
P 4.142901442427935 6.494909372293883 8.46930597527169 -0.12525386160520366 -0.9255066352316448 -0.6664605355329232
P 4.7275969810703815 1.2516343255894644 4.090696872919298 2.015228086712723 0.43956788063829455 -1.362618083909647
P 0.2061231629724831 6.073410453823731 3.5649532292593835 0.6683428401573006 -1.0273578016421918 0.22023195504500134
Ni 0.9334708602574622 7.94917238574839 2.705602120845396 0.3447301694311031 0.18178650658460951 -0.36594896960056333
Ni 2.010690274128781 7.046122625399477 5.036982019722293 -1.3876220621531523 -1.8557754677386231 -1.0863008558353033
Ni 6.331630999389676 6.131463977118905 9.210585246438347 -1.0859838388155167 0.1766792672650312 1.0151682015545354
Ni 8.692286551564653 3.2952982015898598 10.736259271218941 -0.5612206551558012 -1.4084546826277873 -0.14871260684877613
Ni 2.654756463413891 5.551646351480607 7.144730045541987 -1.704019188967517 0.004041774169541426 1.9142804059530518
Ni 0.614549819609732 0.2504876454906553 9.18359685290646 0.11076929483578342 0.5526979623967707 0.17744031380077183
Ni 1.1850603509015682 1.450529638697142 11.49878335231875 0.8210663679376828 -0.14216966352393579 -0.5583780435006835
Ni 4.478996006959544 7.361061399639352 1.6089655247810297 -0.7077367685738908 -1.40095786003011 0.7240830711423981
Ni 5.7393597075899505 8.383170388564366 8.249290298056108 -0.31610196417144915 -0.4157895472717743 0.29386115049537775
Ni 7.056705062363783 0.8213560720755334 5.153325240871506 -1.2300581755613331 -0.821596786519856 -0.4030361042608478
Ni 1.120893539986669 7.535939576838339 7.129068038834814 -1.3812434123203179 1.2822744525535723 -0.35461066176960865
Ni 5.297894955259244 4.824701059309379 7.357819449637153 0.024370458424564482 0.0865181355979026 -0.01368726767910546
Ni 8.272168345900143 7.52205977968687 9.030360440572245 0.17485044158640856 -0.3484320437627225 1.4297994668521505
Ni 4.733483177768124 0.6447501871421167 10.483391712865927 -0.13597304779492064 -0.3066657584592138 0.504889070443608
Ni 8.26959767666332 7.2778371185518225 4.932977102546143 -0.22469616146394208 1.0978916459966963 -0.14544036385540757
Ni 7.587834394329395 6.444077340317697 7.000773476643596 -0.5807003611469677 -1.1422894553857812 0.4047528298416384
Ni 2.2204041987596246 5.776439113330977 2.5434592025510936 0.9918027873557177 1.0080724710500186 0.6910485092849324
Ni 3.63538048271145 4.036241378191987 9.061629952165315 -0.44609514023385105 1.0674538983321293 0.6682073430207007
Ni 1.2702739484656496 3.959048631992267 4.08493966386524 -0.09150324751731984 -0.36364706094026406 -0.8271588539886658
Ni 0.9814597138904482 0.275432220724716 0.4431007153326557 -1.1293611773598873 0.26758936128304234 0.5922109328897285
Ni 1.1123185867726735 3.6447366286970597 8.592522784447416 -1.0221916840602203 0.3476434864231562 -1.8892355471692817
Ni 5.610099554798469 3.2220750047063658 4.8803156261024805 -0.7893674941725051 -0.38553460504197473 1.0522527651116589
Ni 4.166973080157902 7.122352506089997 6.06465836969059 0.5742299229312756 0.2136717853289804 0.6337743581538117
Ni 8.400856229568232 7.475251798848185 0.549469194824782 -0.28764010928633044 0.482489362592169 0.35250981337652193
P 0.37653582428163895 5.6718682855772515 8.002391597496437 0.3231069347343726 0.9016984770684536 0.7090418605385596
P 8.404952949800766 2.0075836703160834 8.366590026168703 1.2120355137316674 -0.45068944447275283 0.2055717819296653
P 1.7980423347859449 3.5692879407781537 10.537208627920629 -0.37893381189600545 0.672830700725325 1.1131120624908766
P 3.90124945052971 6.227550688027429 3.9854284218532463 0.6649374140201774 1.0238798703959204 -1.2354171258804014
P 6.719202534115895 4.50187768825833 10.770586334985563 2.0583999941145064 0.13950805753137266 -0.43254002725723567
P 6.489404688345068 7.941869141697486 10.490291643439393 -0.1564932792354595 1.0035835820407297 0.06657408837580793
P 2.4840567591793516 8.994335645072896 6.044529938729897 -0.29384803786925523 -0.05360055893427543 -0.21749398728854802
P 7.206448816317933 4.2410319716342855 1.5509737702166326 -0.8324735813333599 -0.841963523101666 2.3157558505949987
Ni 2.9675969175346633 2.3367201689981982 0.7248387967789349 -0.24146309650963577 -1.256344877172004 -1.226814728923371
Ni 1.5160589951439263 1.6630594907605478 7.067886110998431 -0.5503508023208328 -0.72566224270406 0.2937300242341522
Ni 7.030898449989883 0.9919694817597203 9.791104128843722 1.028967312221157 -0.7217366823974086 -1.0660554753227058
Ni 2.48277596637938 1.795508000096639 9.314058770857063 1.1559237583397641 0.564981407749814 0.8459399912509109
Ni 6.551682102789086 2.1413311397259043 2.892939414387938 -1.119779447208723 -0.9527400170263011 -0.5804000562977294
Ni 4.153765472135498 7.083647129347587 10.567893153298677 1.0110480087385747 1.257962358170769 -0.7574755305599147
Ni 7.447310531807666 6.35407666611826 11.74839351848687 -0.2579544092964396 0.5675471115944614 -0.4867316828082908
Ni 7.6624019694710155 4.253031455951752 8.673009257379546 0.09921887099402267 -0.6774265476261236 -0.7394379563319137
Ni 3.0806791130442304 9.285202781582804 12.641354083354019 0.668565754801384 -0.44023842434275795 -0.7181479366048857
Ni 0.1786678705050025 5.547086365767233 10.186358603642395 0.5006279811744088 -0.12505254422767495 0.9905725144930423
Ni 8.472190029980846 2.3545967663765284 5.932162625442727 0.7130787496120945 1.8823681306254874 2.302018960624881
Ni 3.4228869651955613 2.803828028238978 11.546166327371889 1.1203980546293284 -0.18419074515072795 0.35182924236972957
Ni 1.0459353684592414 3.709266785087128 12.904485243016877 1.1942596778054853 -0.06117605728868819 -0.33139668554699053
Ni 3.118503377009355 9.001366380017423 8.152277964549592 0.7091735010204174 -1.4202704443157927 -0.37273668194635806
Ni 5.891982974434817 8.113304620519244 3.9378065471501817 -0.8506705639573608 0.40415864790106526 -0.6420260566396427
Ni 3.1830335333994233 8.668569175672976 3.945251495936401 1.0597645001076716 0.7862865412543362 -1.2244999647472654
Ni 3.8923020682036658 2.7850612344464833 6.97038144437306 0.5603858179593316 -0.15587647158706705 0.48722044951925125
Ni 4.854368217356952 4.769454379809885 11.551483888400993 0.1502493552082767 -0.10306061333761606 0.46629784043397104
Ni 8.099506576099689 0.33264914106331445 2.9434071925252665 0.23419227387983538 -1.0568995198550508 -0.4847118241647846
Ni 4.845439002304667 0.5836872549488512 1.5571688105682693 -0.564199535278467 1.6396793892388666 1.3993617191875836
Ni 6.105448441096783 5.72195545932934 0.44483932343134086 -0.8089526153932841 1.2897579054148112 -0.643358145187505
Ni 7.864912570056627 -0.02861618126064656 11.858235580721614 0.5010005340224791 -1.4745906550249122 -0.7287267405619966
Ni 0.20706876957161124 4.9403357567820105 5.9392215196615785 -0.09409080573883795 0.28103725925783213 0.19917873391912794
Ni 7.234562672459158 6.198873646399691 2.679344960082286 0.6151896531730889 1.184709829333521 -0.7728281017565851
P -0.2273334550854913 2.0513304655264677 3.980562317577042 0.5040421490622803 -0.26277059973816036 -2.2736805186915037
P 2.0584974550241824 3.762851159037721 1.9511879107513674 -1.2190970485641393 0.017147715423880144 -0.7856967301891372
P 4.851579540835028 1.3295355954657633 8.29497099955808 -0.7445529089609758 0.33211736576309897 1.1706628643221517
P 8.593120487754069 1.7188057702883985 12.705753435373028 -0.025200667635343694 2.60515716554681 0.6791640991425207
P 6.509988209513408 8.183675555422658 1.6463510490848874 0.7953525081113464 -1.9157315365772813 0.9774514037300521
P 2.0317643116886006 3.567816391603718 6.233409633814533 -1.0157179034104185 0.48951927285575697 -0.3203018611854097
P 7.1658086249202455 4.24026894613643 6.397454665671347 -0.5145181088929396 0.3992339569059382 -1.6647741274239651
P 2.7010739278610987 8.898766701466489 10.424867657180409 -0.4786100821424209 0.8198494648114463 -1.024706222951958
