# total energy = -340885.5087906303 ev
CRYSTAL
PRIMVEC
9.14198803642614 0.00000000000000 0.00000000000000
0.00000000000000 9.14198803642614 0.00000000000000
0.00000000000000 0.00000000000000 13.38022357762036
PRIMCOORD
 96 1
Ni 1.5062979683725015 6.130379589623055 10.46797781271326 -0.24462143963295935 1.1927766655020555 0.8693192894067997
Ni 4.671775373646357 5.8918102657739295 12.048797612028762 -0.43325273705354417 -1.4028162533950872 -1.3275122413454492
Ni 2.1945434073921803 2.851431826914522 8.767619204201468 -1.232099374361078 -1.255534979676199 -1.1925848612062238
Ni 2.605448350641974 2.9285170713464588 13.069521620198584 -2.452926775352762 0.7978819594014194 1.4631389615445447
Ni 4.754638354615412 5.788158403657078 7.3105261588728485 -0.3176518251570723 0.22201912885241118 0.7142293182767699
Ni 7.920289457664908 5.226044975717501 6.054350244827253 1.1261886931691765 -2.9655042155795637 0.6208846466753372
Ni 4.514414330903599 3.3717389428537126 6.981680615830066 -0.7903262585413485 -0.5706964558567204 0.009747823415383213
Ni 2.6551259144753647 7.210267802772735 12.976168207779617 0.644877667155825 -0.20214655829820022 -0.4260801305645049
Ni 2.7204179941400812 7.114788878099212 8.630177639529483 0.7603837053456453 -0.3653398752616547 -0.08338961727124994
Ni 5.346481528154212 0.8300340190767906 1.7769209312191665 0.9552000485310195 0.044338931126691385 0.4322610625642362
Ni 2.797740930265001 1.5908065072160527 6.272515565231449 -1.0374164714297747 0.3894257125662648 -0.017171626683280105
Ni 3.1362321850487875 5.080623369553031 0.9717229514626136 0.6012851272768548 -0.17931567644661375 0.07481113157361954
Ni 0.6587936098614805 1.2291220283900666 7.5227501011512965 -0.19825159411916823 -0.5966645977857079 1.32283540469507
Ni 8.338626837314509 5.425331176307135 1.817021348222991 -0.5503392323566071 0.3025105986402597 -0.2564757678683841
Ni 5.482331472682032 8.482229187828842 3.948919281531935 -0.013884214181259957 -0.22332267815518314 0.19332921711688641
Ni 1.016378821182334 -0.2913688766499613 0.49209676877741715 1.4235069489752195 0.8355805023934576 1.127896676999219
Ni 6.363116325005911 2.0064378583609264 3.93408000629926 -1.3076005900231868 -0.8774740573034502 0.1900909126852468
Ni 5.102363017472759 0.9475945020284092 6.038080248442585 0.737915091929484 0.5666680514236176 -0.05524966450192421
Ni 3.263954902074237 0.3740170208965131 4.270044415546876 0.0002907917675414347 -0.5255995635180819 -0.8353894694285743
Ni 7.0575051800903745 6.239269810973719 12.937632899154202 -0.38244850991748325 -0.5148577516205456 0.026923049643089118
Ni 5.8397192170579455 4.392935591813043 0.7941124048753664 -0.11519776292078225 -0.2476936508003799 -0.0004237178009799154
Ni 0.574923181793706 5.6831900952406285 12.895953660789681 0.014609522383058711 -0.1507661469436952 0.010687818731149335
Ni 3.563693268913648 0.5831847965224941 13.284622546160943 0.7050736199194308 -0.3660515566166986 -1.4044324488422717
Ni 6.350619227147934 2.085644044053325 13.26844579805583 0.44078992597085376 0.4693453690110433 -0.7617443331385978
P 5.04741052645279 6.382588759854111 9.434034489618323 -0.6858602802157737 -0.347607233868582 -0.03749876827640638
P 2.4491294945530644 5.079553756934609 12.09577554674916 1.3446764118295615 -1.050335750594604 0.010708387556439622
P 0.2638396076084657 2.304420963467542 0.835915974279294 1.9238549370153644 -3.2467399640014474 1.1196416360792785
P 6.460286517494889 4.288095271231277 7.267562471167403 -0.9064907562507742 -0.5532911158960794 1.0483560011604138
P 4.443061113067823 2.5004160483081836 0.8370212406516636 -0.44826078042660217 1.5261358740920554 -0.24535420403392583
P 2.03110294250198 9.036699913640204 11.945060729421728 -0.1415993928427626 -0.9647031029254484 -1.098564760804321
P 2.543474812690824 5.143200278724829 3.2758806256702364 1.106058755188521 -0.369695324016873 -0.7894371710681759
P 7.261261812905722 0.5666560818720029 12.008509784267009 -0.5080726103779121 -1.0416323092833353 -1.14016366729203
Ni 8.47827070694186 3.6995432134414683 13.206441177344827 -1.325376425949369 1.8770986546964321 -1.5761412594759048
Ni 1.4143569931291442 6.600241214720757 1.779020845906787 0.33067086312455957 0.8253806790423204 0.5467391737101746
Ni 4.405926357033367 3.7087491955504537 2.7639932808555496 -0.5393107424565874 -0.6510388016612143 0.8583440213422185
Ni 0.8911719793072248 3.8313341152121994 6.109276224081465 0.1780257539905966 0.2724711148553759 1.012814099500062
Ni 1.06559014361795 3.8027288341605474 2.1335700029491957 0.3143703261923231 0.1511667248162235 0.10468760741807778
Ni 7.510518120950877 2.5266901223709666 1.9581288501598255 0.35211077816589037 0.6106953648471611 0.04330817586933187
Ni 0.9893916720406026 8.773803759213115 4.884651139682868 2.250542132901827 -0.20072088159526721 1.5613867268745496
Ni 2.9073076587418463 1.444690109949017 1.9006476852060488 -1.4321944494468883 0.3396062179409764 1.8236068534258787
Ni 1.1439095564557586 8.940965013297314 9.713212525014727 0.0017321521997583072 0.19497472314010938 0.42280711624018796
Ni 2.5317456418409456 1.761807396340742 11.089864302046259 -0.1520018191230092 -0.19290524220559038 -1.349777994722185
Ni 6.76842637148242 7.196289702827713 6.847463430393272 -0.8924072815745148 1.1577230163320318 -1.1343825418338787
Ni 5.985725910466681 2.1110953391788594 8.508832373466523 0.3082433873589788 -0.6951656167770996 -0.47820384784293773
Ni 0.8929601521975101 3.7864652371676133 10.88483876126991 0.4254445538630351 -0.1926195926443715 0.6347920007850486
Ni 3.3822705132504858 5.0147096346912825 5.403429715196415 -0.10973648269589487 -0.9738857978659808 -0.5618675447111807
Ni 5.899654091642359 4.218981840502453 9.846961640656108 -0.762238499166197 1.4403767281473645 -0.11896314350048544
Ni 7.998316326880584 9.363498565526879 5.3672228709634116 -2.2728158566983634 -0.664968524368429 0.1475088163486621
Ni 0.19202289097137296 1.2588243480247159 12.094009314630535 0.11708880929590801 0.7766346199868689 -0.5899493905490614
Ni 6.677719564644934 7.712976591443011 1.6345948022563863 0.2707783005339853 -0.8604207013655892 -0.04723245062440253
Ni 7.102346632170384 6.375256885324413 4.308311863918276 -0.17652063019997985 1.082899286352922 -1.751970005815183
Ni 7.911001197662198 0.42516918742521526 0.7765597875474111 0.37504167593045085 0.07453113843935551 -0.25608933106324283
Ni 3.980348522735986 8.124137510362171 6.593493513236505 0.5956220154538066 -0.818707895007835 -0.7234220405196315
Ni 3.229160495016843 7.130494813812455 4.293727650156148 -0.7246011484293973 -0.21740348445727076 -0.9824984792356564
Ni 2.078860688815125 2.847930445437123 4.331700726507777 0.4908464763076127 0.7544256879899974 -1.0796028749898374
Ni 7.503899321500128 2.7256929213266594 10.30495330828578 1.1294419099991517 -1.4033710974572928 1.7735343622495197
P 7.099220072208843 4.358342308495864 3.240154650016113 -1.82782860481671 1.5549839086719994 -2.816791094510155
P 4.282811202056506 2.1866904395355586 9.83782330925974 -0.5571040618842663 2.037470185940375 -0.8620723780363991
P 8.864601985932518 6.969742093450598 5.544751139656935 -0.06175249861744849 2.156433586551177 -0.9154662202765071
P 4.924880458720195 6.5516606894703635 0.6233528642389367 0.041426899686218974 0.624161517654396 0.3988470058801647
P 8.701444922676258 7.337707118164243 0.524722696235754 -0.9794964591845389 -0.9477783021456516 2.113118211592993
P 2.0631730370782653 8.639901058170116 7.182303375093317 -1.5021654793193873 -0.3964759345448269 0.04230056054042392
P 1.8440212961481905 8.658907251620542 2.769358713725225 0.5510318875482574 -0.174533424566622 -0.0912790473216557
P 5.132531578505183 6.636525765853389 5.212092473339416 -0.15017762143007685 -0.16455857274209723 0.26830052841745405
Ni 7.6522097959331585 5.707160388279116 8.481348814365987 -1.6471093631543503 0.36848536286917183 0.9586550969591555
Ni 6.480974836772577 7.615477287379136 10.472580803767753 1.4028447926401775 -0.7371579020484853 1.0033539825284268
Ni 8.845083841143358 7.877980336313982 3.188869010459813 -0.531416427310175 0.049277506078889324 -1.0550812356993893
Ni 0.6528696015132956 5.523698969249217 4.097612805270195 -0.7869429438914125 -0.04884710340969007 0.3034724483328967
Ni 3.933057017820615 8.19426570178027 1.7948227724960428 -1.1405621882820292 -1.417287707538385 0.5247027627354254
Ni 1.6500100227451353 6.47531594608195 6.36260437366718 0.6180649178383548 0.5640750938854608 -0.06644553321774364
Ni 5.34302585661777 6.000727913089168 2.6079258294419096 -0.46288392965641567 -0.47201700230593546 1.5186781322624296
Ni 7.741810422199454 0.2796863299398603 9.237452489135778 0.4445501643442344 0.4288070425773647 0.20966626371401312
Ni 5.851055282415584 4.254918996083803 4.878162156464439 -1.5615335368650591 0.3930188292341618 1.0482271888920336
Ni 4.564411864323697 3.0239594280672155 11.976932442854254 1.0291038377990214 1.0017560419136877 -1.461298051681064
Ni 4.084219792569438 7.861799017214774 10.677471957317684 -1.6490906552504374 0.32964525007352263 0.31452922036769054
Ni 3.3206900807915756 0.7921203656484073 8.374669125760063 0.9106101777357866 -0.6139727500468524 1.2754723420300744
Ni 8.41168046495393 3.271039942922761 4.23055925434835 2.4967329739044355 -0.5529712706628155 1.042825558260488
Ni 8.967047105608072 7.779676537289242 7.625791278456947 0.9853282353749675 1.0607736580984763 -0.5479655899181078
Ni 7.103343108883274 2.572070951754285 6.169928744738923 0.16247340807829436 -1.3897892450078 0.2975522261937198
Ni 5.390555053226124 0.7790720059024747 10.898968618218914 0.7365904595807895 -0.3041553333325342 0.19631503921808774
Ni 0.6030183399042643 1.4481366394972663 3.136699340645381 -0.6283842974864919 -0.8925270949818306 -0.774185387115428
Ni 5.391149282458581 8.613590416154565 8.604675149270076 -0.7109997555958787 -0.5263007033501645 0.1596382526223444
Ni 5.4804482231145535 8.272575972629886 12.726211623438981 0.3425233915877714 0.2604882314618869 0.44898171775302675
Ni 8.370166696575678 3.4424796474806487 8.048739876950412 0.7158478277167993 -0.5163171097748914 0.4066690730277448
Ni 8.679348737217056 7.711504731344157 11.789609448012204 0.4963851467376548 1.6083378988131076 -0.5338432915841129
Ni 3.5047548710421235 4.385704279153453 9.552663670989546 0.8216242973236818 2.253229192815687 1.1237646571087163
Ni 0.7523947701604402 5.4175879123088135 8.401482577126153 0.4875919739260571 -0.49908403372605664 0.0014282478060943145
Ni 8.10626492344751 5.188169718639523 10.8843706914745 -0.10859234178912266 0.6758612600215328 -0.2667285559446439
P 6.7728236678026 0.27666307444488386 7.230886642940168 1.006786919469376 0.5171781722236061 -0.05382655890215247
P 2.501631932737672 4.584249978699563 7.504071190878131 1.277211179098052 0.7014141687899726 -1.0484434186678977
P 7.19844721204094 0.2293779689212469 2.9056493020838823 0.4214272051735259 0.9451992285645657 0.9393211725172339
P 0.2966511174270929 1.776361441541838 5.56144989528779 0.5545252454134966 1.1893892370870613 -1.8283541383028767
P 8.663423393787214 7.260237910228257 9.6823711136514 0.12405212798761862 -0.4831761042465485 0.19632172408630702
P 0.33405464791438255 2.154894604605023 9.590877181630614 -0.4444072110084668 -1.2456809697002547 0.3035585802887998
P 4.1578767914295085 2.2604845682185037 4.53537416723058 0.9539178393844862 1.4935707956718407 0.23499857183121467
P 6.624558903310528 4.095519289974309 12.08599453358292 -0.6013697165708611 0.15340435589749063 -0.8517350006661331
