# total energy = -381167.95559426094 ev
CRYSTAL
PRIMVEC
9.25512233108509 0.00000000000000 0.00000000000000

0.00000000000000 9.25512233108509 0.00000000000000

0.00000000000000 0.00000000000000 13.54580705364981

PRIMCOORD
 96 1
Ni 8.833708573279772 5.700905291653731 10.84397383573016 0.5546550861231415 1.4654634959126633 -1.0637980467470969
Ni 0.18619176877217386 7.062870541606537 13.34367586628153 -0.6983812955009198 -0.8532190414108274 -0.9348302266254158
Ni 5.477171971328915 4.2069157257236975 4.73687419467593 -1.7509307659173907 -1.5141272796669536 0.8166111603798064
Ni 6.253380547030148 4.664007693300515 7.2455435129770605 -0.7418887318652513 -0.48850908642368773 0.10001257053991164
Ni 7.137605652122913 0.987734390048202 2.64538783217977 -0.22944987409884354 0.13677266087808057 0.008910158005436267
Ni 4.591086586705031 1.0063649507255352 10.246576068969919 -0.3768437621361962 0.31936469408312096 -1.1803237844506833
Ni 3.7661683036790077 4.835514359923296 3.270228886828948 -1.8210699459366377 2.8504195811978783 -0.7242321951257527
Ni 8.36537163241783 4.578397814380827 1.2831125356384436 0.02795071957665509 0.9523993458574309 -1.8830672135750406
Ni 7.38591132147819 7.793451365624086 3.6402727295202255 0.19895093417903803 0.14817601761901578 -0.8597838391125386
Ni 8.08113757928242 6.968061071373749 5.676492130722449 0.6201570244806932 -0.5966067479645789 -2.2013936962016345
Ni 4.792866757538224 1.37999422769719 7.839851919998557 0.19370974038475672 -0.009315363863654925 0.49055979830512936
Ni 7.019926775316012 2.6034010455087366 10.948384569572816 -0.16255876870324906 0.05379853387769445 -0.000717080671682636
Ni 2.687622656121619 2.451505982500096 11.20312717631065 0.9990772095299439 2.0432723944444486 0.9112413835618822
Ni 3.3110846975860366 4.669977247019779 5.57649701560764 -0.16537361244422485 -0.454042934326018 -0.4331028417392412
Ni 6.4593440330278495 8.795966185578747 8.680613120941848 -0.3139170407049884 0.9457910965122938 0.4419574639163937
Ni 6.242385462040247 8.82531417758462 5.39430623609568 1.1700884798759204 1.5475097117821413 1.6134387103747825
Ni 7.5388244479118205 4.785471915023972 5.067093247205974 1.2116300507631326 0.6229006486641014 1.996687347596058
Ni 2.6704914252156358 8.980818738190955 7.202305433805493 -0.055355851062485306 1.3715578096014378 0.49985125090938426
Ni 8.748996441198486 1.0705122016220063 9.662251162098764 -2.917453125708608 -1.6867845702567852 0.2992872066069555
Ni 1.977088426454344 4.8028622893472255 7.574693598910863 -1.5052505460026142 -1.187612861912929 1.869408742251342
Ni 6.974872841199144 2.657423192887571 5.576754308000502 -0.6808674549868726 -2.5052626086420013 -0.12857495555863663
Ni 0.8202583290761787 7.865863440507074 4.078859080567321 -0.2552303254970572 -0.3851247711980657 0.8342558700447632
Ni 1.0649868937609195 9.000800546686913 0.5258603009105418 0.3403065864421107 1.3516124768277626 0.42536716365788035
Ni 0.4944946922987772 2.7080487104757545 8.720086216465358 0.9000074625192759 2.0896252706773755 -0.1615426687339089
P 2.120265164496244 6.124206808642896 4.128016735799109 1.5918026201622455 0.6209856910295757 -1.7362551661830874
Ni 4.106738284704595 8.183082748612188 8.8997845916105 0.1341820173327689 0.5408981415483652 -1.0363921439303185
P 4.091476588451777 4.288268248502515 7.599739810190048 0.5804018560699424 -2.883436402443531 1.064903878216766
Ni 5.590528706140629 6.542806723633011 5.422155823842409 0.18615069709057616 -0.43800696390907795 -0.5486330482987777
P 4.669782889456826 8.576323629197987 13.382267874186322 -1.0202911246033977 -0.3091964953008675 -0.8784523620563193
P 5.580690511406398 1.869488377554853 3.9935472165774946 -0.3899196214835478 -0.5559961735320683 0.19160272134408293
P 1.2833707535435097 6.3333355463801135 9.180006549339241 -0.4128060391634181 -0.3112883448328897 -0.048949176205193116
Ni 5.511240075577929 3.980026408781411 12.499203361398045 -0.10717746371946703 0.31856970898565135 0.013391590815557582
Ni 8.502421479665694 0.9605891170891268 12.302166440613105 -2.3409536900168653 -1.5855316995518693 0.08823768939217061
Ni 0.8106839053202417 2.0953226105839673 13.330929712200644 0.8573546608457557 1.0918575239874744 -0.7473790655558613
Ni 0.8909461747221139 8.491509690774201 9.161449104126065 -0.4812038110115261 -1.2049369550136733 -0.8506764774946317
Ni 1.1539934024712588 4.194615668525398 2.501246710420742 1.4554585621811513 -1.3545558757268026 0.6982293433040877
Ni 1.6522984285161155 1.0331492739248407 5.295069115476387 0.10680491087139671 -1.3750907624553608 -2.5672483063161784
Ni 5.083079619514944 3.593939737536686 9.550457617400514 0.18277715263265293 -0.32428835663698347 -0.6018569406199248
Ni 6.707964376532669 2.469812613905842 0.4113809197947259 1.0087340158934175 0.7128252388403917 0.4891536619862221
Ni 3.2837450670640087 8.225980239292486 11.101764154157534 -2.4388350731463873 1.525573316720366 1.5693260363262844
Ni 5.203100042199324 1.5586180831728633 12.321563325395795 1.2232275257927447 -0.4229094461460072 0.47261092713619257
Ni 6.1822919545996475 5.27319833657097 10.845003005301606 0.7588492709789898 1.1657975658100501 -0.9031935735567413
Ni 3.370502581117323 8.06346029617576 5.141473886548012 -0.715231277178723 -0.3802707855398741 -0.42849491065358464
Ni 1.6474394894422955 6.476493774177923 11.542841984059244 1.312535565430959 0.22577371079883696 0.013241952611570742
Ni 2.7204690842606425 5.010473187069003 0.812109194115229 1.4180094161957577 0.4704601993417769 0.8624662710407083
Ni 2.826921498026508 7.3784516931096205 0.17580196876403964 -0.5208669339291029 0.4043915898474777 0.35748155555950045
Ni 4.26388100191296 1.2739397841792757 5.640527651966339 0.05009897353892017 -0.8370953963760874 -1.7361399807614617
Ni 8.088754544725761 4.380051293826466 12.24925583339192 -1.8929533623405013 -3.126798772858409 1.194403916692833
Ni 7.709572194526883 6.838618934447181 1.4894156846152105 -0.018571849464916402 0.3185594245730062 0.5783231191640428
Ni 3.804549294801164 6.277101424832436 7.238039460022673 0.004876868476327085 1.621209612569453 0.4306060434593165
Ni 5.0608117958737795 8.868702189733323 3.4710585566280816 -0.011550680952076882 0.67372827283893 -0.8986249803494524
Ni 2.7446619732872444 2.8278284999869543 3.9334176141609194 -0.03426097806539906 -0.7661342346761773 0.03517449101860394
Ni 8.699999825090288 5.539588514402903 3.431084759001917 0.33436605258795965 1.5332773702328433 -0.7666183734014475
Ni 3.0304508869262765 1.0675227972013512 12.964189948079564 -0.34713826465196346 -2.2958799376066783 1.4311924905449351
Ni 5.151012215327972 7.177606289603009 1.4424385361373127 0.09094248991784337 0.3593890569948585 0.17661139014157323
Ni 2.5773848974391966 2.488702318000445 6.6392201065162615 0.044053281565472516 1.5428339035730267 0.7892006295773376
P 1.9928869197857935 1.9855661182479045 1.5401855821073012 1.1847751353538176 -0.3763305699452035 1.626575761977373
Ni 1.1224056709304053 6.334187017608287 1.9325527791720154 -0.15399622384521866 1.847860583766921 -0.4630821617101509
P 6.080263489171471 5.5824860050832 3.292687365984247 0.8330088850115395 1.2763300620446794 -0.8272748107412399
Ni 1.2559848474112547 0.725579356064231 11.103077455975772 -0.21131511217134574 -1.6862886044569734 2.0235224655110313
P 0.10578697049080286 2.6153586631913566 11.20877557729494 0.17353557942972692 1.8446708731850294 -0.7637950450200394
P 6.641123885120995 0.47374841072187207 10.841359263752343 1.0610176557884825 -0.5397673703780317 0.05574074520572981
P 5.9268135656592085 6.627185671320665 9.162424593989648 0.3215118223331108 -0.5563949516323837 -0.9273699136926288
Ni 7.951112369666993 7.854164966241725 11.12275939851746 0.03208325368778991 1.589509967473327 1.4342474753211751
Ni 5.114065768122849 0.9152464231644419 1.1657400033712446 -0.602123306907434 -0.2289906750742379 1.0704479479634468
Ni 8.318873899261883 5.667373984483349 7.415408320948995 1.437062576172467 -1.4900617540773178 -0.7186215338071946
Ni 8.17474388364931 8.420411843221656 7.193270583664801 0.934778547451874 2.3197978818748566 0.8690634646422517
Ni 6.98651578473222 6.232084511203748 12.897666907354045 -0.49722049815475655 0.8976369054045702 -0.24516625639283582
Ni 0.9422732305613363 5.274225655118006 5.461222619508127 -2.7020319617886885 -1.9785790680311217 0.36671567256325877
Ni 9.177832521170783 3.00066790418427 4.569732243609745 1.0246041501564547 -0.6626542744129555 -1.486891583879452
Ni 3.9857368190834053 6.2342687200064555 10.122036370190784 -1.671335582691567 -2.800104377883094 -1.1649835545491871
Ni 7.265826112939492 1.9884907368142417 7.843509544230888 -0.2574808120941307 -0.2951441309728594 0.8932534316248939
Ni 0.4011317976416813 0.7101214512240511 3.145269005508953 -0.5128916290331103 -0.26143594008713683 0.43096239835747063
Ni 2.803098813881721 0.37742295149805266 3.1792825045378983 -0.4277788584231665 2.0267831385401736 -0.447498705449597
Ni 0.7851240347675387 4.590697871579125 13.175708358328897 1.588712411272696 0.34086503004874197 -0.1126971079861156
Ni 4.514296839094582 6.406349204196051 12.346541974284047 -0.5797115148711371 -1.9401081656494328 2.456594968232969
Ni 5.965166791415228 4.977959943323612 1.170584134249792 0.07715314944323487 0.014642946724155427 -0.5255813086856368
Ni 1.4378109751146269 6.956630995647715 6.852241548585764 -0.8061876510536374 1.4788193483942789 0.9984627158743966
Ni 2.896594056784066 2.739923350800014 8.974990787838985 0.2594083681341468 -0.3611849725530167 -0.9173678081745943
Ni 4.005811178799816 2.995642372913634 0.3138050935825768 -0.7311276366940054 -0.08949675861025232 1.3803049596664487
Ni 7.379127317018932 3.4331967778526704 2.929212808920774 -0.959966102461095 0.10747982545123425 1.613379317891757
Ni 9.071102453743556 2.4876935096974995 1.8555455361935003 0.05499538239927303 -0.9710835525304953 -0.8167281455736451
Ni 8.797067545102147 3.391595004258725 6.715848815003121 0.862453672635218 0.8401727497498305 1.2427560827439759
Ni 3.168824216626629 7.519564538935402 2.8461767794419033 0.012851402041371415 -1.7805012804856564 -1.257928676719356
Ni 8.072502550414088 7.022203535339173 9.034280950686046 0.3788273682251282 0.05964239425298115 0.7010315886395734
Ni 5.424223418107344 7.795978013942474 10.947476642100165 3.4679602511016467 2.1772605505988567 0.22031500167711085
Ni 0.5813604912800221 0.978321930928059 7.1583491571632045 -1.6591639803260394 -0.034485435371379325 1.3016559424039778
Ni 7.670608130715868 4.317070188307712 9.357510535047425 0.24493537132895238 -0.8376078172361315 -1.0297646113114716
P 4.77681837591155 8.079369850971753 6.784593085019528 0.4399705153933519 2.178358925869358 0.16828924342912308
Ni 6.916621103045574 8.72347081459735 13.535986196237898 -0.3866777175074824 -0.015288550727954315 -0.6921561405268145
P 8.509399841687904 0.34877649774321823 5.277771292373587 0.6595257560863028 -0.04041774169541426 -0.4115420848493299
Ni 5.1145007588589815 3.3754263060454606 2.517041501703373 -0.5401926308409084 -3.000277100284375 -1.1660091676002242
P 2.5252785603237538 0.5288237909894699 9.516403395834569 2.106753959937862 0.526113527040023 -1.738194549297645
P 8.429444842337938 8.932247857696845 1.5086644874451742 0.3247146455411246 -0.6061157158962787 0.4014692739943602
P 3.1069444706312734 4.395192673492694 12.370667300919719 0.02145971253567272 0.426800039449665 -1.1530865460012851
Ni 1.4932306459223126 4.393841425674069 10.26730106376612 0.0462726578142945 -0.5731983963429677 0.1674862879118535
