# total energy = -340895.4194740546 ev
CRYSTAL
PRIMVEC
9.01658263191092 0.00000000000000 0.00000000000000
0.00000000000000 9.01658263191092 0.00000000000000
0.00000000000000 0.00000000000000 13.19668009194780
PRIMCOORD
 96 1
Ni 6.367393500196396 1.9013628641711258 11.406735433450073 0.34177622900910165 0.18529117730375833 0.40630037683441633
Ni 4.735410061321781 0.40621598629003086 5.8558025149923445 -0.14153537237404656 -0.4017613513134823 0.8439304170200498
Ni 2.8993993886940053 1.5920489940145846 4.774716952024607 -0.6081898248164881 -0.8512189802616631 0.6720704255205329
Ni 3.508523650821838 4.08832598594926 4.981113743716178 -1.1702100930554493 1.222010108445876 -0.5523176962392164
Ni 4.984015280034976 4.348364231549454 2.703274288035296 0.7848858042520676 0.621745966234368 -0.3995306622107506
Ni 6.884296154279888 5.9009476430053684 2.5457843426668876 0.5797377401233822 0.62597697359658 -0.31417800767585896
Ni 4.964882091506419 4.622188832126163 11.549219981858434 0.7623007198627001 0.0055926635964290775 -1.4096741568571851
Ni 5.710887095883091 7.814816507406989 12.454657103521068 -0.7540040270715466 0.5524387951981131 -0.00644704117692438
Ni 1.899045602412483 6.395218674465543 0.38376199034626657 0.17517800012915638 1.3794372123495149 -0.23968774977676782
Ni 2.737326314329807 1.6902936793148517 0.3457056996664907 -0.11861064525707316 -0.8255663126905652 0.289436796175437
Ni 0.60753013030321 8.93124977960588 4.693372949371808 0.3641013748688633 0.3788250542322831 -0.09234399825106032
Ni 8.800815894000733 2.1960067542447432 1.3061331560124296 0.13485256103723228 0.9099658592835683 1.0159503311361988
Ni 7.024999927601352 0.709525714014354 4.78035231622364 -1.3591447806490657 -0.8621353700638508 -0.6757365615182105
Ni 1.0372586593481516 7.555770085905825 2.3851016253578745 0.2961975119380382 -0.5879395592078842 0.5915097930576457
Ni 7.676123432031741 4.056840079096421 3.7809678125843518 0.09106564575926897 -0.8699193848846437 0.12988724661215698
Ni 7.415237627656012 3.9075615356097084 12.6266889934978 1.393718404858877 -0.8781165759834554 -0.27413256171819883
Ni 8.066487364244457 8.771557083079353 6.7380399693204005 0.2687008491796663 0.08517370575486621 1.0194565445172443
Ni 7.062121198653224 0.5621298329992538 0.48521026748640045 -0.44227653781870924 -0.048800566442470786 -0.34268665663851305
Ni 1.713051534096228 6.637386053117762 9.226221873290449 0.6270192988181653 -0.4646546484035933 -0.35308419782275324
Ni 8.956000299168034 4.8866361866756804 1.3960104525499724 -0.06966095483124776 -0.5768228804694324 0.07898840287976074
Ni 6.405569711426327 2.05687186631629 6.887967706762842 0.6143399035782839 -0.1304685730369237 0.30077844644050133
Ni 3.3091940566649902 4.405312967999206 0.3475703289726668 1.5781307791021078 -0.6555706280932967 -0.015302948905657515
Ni 5.784047648060621 5.523459390914602 4.802931642667191 0.43947686358638505 -0.022784344884367213 0.1742014951485
Ni 5.0083600533748 3.0178772856144818 9.491250797425307 0.5942986686566926 -0.24231464587665363 -0.42504474732145503
P 0.21918951925251287 5.510331246476534 12.45477612241295 -0.44596324264167714 0.5478465478417404 -0.3723281336540297
P 4.0762798314374065 6.2286553419075545 12.557710332385087 -1.431591782865883 0.7153798869414454 0.4498605208135543
P 2.5253825209498433 8.634099279536532 1.300143440112561 0.26216021984767107 -0.4787376088592207 0.3446602354251161
P 6.422349571865368 7.731431150426733 5.829105315221277 -0.8883786200310959 -0.09177861266589354 0.10195426764731473
P 4.6788219881807676 0.9543601978346917 12.420213757536576 0.14389307397294573 0.7057050828558427 0.21907881527716463
P 3.895623580090476 6.254550967474952 8.210063820820022 -0.23292214891816013 0.719082018383381 -1.1576942199766256
P 4.78812100389386 0.9211250739344728 3.7100226347807457 0.465349874698405 -0.3266170047701601 -0.16446061371165227
P 0.048411835931919577 5.810502301756563 3.387970136559573 0.8399351798177276 -1.584058971661085 -0.6555433743997872
Ni 1.6810787317765925 1.065886309479241 2.7487367997600094 -0.8409664492957193 0.42210289108431176 -0.9160377765092611
Ni 1.6539388177940482 6.458551151479958 4.745473469293847 1.3666045793612207 0.11064588188404172 -0.1212352273641138
Ni 5.814794195130547 5.608837412675636 9.238058843083234 0.4567626472500263 0.3247454987790601 0.4838767298579989
Ni 8.349112149554378 2.2215867994169956 10.091607334517715 0.9362978123098779 0.7419478672379609 0.6987376503990741
Ni 2.37348015189206 4.998649193787026 7.055222611215336 -0.18713234427755512 0.8417766039018406 -0.2247064458765872
Ni 0.45044593115713183 0.22653623085150865 9.189032977868187 0.5144453466734753 -0.8211216466556505 -0.20902734457843358
Ni 1.5046242079764611 1.2037137929135184 11.278067896399474 -0.15689539976988465 0.8109840440010162 0.4481409670192863
Ni 4.332134382656238 6.627323546803968 1.8195977871053755 -0.6867683938523398 0.5706303785054754 -0.781889183517589
Ni 5.545766416560055 7.876219435719657 7.877480855641967 -0.08517961929213719 0.17388550656997798 0.9084473657565129
Ni 5.3135623618117265 2.799730083324222 4.784548633820808 0.6986998551826031 -0.6928138287154714 -0.4651354446947537
Ni 1.040928408514562 7.370163730646464 7.095274271650705 -1.463069798869506 -0.24771781917009594 -0.2589517402127024
Ni 4.989713760313039 4.6668659994961 7.100183800940903 0.26282536423549574 -0.5113204278912484 -0.17815045249391898
Ni 8.073917028404464 7.227043513156454 9.17288067158635 0.15789607312025714 -0.5953368801132198 -0.4754314273041231
Ni 4.74468812493907 0.37906164577513685 10.316610746307086 -0.6995560325353113 -0.127723920412251 -0.7337468194844073
Ni 8.190095696731735 7.075709188809933 4.706767984658343 -1.2005151717968938 0.43211965189036544 1.1897715601271446
Ni 7.156083007162226 5.957634898556285 6.988909251954198 0.250407193076801 -0.014577383593542636 -0.06348876458226485
Ni 2.357394568322339 5.249156911453815 2.3831486335410577 -0.5363190068181152 -0.22157458511582487 1.7988229616129794
Ni 2.1897312126726995 5.432482071285408 11.378468446627723 0.49506514237465055 -0.8483465438098744 -0.014042851246311298
Ni 1.0931885219507176 3.371697008069309 3.7873281100339486 -0.022908272056741192 0.09812975169490197 -1.0795609660083085
Ni 3.708863102243152 2.55507412784171 2.6712059099388448 -0.8977749736443312 -0.6828834569756368 -0.7118034824440967
Ni 0.9473002135661429 3.3168130690620834 8.174854966962734 -0.18034257504923135 0.4215418763745192 0.22197644853993384
Ni 3.5986984945890894 2.75293401901545 7.081866613148366 -0.115485212254214 -0.1836176462560773 -0.5608946392749502
Ni 4.229336323083151 6.971630774490826 6.0703412808786785 -1.0781779696178528 -0.31577466273901744 -0.7457536141372962
Ni 0.7524221062973957 7.502977994089281 11.394819117729364 -0.21412815614010863 -0.5360860648717025 0.1855608860253772
P 0.11970595548672999 5.5581101183016175 7.90279220664921 0.13829861060430376 -0.3362223890704081 0.48898165518473213
P 8.381075935291294 1.6805016704826115 7.879328353440978 -0.38455707162005387 0.2895805208421529 0.30941323929736386
P 1.796563123234543 3.3368118495316126 10.386737218399857 -0.34195286379628204 -0.5251912723360698 -0.12180524093497086
P 3.855662085482291 5.95556108453104 3.880088008066581 -0.4758006377180838 0.7451800010220134 0.3708227527530969
P 6.792074546235548 3.915036282683306 10.466075933056072 0.2830100667134868 0.5083451473130085 0.24779366671335387
P 6.191038158806167 7.614891818790724 10.286310520081726 0.4653503889190373 0.26403429694193237 -1.1944399121370914
P 2.372226846894195 8.455309460812321 5.89983950498927 1.0966798850767823 0.7354499182184431 -1.8627884087213469
P 6.830990117248392 3.6877462655165347 1.572872525888978 0.5203514277452651 1.719170957007291 0.20015935266484236
Ni 5.28317647805054 2.58562231009183 0.5383098247736439 -0.6198274090554164 1.0292807296965178 -0.48041422523069516
Ni 1.2722578547392005 1.1564578828861047 6.965181212872317 0.9200342992631638 -0.28657850079103553 -0.4932751403537634
Ni 6.951920524668288 0.40376167247406786 9.075330263155402 -0.6653683309100089 0.8913760120965228 -0.12940336499720295
Ni 2.7315917677208708 1.7008160313472869 9.027940907703758 -0.07032764188096921 -0.07390276082673723 1.5045504346117957
Ni 6.516536794942333 1.837002496726806 2.564564081152882 -0.4596026878019827 -0.2734159952671485 0.32986919315887064
Ni 4.0226582140107645 7.012088181148527 10.291127178569923 -0.0950462276735718 -0.08661326641487019 0.38755857745053895
Ni 8.077162998183107 7.197757652486917 0.3989765720253847 0.012200398720933826 -0.7043771080730385 -0.14559257316255572
Ni 7.444911201382441 3.8512259267848115 8.43856476504588 0.12004583504170294 0.06628895303522132 -1.4066690514822742
Ni 3.1480857566516667 8.37754143486566 12.327968706377167 -0.10286983748304865 -0.4742775162053381 -0.003067583181730201
Ni 0.07932789475695233 5.020469323965683 10.033040121470002 -0.11540576516653027 -1.1140852250374231 0.5950427459115688
Ni 8.61900552006584 2.281285593595875 5.524394410542505 -0.06483293731498513 0.6449342314253731 0.2965214709363603
Ni 3.688792189111875 2.808512234891996 11.573791973082761 -1.2098742444142905 -1.168748163797942 -0.5069811770859463
Ni 1.1862576887705927 3.428717877180808 12.744826063591518 -1.0162598919568175 -0.02295917989933465 -1.7170073736970686
Ni 2.9914226319185397 8.552589371761714 7.972906055526174 1.3358994369678798 -0.3581847522741122 0.5888800687442826
Ni 5.671132982677431 7.71681526984012 3.732469417458335 -0.38025124515584835 0.9096586124557947 0.0026875741344921456
Ni 3.232823601039691 8.189464535941443 3.6022717663204125 -0.22570763344759193 0.3517598225843749 0.33987489822133077
Ni 3.2862829199774004 4.565195012762819 9.32299234731625 -0.04622946328118491 -0.6482314141194061 0.26182546221607167
Ni 7.341536080515374 6.113856210736206 11.3930374409842 -0.04788293972420786 -0.5974886363489 0.08801965984409357
Ni 0.6829817961494993 -0.08918662630130918 0.1978021850443416 0.0018231692516678278 0.508876080115814 0.15693088099351035
Ni 4.597203881413329 0.3794547687816614 1.383316005740662 0.19194570650579845 -1.204500638807203 0.8134098798336895
Ni 5.941233734591418 5.48026995969321 0.28270413123784177 -0.01909018386223164 0.7266477465457808 1.3385453592311591
Ni 7.825699522748162 8.799923252311606 11.326829575740868 0.06474989068287558 0.5467746549338003 0.2312804995496791
Ni 0.22932866651941364 4.779501150815018 5.829409174058887 -1.0530976296104573 -0.26507816482541446 -0.22133547252182525
Ni 7.979865054068276 8.442911659574447 2.594097897847176 -0.9366693367166836 0.5110450627426748 0.3091751551446288
P 8.47927553767797 1.4520304809797229 3.3694554856055015 1.4065487238543257 0.11751612664131374 0.9121361274620098
P 1.8299605456236938 3.2855615933599243 1.5785737111418559 0.1160721951059356 -0.5218393251447013 1.3074684353206965
P 4.855474876800706 1.321371180806616 8.17944711254124 -0.7264045201867231 -1.7220161397655698 0.13806669709915576
P 8.609411876053406 1.6432722004381177 12.454722924574913 -0.5780426118091464 -0.288551051136374 -1.5133852592946067
P 6.1657736940290615 7.701405929974283 1.4828320292042312 1.3400869926866663 0.2052514224757691 -0.20485264437545367
P 1.697038083188255 3.072472693974717 5.863707353061613 0.3058918564076667 0.554289989474239 0.8781685122673135
P 6.828763021316934 3.9477935276994467 5.885310183596755 0.9609780886653773 0.3212117745941887 0.5147731623265392
P 2.291726796383844 8.474740196570588 10.188339037237826 0.4867188272924843 1.120769064815502 -0.19428643882383312
