# total energy = -381176.9923079005 ev
CRYSTAL
PRIMVEC
9.15760620843594 0.00000000000000 0.00000000000000

0.00000000000000 9.15760620843594 0.00000000000000

0.00000000000000 0.00000000000000 13.40308235107487

PRIMCOORD
 96 1
Ni 6.941080976984431 4.141838820349447 5.68286707677721 0.28683972487222215 -0.3455832614600177 -0.09383086720923195
Ni 0.5678393586086093 2.1375318386029276 10.917427198820935 -0.8401753208529916 -0.4506992146647657 -2.3589462699395436
Ni 8.752821812870588 5.4575762247045585 0.4268131369215733 0.8376556397549314 -2.2137966978516777 -1.0521321803733945
Ni 2.146863439450926 7.561417229627618 8.812326107267175 0.20289834886256022 1.9134324561304594 0.18572260841422208
Ni 3.5339843851310104 4.9113982681036585 5.182730817510442 -0.16678643363135146 -1.2860706863712108 -1.7420954270139482
Ni 0.20993904082477627 0.6150376616219396 5.776500854196767 0.6159614983421069 1.0280165182721135 -1.3989616555356876
Ni 5.8687802216404465 8.721859945876394 12.284850133289986 0.15691365460232976 0.3623846492880726 0.04452765009872976
Ni 1.4195571872930486 3.8147474375341326 9.555553773786515 1.7794340155634063 -0.10916955444883134 -1.0652540624673332
Ni 8.174976853588255 0.6347695559763872 13.00822777233325 1.0781602290060401 -0.4315380683552826 -0.031066125277185205
Ni 5.426879928293872 0.9635450225953784 6.877028099524838 -0.3419479787002756 -2.2646644312358224 0.5513625314147989
Ni 6.295881823161345 8.472113706105432 9.755420363411375 0.2884273810743162 -0.305458368414674 -0.0756732224635987
Ni 2.1320189595936094 6.639557631036252 13.077923566812014 1.22588501802025 -0.3271692777292043 0.7264888523704133
Ni 4.507987394152703 3.0237317181539543 6.343893321616581 0.44611236662503173 0.7720158902679349 -1.0250669487254862
Ni 4.576522919909739 3.9858481541622006 8.623623555516499 -0.5752182549864738 1.0052018343704432 0.5605686233940992
Ni 5.2667591816528 1.8287556684431547 3.10112448075121 1.5797737140221697 1.0403755540580986 0.5880406035621228
Ni 1.9824203026231473 2.410602501690722 6.02003457383497 -0.12049320699176669 0.2600215762381135 0.19489990403811597
Ni 7.518065121271952 1.2070915628824403 10.821380392134012 -0.43296991570580273 -0.21833268113975948 -1.1930851978814097
Ni 2.2932935646319796 0.7766327828817816 10.05504625332844 -0.09592477362378318 -0.9830975462722359 0.2462391777420404
Ni 5.56749497345679 8.721905733908033 3.849217583512494 0.7590734711746541 0.12410946358811528 -0.8944147989228466
Ni 1.9291321914018495 4.318040323702084 0.9139565843305 -2.0729295551892495 0.5347362357120274 -0.6968003241670451
Ni 7.809231214463422 1.2547660614248146 3.705053965897564 -0.07541071283083141 -0.4035341269431889 0.892244016523773
Ni 6.083700084546897 3.199209770606697 10.53238373588159 -0.07011526875984699 2.364410892598541 -0.10543014201105715
Ni 3.089162815365876 6.058415933475923 7.0007382034066925 -0.8695018377312509 2.0586948996471057 0.4998941883321778
Ni 2.586822320256014 2.105910623953135 1.8604281656883825 -0.41727255957520387 1.2173666961365939 -1.0263460725482259
P 6.32313485959279 5.55767801947342 8.605127022255667 0.23344382574958508 0.27513914860584227 -0.002364386467118509
Ni 6.817956959907553 6.49706527657614 4.68993987427918 -0.5636130666473776 0.08414809270382928 0.6220377864431739
P 8.671859415326766 1.8890676637178527 8.820393958441942 0.43272540379516444 0.5534173570612985 0.8718783083832273
Ni 3.3912905633316877 3.097349715422903 13.024391863262398 0.7059560225243842 -0.6797060876889196 -0.41563399553051644
P 8.657353766903578 5.224570089300761 4.281104950100286 -0.2407691557664047 0.08687680448890198 0.23770182969499065
P 1.375206899847655 1.7189742837858395 3.898662247358027 -0.3965780073403299 -0.581454722814489 -0.012592749063346054
P 2.899536261136728 6.739457958465902 2.1108383319181088 -0.05815398263291274 0.45729486560441246 -0.38604008392348355
Ni 4.56740194400728 7.609357298753498 5.6290670553621895 -0.47442021243078936 0.04224245360897887 1.02191143381564
Ni 1.9835192153824799 8.307166900929625 6.140032184111546 1.0207441529804164 -0.44500756359662713 -0.08323149442683085
Ni 3.162615975720925 5.480314561216414 10.295992949179048 -0.10916826889725069 -0.47916441198399407 -0.3645649447688431
Ni 5.321704819619424 5.407685585430864 6.583352822199559 0.5482072736152688 0.973594491877807 0.7567767047206773
Ni 3.365896520984779 2.6926476189797324 4.059753700269841 -0.006460925133995324 0.4513512464264679 0.23045543254522247
Ni 8.186103345276496 5.4017514565304685 7.189507605683561 -2.2967461422617155 1.3446278179798135 -0.24897843105007444
Ni 9.065783009122152 8.740742930124258 9.624056332160771 0.8206688753889478 1.7223920350477497 -0.7238902384053016
Ni 4.725508017256241 0.7055871572303036 0.9230317722013207 0.30420932649892124 0.7775195936949836 -0.1978934394488011
Ni 0.19116136904968242 7.666372555750198 0.599278336892479 -1.2324423595227936 1.193131220627997 -0.01593081229764353
Ni 2.005323476048902 -0.060040014366763095 0.6972555669932978 -0.5194517987491312 -0.6792669432689721 2.259951599141185
Ni 3.4929399935699426 0.385423503601948 2.856732693400095 -0.5773689827808894 -2.1516179103300876 1.527766467716943
Ni 7.042776195254325 1.2354068816479074 1.5668334752987882 -0.48011777703619896 -0.008443759891979007 -0.6266218062694305
Ni 6.358822051452113 7.648203864795901 7.366294280080542 0.43787018122089755 -1.0297525271266137 -0.14256767029330286
Ni 4.626816493861856 6.561342515390762 3.545088898564065 -0.5942199928999572 -0.06488127405441729 -0.09540258257172601
Ni 6.134579745303991 2.206479456644713 12.490507077395897 -2.5319383181609747 -2.3433260469037833 1.7873136754217993
Ni 1.0835188230955024 5.318197456395888 5.961208858067269 -0.9065902579431161 -0.6669950678801545 -0.18731026461631614
Ni 1.4227257190824572 4.290540031899788 11.861286115093506 -0.36356144320499323 0.6464951481545897 0.43246289416239714
Ni 7.323676611752363 8.871660070186069 5.4411822778565835 -1.3124183231268043 -0.5498741197947304 0.6023323375944465
Ni 3.800644723789366 0.8019782899151525 5.40707111004627 -1.0322341558978867 -0.8111838187166481 -1.1710328460670607
Ni 6.858744938491444 3.3658232601341567 8.105044792866234 0.715207108809007 0.3187823392170897 -1.1998199455020822
Ni 7.63666528082291 5.985338234980312 2.451263189546657 -2.048243879517111 -2.2255188713846126 -0.6725933879035384
Ni 4.475853353548556 7.532250253473669 0.6252712866932234 -0.6937314554337343 -0.45008574945048296 -0.12088864265797244
Ni 8.087411821882112 7.812125018062996 11.468293849861656 -0.0861664086854387 -0.6961914869384526 1.1313123875489872
Ni 6.753862873219486 3.645835388818402 0.9397517298345645 0.8806948782335929 0.7793396776228578 0.7637328243235363
Ni 0.9725011615839381 5.7676985629945134 8.227455432410178 1.534478589629796 -0.3180495748161232 0.7523860318521494
P 4.7884757183659925 1.2055714002320304 10.85957951540904 0.12935682802998366 -0.45547529589717034 1.1020090105991796
Ni 8.362625364850604 6.599035223035867 9.328760158515477 -1.8188395139442224 -0.4026470963525453 0.2866692607326289
P 4.751936869118187 2.9854987117355116 1.263448387984174 -0.28705749730998303 0.4174589645543971 0.3589704814002011
Ni 3.399294311262159 4.555634419876094 2.527405938880172 0.687754669025009 -0.004357762748063462 1.2475481048159804
P 9.112065551502704 3.2285690564935297 0.9393735206932275 -0.030736766962224483 1.0237885962336948 -0.3578075714403515
P 3.54910359317816 8.865231430543972 7.568198437113332 0.18556679956264815 -0.34004716213313696 0.0162614561641849
P 6.489675088269628 2.042814716354795 5.495773516458323 1.0767417513919586 0.24056783838887602 -1.7228255230407428
Ni 0.2681438708834541 1.3780915458409029 1.7786690563940457 0.21622514787845343 -1.1609708338453681 1.045353209778348
Ni 1.4177073508148388 2.016101978696688 12.867079754482054 -0.5324016740415799 -0.581619016306495 2.2706790128610184
Ni 8.338522544995913 4.205236928956603 9.780403229234167 -0.5434767009088189 -0.13803610097153649 0.5558534773066168
Ni 3.3836164892290155 1.9178774932250193 8.147720154114278 -0.3593183516579231 -0.19520946485873478 0.10520285649159947
Ni 1.3499868520209743 8.469183272080546 3.305213642653807 -0.09267412789696942 1.643503648080963 -0.9007245431909584
Ni 8.799782018119394 2.9416246198191622 5.12994912191907 1.4935779947606922 -0.7599191070044009 0.9088579709313701
Ni 5.205494795320014 4.459626075135746 12.668942120931876 0.09654646636818212 1.082877174865735 -0.6859559252533735
Ni 1.3966448562609663 4.185016934184886 3.884575101544017 0.1928335084273905 -0.543173053625471 -0.5700372250061667
Ni 5.257528314474407 5.479050811543181 1.5279511945917066 0.512039308335144 -0.5718886763926087 -0.037790588485212336
Ni 7.670163804769895 3.5209622689329207 3.2595355022908863 -0.15494341824983637 0.6246945073397305 -1.7801878630102952
Ni 3.336821120894107 2.8256984813159125 10.610443172219508 0.414375440533067 0.6422739109843906 0.33480314012537826
Ni 8.060488459278465 8.04240218678112 2.864936077148512 0.052731268955444666 2.6746689963947032 0.3548554307905631
Ni 4.0107293705547535 8.288989052369 10.647395029512696 -0.12121954363482994 -1.436268876626578 -1.2230706884999065
Ni 7.4462420148432455 0.5110887564347816 7.721823693586115 1.8460435851628398 0.3041766734887729 0.8025695946850759
Ni 5.701763797434565 1.6431218305729147 9.001778666976096 -0.773691735308461 -1.3470829643885252 0.0886269544107893
Ni 1.2581910061914008 6.74521809284607 10.894065229318159 -1.2524583976334043 -0.04507349529987076 -0.26479225815387947
Ni 6.765667027775982 6.519345732771606 13.324514095442426 -0.1756937634233103 0.49952009282221066 -0.08284840005579924
Ni 1.28522426007098 0.7782509319198987 7.838551122643045 -0.744695090965795 -0.04861673256643885 0.5174175419279218
Ni 2.1099766011626655 6.638376299819969 4.463079408481948 2.1148884161195385 0.07833200024268445 -1.1949086242433937
Ni 6.254608491442083 5.8766832359013135 10.927345802234544 0.09483693987624311 0.3051428940567842 -1.238747218694899
Ni 3.2576352989778736 0.27802309658985314 12.441344467825258 0.6957816530945438 1.3420423166408242 -1.468416150783084
Ni 0.28476858941088906 3.5359441128851534 7.480260690829648 0.025235377528021054 -1.762961986050312 0.09919058885924853
Ni 0.7609348141147171 6.179909896626456 2.4037086556471765 1.1651717593005932 -0.04050361654100121 0.3077080836807991
Ni 9.082513955882987 7.858810495121971 7.159001787484492 -0.6682034863659588 -0.7490996477913937 1.1714321383880082
Ni 4.389936690981411 6.868928196727925 8.648567043632081 1.7528151274242973 0.2617233894205686 0.535800929531116
P 0.9951387644261873 8.826897690455924 11.712390762289015 0.08155179273156277 0.4073614711090791 0.6779839627914905
Ni 9.098915228816026 7.3959026528594904 4.853376590171536 0.03190790445219021 -0.8236130456189363 0.5280266849023358
P 2.572490666353053 4.1041369550980145 7.389749657167861 -0.2585797015852644 -1.5299321079096941 0.6451201221839341
Ni 5.527210663220927 4.271483053131696 3.9161660960929274 -1.0878288624440555 0.06009208019589007 -0.8449082075522868
P 4.23322257389427 6.438969422032762 11.815527387794901 0.38396957454770003 0.1688975664370833 1.8792866634866858
P 6.605976688632317 8.276195876329105 1.3261642549199115 -0.8236446701878203 -0.042868774339068105 -1.1147657960442157
P 8.405235707093722 5.428216938817727 11.596695395465227 0.3199910148132102 0.8354318926307355 0.28021064959147873
Ni 8.102063992006544 3.10323805629166 12.427525639876652 1.867321777815326 1.499326210098379 -0.6941973393265592
