# total energy = -340893.90984321345 ev
CRYSTAL
PRIMVEC
9.03061077879834 0.00000000000000 0.00000000000000

0.00000000000000 9.03061077879834 0.00000000000000

0.00000000000000 0.00000000000000 13.21721170290091

PRIMCOORD
 96 1
Ni 6.566861410930091 2.018133782279475 11.46561370330179 0.398157693122624 -0.7969555909324081 0.6389119364906932
Ni 4.570410124886261 0.4239067988533901 6.022144908561001 0.3066745002099622 -0.6214793428365426 -0.07592261947024344
Ni 2.771819518777024 1.7416977588436986 4.814501210059976 -0.3051884025827389 -1.1711418608410993 -0.5013592029134785
Ni 3.2485725482515573 4.223598552444081 4.799949284014947 0.5667559831517336 0.21984063314385363 -0.3921012025158989
Ni 4.8200071733897865 4.643070418393963 2.501621841196967 1.3007920517417855 -0.12593288995009924 0.22324837327382197
Ni 7.296299957759708 6.1928857615712865 2.8515471682006 0.3536210441628297 0.1903603642965496 -1.3704995435402527
Ni 4.916499248474274 4.734821422872989 11.106343500369524 1.0706348671632724 -0.0037761792129805934 1.6566311866018566
Ni 5.621031371056534 7.7675533453319066 12.465297789948051 -1.061886431546681 1.500567795814964 0.012909251862500347
Ni 1.8214380511222228 6.361794303675197 0.263441877732541 0.05248958525828379 -0.14426125594564188 0.13827572778616834
Ni 2.8391698132066088 1.7913480563462272 0.1521296674659139 -0.4704080059476028 -0.9928104026846255 1.9996721412559946
Ni 0.7313196230336505 0.10389266053434681 4.5516111026398045 0.45869637393762935 -0.13374981489135673 0.4255754230139445
Ni 8.507611890317758 2.243077263634601 1.4193835239852057 -0.0964618770741758 1.5313138187485693 0.32461951472415707
Ni 7.021624903405961 0.6630888440630515 4.737974009060354 -1.1551069188654235 0.06964012889564135 0.4152501298285365
Ni 0.7695362643579413 7.39142841063196 2.6003011301874417 0.08261777210223191 0.15242399426209233 -0.5359374551089802
Ni 7.477047630461256 3.9350163576476462 3.8522751934411317 1.247391267523142 -1.4959215552922043 -0.7107447021622791
Ni 7.507733645541938 3.9042580976815473 12.66826076491519 0.9817955396313608 0.7424633734217988 -0.24469908694843018
Ni 8.010630292926589 8.953724057764994 6.99760167288282 -0.3764483264699904 0.2774189457789545 -0.08727635392016582
Ni 6.926351960762876 0.5826947355715073 0.5526580213985063 -1.1227580702210727 0.06038312907374763 -0.85131282552705
Ni 2.0537956638432227 6.42517112940687 9.085075193124037 -0.04433250336878817 -0.698219830222391 0.9670525769942313
Ni 9.088045360975727 4.785474118160672 1.3664352474634112 -0.7387787254813598 0.432688637019958 0.36104716142357174
Ni 6.367230731302792 2.054942551399211 6.963091194180398 0.8697676897981278 -0.17027516351090027 0.5400087969648765
Ni 3.3158235059636945 4.389201891040183 0.485183104541578 0.05138992443620182 0.15300866312096875 -0.46681334661780893
Ni 5.955136874276076 5.469867978933066 4.635011501425746 -1.271528784001294 1.0387110218714821 1.3100138274503697
Ni 5.534084651457707 2.764802734280941 9.396750465543876 -1.0389994996461784 0.22434803409590398 -0.7774283195327579
P 0.029190545952559658 5.684977125260864 12.431898076358909 -0.26536201461442044 -0.8042444112843375 -0.39159983739944815
P 3.9482642635109073 6.256524475012596 12.577644005137202 0.13900746374587025 -0.7363181797560093 -0.13490938241709668
P 2.30335658990404 8.209836533852066 1.3094168747094619 0.6559326394184058 0.787064042850309 0.3697822273037244
P 6.413675162014961 7.741798043680904 5.751905690171829 -1.5220923001503013 0.6429735081545764 0.559214680469366
P 4.969174800553622 1.2110771366804451 12.810966990139582 -0.5226386811175451 -0.713905359278448 -0.26389828558470035
P 4.067152253074528 5.891407854727997 8.14164368344631 0.4627967692592481 0.9994129956028079 1.5615309657618976
P 4.554290484827692 1.1733653064930025 3.654612283880365 0.2549397908398319 -0.5674162424435517 0.41860876188812424
P 0.2482243956806111 5.771978028523751 3.7990758659425152 -0.30065374793717903 -2.0915600258062432 -1.3820525384851747
Ni 1.352433285608615 0.9562694258162503 2.1730286227347073 0.770608468397447 0.47980178845767685 0.7061606823360226
Ni 1.7670286217928788 6.5112599409913745 5.113435193875537 1.4619547114284563 -0.4331231534542153 -0.8696797580700119
Ni 6.108657255786259 5.758088949302419 9.18992690451229 -1.1067398404159456 -0.659002022372349 -0.7825957226663103
Ni 8.768090824687151 2.226063593119002 10.228429974215004 0.0013056061853009772 0.7523888600656269 0.5659483996487737
Ni 2.408897336886952 4.969635361698152 7.07722185803934 -1.1407992439934997 0.927550662244867 -0.14520433658520154
Ni 0.5963002536175804 9.147195860910532 9.110042122462932 0.28926684625647603 -0.093708996919387 0.3890019947652849
Ni 1.4706078569287473 0.9123987191470463 11.486483444576496 0.024077352664177886 1.8071587351721845 -1.2323300023146453
Ni 4.020202108164443 6.815329633098984 1.794263137472785 -0.12404390045750252 -0.1408118639444607 -0.5223900554418487
Ni 5.769982263564119 7.888608681458025 7.998447999123222 -0.3375706755681864 0.7136014548847839 -0.21886541371477788
Ni 5.259797913363074 2.8626042479136045 5.007565732663979 0.1795419335248069 -0.38118095605896934 -1.3859798985640388
Ni 0.8985475684905571 7.595971742467585 7.0792049801440236 -0.10192264307843092 -0.2747043750612688 0.5018770230901616
Ni 4.866903134635809 4.369171996558443 6.839206567729155 1.8338051341151194 1.054926969509712 0.5048062809218145
Ni 8.137383944389937 7.346546275566924 9.265080549627932 0.0564421421481286 -1.0401336132506216 -1.1158993954280265
Ni 4.730649280740184 0.5302268875377332 10.59452009433059 0.019085555876541326 -0.4746400417510793 0.24456796068720463
Ni 8.275489073474361 7.337190562905479 4.961608954928373 0.5402165421003085 -0.24028013194512812 -0.13910670832789593
Ni 7.069098823735315 6.092700166719878 7.023097796007391 0.9047182377313838 -0.2795215939442541 -0.4640884914874782
Ni 2.1909796706385865 5.096109064230511 2.6104253478175043 -0.06266652579128562 1.1248990278234758 0.39282496805580086
Ni 2.517815532263088 5.006642804252783 11.28953395325922 -1.3322250734400862 1.0928813372662984 1.2160202094110284
Ni 1.07087690591894 3.233581734527622 3.6443020356703553 -0.6802331638369833 -0.05807582109680966 0.05322697764494059
Ni 3.5070647482719965 2.796138953330372 2.50425155502613 -0.24145409764857126 -1.1304006743679953 0.28922288039241806
Ni 1.3957440944158406 3.1751085303935964 8.43018885273897 -1.3401862372686921 0.19202926735854026 -1.1063433763084751
Ni 3.557609076231555 2.5981337836249447 6.971484243743668 -0.04053267000672374 -1.080623345834552 1.0814604970238666
Ni 4.247583854402378 6.7861065769479865 6.160991450782013 0.21691394641536194 0.5012974964376077 -1.2827171965179456
Ni 0.8064813956989005 7.256375627956384 11.07287786332244 -0.13366676825924723 -0.5399447764961604 0.4885831341947327
P 9.36862643471228 5.702794520126721 8.037769987194386 -1.1460131840942713 -0.7908456213799283 -0.1882309766583726
P 8.504767247954481 1.8423168230076077 8.056405555387586 0.28403208022009796 -0.8459307352795303 -0.6618364064973505
P 1.8609830952771105 3.104841348715318 10.462770709040687 -0.7172359663135777 -0.8433686309793088 1.062340231254648
P 3.8823317749576223 6.069988180867047 3.9035049447510795 -0.21310639974381365 0.65728452546061 0.11930921398599452
P 6.901662271171769 3.93861054069712 10.429715061718342 0.8619898456249219 1.2198218425453058 0.3718154556836693
P 6.250979680056876 7.898506230760092 10.278456848182765 -0.16031856651882068 0.029636849029826377 -0.23893544499177558
P 2.507890891128989 8.440848585582183 5.7753798595658035 0.11772592865927467 1.0637617941925228 0.9388488608665057
P 6.889552222253818 4.030948534870156 1.6713556230968007 -0.47809149063478956 0.6902208711773145 -0.2633575825898819
Ni 5.3397278484658175 3.2539457616044136 0.20182421496076 -0.16597756457681095 -0.48222813851098234 0.3773834366897501
Ni 1.5440628441760311 1.0566266022705244 7.0877560653941405 -0.21529723674754533 -0.12648079203376927 -1.1923560330248693
Ni 6.9921580207666825 0.6708479447567897 9.26055982592299 -0.3395900199910603 0.46398821846418803 -0.5458626846424921
Ni 2.8579805752469447 1.3093482420683162 9.077752270926002 0.05799097469248723 0.6278237969973316 1.2438068926059933
Ni 6.112459142881305 2.038353319585434 2.4477217383098093 0.5678371320310542 0.29422264759985456 0.3288147837524273
Ni 4.135360455518434 7.130082537637566 10.42422986879309 0.801928104446335 -1.325932041342523 -0.631303785126132
Ni 7.781054108294126 7.2359122641621445 13.336562980522114 0.805011114247033 0.00999979152518923 0.9584728057450203
Ni 7.701467336397111 3.9146884530135626 8.142674979185632 0.5819540310484107 0.1525504925376276 0.33620259157606613
Ni 3.040724012908124 8.325211615862306 12.316762305531611 0.7605901649294966 0.04354985956649274 1.2093816210485882
Ni -0.08097387369701195 4.77386075282996 10.178389554331225 0.6066944712178841 0.7631934068802986 0.5359238282622254
Ni 8.878634529985161 2.238832876616378 5.677559381650718 -0.9312779904977833 0.3178410583497429 0.522684703864132
Ni 3.6809401262482937 2.544826088798203 11.492801259806175 0.7869177470804318 1.0259349531527362 -1.5789543034446678
Ni 0.9362034088918018 3.3603534472123244 12.632191602809906 -0.20718360650147544 0.09612711944257638 -1.1818337933373066
Ni 3.310025853909016 8.139307464464153 8.092277850180109 0.24068045270734031 0.7178329764676282 -0.6290049617896264
Ni 5.368616772021762 7.885773069705424 3.723142879125443 0.28661423912497735 0.13450109123508447 0.8467516885189289
Ni 3.0329667183365214 8.470243223336043 3.5462837873814417 -0.5188360195420032 0.016316734882152545 0.3600477736247799
Ni 3.504933524152208 4.094063472892195 9.44673760482466 0.16851550050731623 -0.007985846418953989 -2.576298075223273
Ni 7.029653116297876 6.189941782490562 11.256213709044035 1.3588827852369307 -1.1717697242330851 1.4756934011707876
Ni 0.6467253775162015 -0.30794292102700443 0.02525861806376357 -0.5464468392807362 -0.5089496136662267 1.0515948198126857
Ni 4.329030932098868 9.18060912041569 1.4662776791090923 0.6278551644558993 0.8087757234957876 0.050667187337564354
Ni 5.863241380026217 5.76320027494564 0.4949804140651307 0.1021239604559596 -0.5755895222829636 0.2329828269527665
Ni 8.033802839923949 8.816874183564682 11.294609156459732 -0.1035277827820217 0.16833398062412944 0.4529396739595103
Ni 8.9365117138145 4.840976251381941 5.710893171781917 1.1824837682164795 0.2179128199935215 1.2865699946051328
Ni 8.038155594270297 -0.11868480082338674 2.58408395953356 -0.5289036881906504 -0.6982882215664813 -0.41582914226045803
P 8.542099792493486 1.65670165115112 3.5619067438527723 -0.07585988455310806 0.8024353831000568 0.251165154288748
P 1.663366241830797 3.224758827896125 1.4274848848236048 0.20392293347233267 -0.5572233610709499 0.6561241866039216
P 4.895548231703473 1.0141827320882975 8.34756779565446 -0.38891920524349155 -0.7439625836751446 -1.6398591093498405
P 8.551690301032535 1.4935726998805352 12.602359883499275 0.06305450525832365 0.5503883404269876 -1.1606659010104396
P 6.254528710052964 7.866546899573944 1.7362396577504777 0.05308171031632793 -0.9780489281047349 -1.125455671657894
P 1.7209183236757617 3.2700383098309516 5.98603510870767 -0.45033283246428246 -0.5524873890478614 -0.05098369013671864
P 6.996781693433342 4.059683938044591 6.0518836125816575 -1.7257226420828795 -0.8698839036610179 -0.268762298545221
P 2.4459318712736144 8.424674761859551 10.232580442882185 -0.22395902618760138 0.6314860763402673 -1.2242881058467754
