# total energy = -340888.07139889593 ev
CRYSTAL
PRIMVEC
9.12161303599301 0.00000000000000 0.00000000000000
0.00000000000000 9.12161303599301 0.00000000000000
0.00000000000000 0.00000000000000 13.35040270495230
PRIMCOORD
 96 1
Ni 6.141873757807693 1.9304069067931453 11.212442374844022 1.1305953068773045 0.43972497504144914 1.440563904457506
Ni 4.864546959249055 0.40961240577602864 5.895684166103894 0.8367624385167008 0.7717731781295095 0.581532884350592
Ni 2.9131877079636173 1.402320258104952 4.997176120830415 -0.8978901590659569 1.380219341931178 -0.42299840631538765
Ni 3.714986590513465 4.987752582695896 4.678915754608526 0.3416898399428825 -1.5230790895436028 0.7342330150922064
Ni 3.5560516099154227 2.553376571331938 2.756230293010298 -0.03289623650738851 0.8796011309487819 0.43363454587299516
Ni 5.0821156666196075 4.629993808933509 2.5627700081443723 -1.2156412288050547 0.17074387561720272 0.7515172560939509
Ni 5.300824575584212 4.809370323709709 11.340966810686796 0.16451949197404567 -0.5858747062590555 -0.23060481363889318
Ni 6.186633511583783 7.933185191739293 12.308163336469768 -1.6539909207655323 0.8602106422373121 0.12554336782116443
Ni 1.7215219747628896 6.8571359001753995 13.284851812482904 0.9251366534867357 -0.5051479805319493 0.45967982089682125
Ni 2.926742424513703 1.8340735545149123 0.47436491038285744 0.216802103427846 -1.2720931411451963 -0.49176127481239823
Ni 7.924747699943311 0.14761141052719723 6.887979721536408 0.8694735555964768 -0.39051508897570164 -0.013400332566305954
Ni 8.985043966283788 2.554735691632047 1.099157073149582 -1.0923452622571703 -0.07756606861093737 1.4884872105013462
Ni 7.132344078528449 0.8151465384904534 4.628117493190338 -1.0821858052256652 0.40680199906118325 0.7029203210218539
Ni 0.28314489360892453 7.489154204564586 2.0017196752915094 0.9964459425546838 -0.3045055175831014 0.5463820474810719
Ni 7.831734614706957 4.197665850920147 3.5396719298959143 0.052384941359619464 -0.7565414487814197 0.18789236237203125
Ni 7.685533405511283 3.9773241732728604 12.669705755201857 1.0453236420919931 -0.426448312537201 -0.9809563315595171
Ni 8.170228542336249 7.394499229032796 8.866776783981104 0.8901452250132155 0.2492324560424095 0.03801016069518615
Ni 6.961897622636862 0.9765963477243363 0.3327573453692984 -0.3398556149476212 -0.5344811822784279 -0.5086948173429433
Ni 2.3114349146869375 6.605178712728249 9.053362109315536 -1.4154573391978655 0.15476421235949472 0.5462144115549561
Ni -0.1304463596497066 5.325334349049946 1.1911029296939042 -0.15053243366633431 -1.5314578005256012 -0.6388965098717254
Ni 6.631001998430331 2.248532273146298 7.096793504987195 -0.8323478543887729 -0.4256219599811637 -0.3615233297290419
Ni 3.4851858004419265 4.566242857406896 0.3557574919245075 0.6630581947195935 -0.4814290396484547 -0.4422683102885932
Ni 6.345933356691922 5.7461964398335255 4.873724213839258 -1.2898972592061528 -0.1516601195128743 -1.2119205854203579
Ni 5.3453836538797495 3.0003538394256752 9.141020807866223 0.4327112627277774 -0.32971235586603215 0.1701504650075779
P 0.23893243659797914 5.530534149528227 12.153538317897242 0.6711592265601731 -0.47358871766842947 1.1546670031145276
P 4.092156156212987 6.295144216886488 12.526735421243087 1.317624549918092 -0.0024502613127054575 1.1585431982404821
P 2.3269416563660394 8.466927240333982 1.4236602711392219 0.040357063660807914 -0.01439252127624618 -0.9927818634395353
P 6.595382100632158 7.990277365956645 5.457551213734895 0.4423917232403349 -0.6713237771624954 1.9109495418076057
P 4.828443615975004 0.9241835608489718 12.980916939088681 0.6170842990926405 1.3181274576964397 -1.1886711279741142
P 4.1256963263036095 6.3087992711768495 7.8697553209815645 1.5291031842504956 0.6483905654050898 -0.2893738041479855
P 4.993024874866791 1.3808388600730193 3.8871698014731124 -0.3372148348906644 -2.3123239420953143 -0.5170678718979869
P 0.5107501114909573 5.520372672922039 3.2945988235930113 -0.8790131196557958 1.5912650024912207 0.3663657454230078
Ni 0.7647031078083347 8.800249213532656 4.319335394779482 -0.1598969056003698 0.9900061004666111 0.85541579195183
Ni 1.9643028197811117 6.694734706731439 4.665351916445688 0.25147342955778623 -0.22609484158368157 -1.3625874877820274
Ni 6.248377708304866 5.742639010860085 8.865988676639295 -1.4920307048782304 0.061480990123616686 0.7850660385836737
Ni 8.909845390752897 2.412082789797062 10.371393192620541 -0.2333173274740498 1.3534654708761014 -0.8093020283129029
Ni 2.3336642849645677 5.620619197071057 6.759375015501414 1.4118215422174911 -0.8464051038127874 0.619018797111192
Ni 0.4240126958282629 0.1619451128063389 9.595801615669652 0.7992271605754042 1.0869266623447604 -1.9992795338032667
Ni 1.7019105073452017 1.224248133952347 11.657330793617456 -0.027477636594978486 -0.016070423199301354 -0.3288764902282981
Ni 4.781348729334297 7.23540005940521 1.29610546273203 -1.2517050644071475 -0.04398360466980167 0.2016459645126979
Ni 6.016597528266054 8.159328215097114 7.833081876910488 -1.588290236133613 0.4071804654465246 -0.20735098531727514
Ni 5.4984625590907426 3.0936223298190972 4.816077445566559 0.2600724840807069 1.3872927038381915 -0.018531226034968085
Ni 0.6846171721646999 7.592648022853462 6.5303495625138295 -0.7487461211067169 0.5221591703779652 0.5965974919931983
Ni 5.069792367791098 4.35940116663318 6.796395993018357 0.2136422176426256 1.1713745456771956 0.42734922708491563
Ni 0.7146163321848354 7.307004719511652 10.84020668948228 0.19032462596260769 -0.6133633985976275 0.751231606532732
Ni 4.565339817744406 0.24803215747978624 10.510998563634946 0.20778318775868732 -0.01675716485368082 -0.593791647113287
Ni 8.374744221858098 7.0898373631022045 4.314128778220405 -0.3133172023374604 -0.24434478893280498 0.38691683010148203
Ni 7.333749288101726 6.464067363448422 6.857447859331532 1.343063815926803 -0.8476644301411854 -0.6185896799935734
Ni 2.473927324258421 5.369054238972261 2.29150327866164 -0.5499376260428142 0.5419296681366732 0.9193082197304168
Ni 2.6946065015775464 5.145146010738782 11.431682161670816 -1.4490961102982334 -0.0912862464105073 -0.6537747125351386
Ni 1.1316546429026035 3.578399561158834 3.933228472905146 0.8572289339011688 -1.608580868061849 -0.2292742677529277
Ni 1.4878171344333182 1.029228053305759 2.4927069005930886 -0.15126031297129433 1.7024708706437905 -0.40870075874579287
Ni 1.2473166926031993 3.4301733539321244 8.27058726232212 0.46353416164590494 0.01732023644600243 -1.2391567954284919
Ni 3.47695810573925 2.506947562422156 7.201007018522238 1.2321358840259682 -0.332039461337312 1.010206486673886
Ni 4.40525551393956 7.238437556451764 5.788347412362426 -0.32713611049842367 -1.171721130383337 -0.04739263035135064
Ni 0.47718622520717874 0.3078589912003121 0.28166810450430885 0.501240160837111 -0.546236265931827 0.16990955264136545
P 0.41019710115345825 5.939903008243767 7.897309888784053 -0.18954146793968002 -0.9058790908087044 1.0095976494452934
P 8.899282563185603 1.7866320465896126 8.07122620616666 -0.7754539694152065 -0.2510857072010644 0.26943772734569077
P 2.2275799286540057 3.3915068374746458 10.196196200807497 -0.5054698826477424 -0.03998322526115695 0.9310172806372289
P 4.060029836098988 6.568227059468224 3.3532608273650535 0.1750191059537889 0.3962229379937563 0.0031729984113429226
P 7.035217145940757 3.982952208341099 10.209707133616371 0.1928075402854615 0.2589319427183605 0.39678523825512957
P 6.369193469210575 7.882487268061382 9.956088900487007 -0.4676877788029623 -0.15126005586097818 1.3379141534050634
P 2.4930462245874785 8.545947771608136 5.849331778741233 0.2825058733835586 0.032963085189581944 -0.766327581633906
P 6.753113028346882 4.190468898458493 1.4617220246712153 2.2499476938509377 -0.8335141067827323 -0.3164248947285067
Ni 5.515218961716925 3.1776506264943247 -0.013042081913399985 -0.6427662772397769 -0.7016440254125916 0.5724440346754465
Ni 1.6387980687112567 0.8903934585689333 7.2216866267932325 -1.2939169218885072 0.5361716826069733 -0.29739693156277813
Ni 7.110160316314581 0.9503352246101395 9.22392623401163 -0.6889769714678844 -0.17246831450747718 -0.8390034120320777
Ni 2.7423946307874383 1.4655603993174307 9.376441423554525 0.3873552031904812 -0.11295139008876677 -0.4821371214590729
Ni 6.5176477167560956 2.0961374888917357 2.4130715726194234 0.3887250869548144 1.5338455840314875 0.4847907570318361
Ni 4.268194160721803 6.902114572657547 10.418026525655975 0.7288923196055834 0.446870842057611 -0.5544488836496064
Ni 8.512845438929629 7.36340365115982 13.048015522495431 -0.6987990997646287 0.10548053563301835 0.009634694876286633
Ni 7.889492666655236 4.084895352462066 8.134626887763579 1.1592291685639131 0.045213363311844716 0.009654492370628535
Ni 3.5272546784560546 8.340702363066093 12.47340135147973 -0.7268799171612449 0.8875584381226457 0.6155454938506109
Ni 0.5498854788439097 4.998771490900811 10.075722500380003 -0.5309546571824081 -0.718620248255614 -0.6936625498690118
Ni 8.832849857509778 2.652245731955341 5.951889719561712 0.590168448538403 -0.47848744052162756 -0.51305900784891
Ni 3.809203728633138 2.818578340495591 11.637719326199768 -0.3378879496982891 -0.5502029638890589 -0.3429810479504803
Ni 1.2801453768991333 3.448370971373188 12.871977517986613 0.020459810516248633 0.9852508451698129 -1.900442728739011
Ni 3.377942999311808 8.441213413984931 7.8484609160110566 0.7443307656478407 0.2178328586852055 0.9349716372992866
Ni 5.713376877150344 7.983116899946002 3.5726611545762914 -0.4379681402513425 0.8620595225205928 -0.7835783982945538
Ni 3.0370774523668898 8.655735502696178 3.5234518780995736 1.4878225803341538 -0.889468767771481 -0.47099447457869215
Ni 3.6766302088895686 4.513702367952997 8.847191769240398 -0.7042290125309484 -0.4417656596205618 0.8074868294810351
Ni 7.524628156558719 6.205962209006146 11.108576394754845 -0.7265112209679165 -1.0493448474362443 -0.4057473325444238
Ni 8.102500567649582 0.1990536578057051 2.4543915662265783 -0.7125095073721859 -0.6132345863292471 -1.0271168892759794
Ni 4.777526773591036 0.5392423810843943 1.8774267556045805 -0.6391826736535766 -0.361711534480448 -0.8008649532891433
Ni 6.255985133340378 5.861128760513928 0.11866762110251582 0.04632407987752022 -0.9562218049273146 -0.7528935676161873
Ni 7.996489184241039 8.85008970561184 11.138454237325373 -0.34003482083796277 0.7012987262580309 1.2518053374304376
Ni 9.408669905731351 5.1788412482461945 5.8431509739401974 -1.631543904615926 -1.149389299655356 -0.9804020017179438
Ni 6.98487496516019 6.240897985847887 2.429412941865371 0.274788707244959 -0.6465342289226413 0.7060555242167259
P 8.871014685265875 1.5721829307803854 3.771902717604696 1.3495391392385017 2.7291776689655447 0.7492071199035355
P 1.9010353137303757 3.386927787872935 1.5868158219578061 -0.5293546596851398 -0.18118306867265568 0.3178459434457494
P 4.857140209694096 1.047635467840128 8.319890491410188 0.5738478570015084 -0.17035306793668725 -0.36510204821923575
P 8.53681703724297 1.659257846114919 12.305238947421346 0.2667203284145277 0.34526341622675377 0.595271316982607
P 6.975771595633281 7.874241330133201 1.1676448781785238 -0.37336891621371826 1.0982587995281279 -0.7574691028020116
P 2.3959375352252907 3.5267165033036627 5.807518305884171 -1.2631912106698762 0.9323606820390007 -0.7486034248812655
P 7.16943255597976 4.099480811253175 5.962610351029623 -0.03660273882469825 0.5003315329799125 -0.0704885929388657
P 2.321988620641479 8.581002129415658 10.307258221197051 1.9315114251193573 0.02251000817705801 0.15407978469796044
