# total energy = -340896.7254562594 ev
CRYSTAL
PRIMVEC
9.02366292259661 0.00000000000000 0.00000000000000
0.00000000000000 9.02366292259661 0.00000000000000
0.00000000000000 0.00000000000000 13.20704281305406
PRIMCOORD
 96 1
Ni 6.429251681562214 1.9746933165676714 11.280320631983965 0.09884863213879751 0.23471755025568608 -0.08485566029381515
Ni 4.633777338012344 0.5476271644230913 6.04706886842027 -0.5481627935305785 -0.7314125149242758 0.46640608387706123
Ni 2.8600861172088092 1.6689355157653365 4.580374397364005 -0.1545829495866241 -0.7481437116360277 1.0444463816933625
Ni 3.3064957548989375 4.356841117181755 4.811999196256545 -0.2197519300847893 -0.5103917454293919 0.37853092003063193
Ni 5.058069977421085 4.578642756413291 2.779673548141112 0.03423141037904427 -0.16798045393945263 -0.8376432984597574
Ni 7.174010692641777 6.19040434271683 2.521422626511367 0.6082389328868686 -0.5668719399043076 0.2072489125217721
Ni 5.12995247775137 4.248196213343362 11.35925873449957 0.10962026883300474 2.34071894829824 0.8743691931258812
Ni 5.70276558827939 7.739767298618167 12.50598674482128 -0.3680963549608693 0.6374767467060635 -0.433808352446698
Ni 1.9262633166589789 6.405059240765641 0.33924010277013883 0.3671062231334581 0.48689237675587105 0.44686364296875947
Ni 2.604463788642862 1.4899962763039296 0.34548989183977924 0.7110223813036981 -0.9167296603699631 0.00639793310654382
Ni 0.571089590874105 0.19058698380315064 4.830885723144731 -0.10924000267545057 -0.5116274176087059 0.3969826989779163
Ni 8.426504155903638 2.340530666353065 1.2315766121740375 0.5986960263934399 0.8838449938268004 1.929100758795336
Ni 6.768523367153236 0.7676033166075761 4.893711172812011 0.7053435857513658 -0.5831904745586731 -0.5501394576409752
Ni 0.8127279487192582 7.305774221366712 2.4418104563614826 -0.581940661311972 -0.3434495029464666 0.13426480685456232
Ni 7.74514540183143 3.8595560668802595 3.6258747751650646 -0.7927268975630412 -0.2921649937398775 0.48558985589436376
Ni 7.546065346309617 3.9417616378078146 12.567874635891481 0.9573775157983125 -0.7177062210817768 0.1841285244542248
Ni 7.987006644155387 8.790347276141832 6.893112181339807 -0.18037188562527 0.024888278601247458 -0.046940116194964326
Ni 6.914399904981431 0.7257614931351305 0.21097595059906837 -1.134719099237691 -0.5246744806006512 1.2099305515735228
Ni 1.8663913119274391 6.486948983484364 9.054008786172032 0.7872131668336636 0.846752202739561 1.0741863319599565
Ni 0.18687013696834714 4.839760495812925 1.320430818080673 -0.7941011522027485 0.12715879193740035 0.6590493306705166
Ni 6.503083293124152 1.989835023265414 7.075369421726577 0.23592314052801305 0.1498858012212709 -0.3120550477955851
Ni 3.3126318458133985 4.0974649447622555 0.34145450969721036 0.41156856721189117 -0.008537605157365942 0.37622078384021657
Ni 6.00989498587437 5.667519160173679 4.67155580598658 0.5081875386892216 -0.5703974365590627 0.7886046478645515
Ni 5.200932611770707 3.103066293758345 9.255640733621213 0.663479084307096 -0.4998877605742746 -0.31088571007783233
P 0.13833004836971888 5.809100434361751 12.494140479891128 -0.11227159041292276 -1.4523912361097373 -0.7484985238722851
P 3.9977624910653784 5.894437216388304 12.568601040771798 0.06685331017912358 0.5980529934928023 0.3719460677242627
P 2.3151831966784764 8.438659030112136 1.1983307301797026 0.24527064318118402 0.16190133762490827 0.07795456229860769
P 6.2511606664331 7.661911133309392 5.789756407753914 0.7820485919135887 0.8506235127695092 0.21065742398268886
P 4.895292118588794 1.0615437282017084 12.645083804555307 -1.0149540286612004 -0.8554548727198816 -0.4714490456176075
P 4.015232302845372 6.239348691422764 8.093553546320821 -0.4434864989664104 -0.48684429712675514 0.6384779342770681
P 4.8477013193492855 1.0527546803330545 3.871261562665904 -0.7040472355374455 -0.34402697271649135 -0.7193370718169806
P 0.15889226949733903 5.454524616137015 3.5544245082977235 0.8405920966754362 1.3122213766246498 0.06248166347398916
Ni 1.3227697515586556 0.8603828159668444 2.675469188918904 0.045994721562559494 0.9008153031325518 -1.13631703985243
Ni 1.730097904321535 6.45736039214831 4.836960453150047 0.9584630355530072 0.6765675420599381 -0.42874867853560356
Ni 5.937687633672142 5.688300656314861 9.220180444699807 -0.26154778307465276 0.16665247915664844 -0.5311348915140143
Ni 8.645743074812078 2.3526313985829055 10.187305073955251 0.04137264940951584 0.5018225157031423 0.040191741727537235
Ni 2.2203986393762767 5.087044959665693 7.115307252282917 0.986954715234797 -0.10699260140217058 -0.887503159404678
Ni 0.5977463940658823 8.954505755429876 8.997337474745434 0.5757270763020923 -0.03550153534071951 0.5436479363793605
Ni 1.3696025630969662 0.9897153698500797 11.411135773716092 0.16426032477538807 0.47939735393040667 0.07653685601547464
Ni 4.170249811403491 6.857153786214756 1.4745396437636653 -0.08950010104436198 0.1736163120689913 0.3148704057571932
Ni 5.6592895794178135 7.940742323392975 7.9685884453825855 -0.050371510474016466 0.056778699551940925 0.10223760321568842
Ni 5.2411330309235336 2.913822031025888 4.886751221455651 0.34401334586973653 0.4431149745596045 0.13052796551994938
Ni 0.9404642165984227 7.405251083485853 7.029078932341147 -0.002513767560789219 0.5346858420900662 -0.8477832151072366
Ni 4.8803579561425705 4.622353380515715 6.771105939535175 1.2436994204938516 0.3755985768751854 0.5769056699912258
Ni 8.054503644214455 7.142247398496333 8.941036133506323 -0.03549845001692596 0.04117570290736134 0.7001113908181491
Ni 4.654396408217553 0.26800098961956054 10.327604085615462 -0.16633700479875868 0.08263911225847058 -0.180683760438734
Ni 8.280762973022087 7.131021961588114 4.977285633433276 -0.23966718095147754 0.24036600679071507 -1.113092779217167
Ni 7.21954409669232 6.022627374521876 6.90266102164228 -0.31604797100506216 0.04748621850642144 0.31348535248420845
Ni 2.3203357083140013 5.02342813474371 2.635161388175074 0.057151509510327374 0.5968972826218043 -0.3540182796012483
Ni 2.1623403909297467 5.193118119517878 11.454177744382102 0.14812176734231264 0.5784619587347521 0.06631286429462128
Ni 1.1330923529969426 3.175381929917887 3.7642977672648112 -0.580003335079943 0.3390385183629645 0.3201632787250164
Ni 3.706298172628493 2.665472774926199 2.529624233911593 -0.12422927699543122 -0.14481789978006027 -0.22837155343300022
Ni 1.0921519934691362 3.310908326159484 8.439287077064558 -0.19967701371178515 0.11460075276673166 -0.6552584961695167
Ni 3.591399870255216 2.8711761991703857 7.319911594360367 -0.43865051103034775 -0.3809297592801117 -0.3213107620658982
Ni 4.187620362889281 6.78508178895917 5.920902717922159 -0.8438576548005854 1.4054727171813277 -0.01637072804853955
Ni 0.7663418085048678 7.42175536331313 11.134184212658218 -0.04288214407550679 -0.5916668874608004 0.24799112743614066
P 0.22231689039508934 5.523600757240247 7.898789508864282 -0.5759399636438468 -0.0646825277800499 0.954085475310602
P 8.65471259594292 1.5875420745176365 7.970252408859977 -0.3770337666598152 0.6527066762819405 0.2030446446324374
P 1.75858560875823 3.296921648339757 10.585590613916098 0.127062118458536 -1.3771792695532734 -0.4546440582451266
P 3.9221261468815403 6.169135568767735 3.8070491759786944 -0.28067679059461986 0.1796902861772131 -0.9354395780746406
P 6.946641453271678 4.054250622130855 10.335634243416607 1.0145683631870075 -0.44630519936212815 -0.4760315227819673
P 6.300493032652743 7.756930305852437 10.307555310918774 0.5389006515023622 -0.47567465366318085 -0.5461028256777563
P 2.4700653502899526 8.621722083614584 5.743571495226866 0.06277348368279512 -0.49206363654416546 -0.31800560895206526
P 6.867630259084886 3.970709549063094 1.6042593127942983 0.8482470421175328 1.1240549346556254 0.44315302688639163
Ni 5.496250034355349 2.9164388933276433 0.4718175659075507 -1.5393922248813297 -0.44977053220290936 -0.8592323374844428
Ni 1.7804770154618792 1.2786801336056333 7.080216933549001 -1.194947190790813 -0.5641398856851252 -0.6408158383816255
Ni 7.082294180796807 0.5682011163127537 9.186792891194653 -0.8242686769250644 0.4080433276674521 -0.05607498861669697
Ni 2.669515375999256 1.577209980257258 9.288130432646971 0.7083805728054767 -0.18868991857266212 0.7544210600043072
Ni 6.355465188315824 1.9224914254792076 2.5522474596934233 0.6217205123130712 0.2630045701258374 0.47812440075525403
Ni 4.117659902801319 6.694827110537941 10.543617947328565 0.016305164917926756 0.3172265646941956 -0.9244969630202079
Ni 7.881781708635495 7.205918365396973 0.2957307063550574 0.7672909739884398 0.517239878699477 0.4538367318524829
Ni 7.540362391224411 3.9412833836630106 8.13402016353538 0.8233795894518917 -0.3377079724769991 0.4781267147480991
Ni 3.4026609326568904 8.160017336953851 12.352428362587968 -1.3349902948900492 1.0540437955738107 0.6677232042954308
Ni 0.07103788546323639 4.971984231356444 10.137594616251318 -0.5184786362025845 -0.09323359994486524 0.2078811467891323
Ni 8.569321671937711 2.292181879412358 5.774859242326438 0.5684876211308596 0.7865071419055745 0.0678544977501283
Ni 3.756325360907567 2.58894308809452 11.573450718630864 -1.7780255652516541 -1.3162857765020104 -0.5709103716397393
Ni 1.0019785280158917 3.3438627438353814 12.801361918849823 0.33173401428175125 0.12615349060133757 -1.5743425157042692
Ni 3.252823006723625 8.440869827573964 7.860872076478159 -0.27384819770856067 -0.2730565550452007 0.7822136567365431
Ni 5.559650291362703 7.807697434506491 3.6761013863988583 -0.5506757897604193 0.9184913802560761 -0.39699658293498724
Ni 2.9693085354862103 8.166379019446051 3.320845183975666 0.3618192637029059 -0.012084441968359831 1.086573906991032
Ni 3.28872816223633 4.40901593728089 9.405884724394406 0.16288169926030657 0.2836345876713631 -0.22372916956498243
Ni 7.092608227730967 5.999887743485933 11.540248150219456 0.7361631422353837 0.5792044933277316 -1.771911481934116
Ni 0.2866285373765037 9.135917478583286 0.4379643913859464 1.010252252310157 -0.4921680233325137 0.03950474296284164
Ni 4.557274722169994 0.40600708848364836 1.7480053637623398 -0.2552624642865733 -0.10863116544685807 -0.7768855596554104
Ni 5.9587849580221555 5.557836535077693 0.3750288530287311 -0.8179774445997138 -0.5060661214708446 0.4772173155599523
Ni 8.021486060896791 8.88349855042121 11.375437260088596 -0.5734372518266511 -0.052690131304864087 -0.08813715925856434
Ni 0.12297628558890278 4.914142550824542 5.775162437406918 -0.5441310466633662 -1.433166069331538 -0.25335290596868626
Ni 7.88205241852878 8.740861507649328 2.6664229666516293 -0.03402649345708979 0.3238494693273519 -0.024364287776977397
P 8.420963626754403 1.6907998514796576 3.554438043792388 -0.22497615459820608 -0.7984620002746056 0.1301358722878533
P 1.7656150423205312 3.0553040449197555 1.5963753383355272 -0.14012332251786835 0.11515379705672427 0.7403090460829573
P 4.851013003710473 1.2900138544711666 8.206922337797039 -0.7877988641338045 -1.822686141383822 0.615675591670572
P 8.496906775483966 1.7991830690878752 12.403711644771885 -0.13400358277337568 -0.6840142281459703 -1.3759911627824433
P 6.198417355558067 7.946661846392807 1.469917723518979 0.17636096469366402 -0.696907796279187 0.5548587174935153
P 1.7404660932343514 3.156062267200445 5.99952408986262 0.40202026140182373 0.6304265247275014 -0.43076236653152267
P 6.906585412728603 3.9982768398626196 5.920704197333749 0.01936477767985697 -0.11587499149346496 -0.08465357158533808
P 2.451819503482542 8.45017322423986 10.255638567584569 0.7141580987192022 0.2035786627590365 -0.5924739567431281
