# total energy = -340852.0165628976 ev
CRYSTAL
PRIMVEC
9.48060717535321 0.00000000000000 0.00000000000000

0.00000000000000 9.48060717535321 0.00000000000000

0.00000000000000 0.00000000000000 13.87582691558838

PRIMCOORD
 96 1
Ni 2.813957954487188 0.95335088873537 6.73048396897393 -0.2156343083719899 -0.992505726960013 0.6867028307217271
Ni 4.120177039474775 6.769096585569739 13.383207050455104 0.48455935774732034 -0.19869922317954813 0.7716163408366711
Ni 2.365496796848321 7.670901413503838 12.151241976394077 -1.208857373114002 0.7834403300547927 0.8536792688766974
Ni 4.635893623879178 8.957922269114459 3.661983090587318 -0.5740700003146436 2.5086621212418536 1.4029304103754485
Ni 8.929897594527635 1.0552105314149463 0.7235295959092215 -1.6106259235163358 0.5151439154023967 -0.9598493743775729
Ni 2.6569401397013412 8.147235556015932 2.8365938519985208 -0.900795762748526 0.43256496695790025 0.23420770049880307
Ni 8.920587638355693 5.210920886299537 5.360162707142179 -0.032165014768318796 -0.41631173832383145 0.7414866113308262
Ni 7.101069523774135 2.3330731205672195 7.764842853133713 0.590670327875486 1.203264966627889 -2.0487015358798204
Ni 8.84569084226777 0.8440063067505514 3.1665749146512625 1.2868780127638546 1.6539099310159517 0.0021522704563124223
Ni 3.691596714924057 9.169453574723793 10.604905659270027 0.43455140126030967 1.5333964123092108 -0.11713457493217892
Ni 2.493020442946886 7.110768184837166 9.64060561739517 1.365851246134964 -1.0038034113610195 -2.0546230435705777
Ni 6.977698383585256 9.146662195256024 0.4922378609219036 1.5043360046081449 0.3915597281901321 -1.1772523446142114
Ni 2.0491004961087924 4.222757208293931 6.176740669492481 -1.8125655080100527 -1.5422379218602407 2.2725461479767444
Ni 2.9890268451909345 4.842836315652241 12.764512111733357 -0.521378840568515 -0.749851952576386 -1.5602834665080418
Ni 1.5466567616440217 1.122702973357975 1.3607287835682362 -0.7919177713981845 -2.6594992306328002 -1.157951073182438
Ni 6.530962696438541 1.6375852643376008 5.461262005132356 -1.1811380528218627 1.2233077442113771 -0.47745719948490034
Ni 2.471850247293172 4.3552676537269575 8.939903427260697 -0.6027293159225491 0.30449857560456595 -0.11233226844752912
Ni 9.152151466766773 7.082259999288256 13.591747224524472 -0.48651622436337505 -1.1188073131034408 -1.340888662652355
Ni 4.198012823763618 0.21385405434877128 1.0992498475146453 -0.017148486754828534 0.026380289765741666 0.7708414103438596
Ni 7.186281220386572 2.8076249089445637 2.092294142055195 -0.25550877596942445 -0.06899426778152634 0.4574043945990832
Ni 1.7626155107689345 7.549786657804696 5.466673535664887 -1.0148455281077942 -1.820482448864284 -0.7529125937795808
Ni 6.193974517078383 0.3178676909614077 7.506337035466601 -0.06361166331337431 -0.2658003877034197 0.32437834524762843
Ni 0.1508023287712593 1.6048582086293082 10.848107880956745 -1.0307370025270701 -0.041427413906851236 1.0694043371902806
Ni 6.202895768359236 0.8982145220254286 11.840881030134243 -0.2090556267132077 0.2778650321774376 -1.9460204173688096
P 2.6922933235762607 7.843590671825551 7.442438691675082 0.14232932903025167 1.0692315590578423 0.15435720672906317
P 4.719322966356865 5.980120462729611 9.159613652614976 -0.5403417548242629 -1.5208663981630002 -0.4841896331127275
P 1.2646371422481402 2.328095801839858 7.156527283064758 -0.7927857758254346 0.08285971290970891 0.48829311375813966
P 4.497438837794617 1.1887354018076444 5.525229557355702 0.9190372254572173 -0.5010375579080015 -0.1373331613672409
P 5.502098772153764 0.8798354171018782 9.6565207125335 -1.0393851651203712 1.2752085468457262 -0.049257451474231294
P 1.4241009536657194 4.428476901751129 0.7364829493895924 -0.060400355464928245 -1.7412721597817042 0.290920322699499
P 2.9274597826852413 5.440048198685984 4.906145913742866 0.2726521205179304 3.0487490797428336 -1.4238594472186317
P 5.419797621920945 3.9603529649874063 7.174731944817673 1.5720740313850667 -0.32407341241269993 0.8582463194220897
Ni 6.407468308357364 8.433995478961682 9.898945524438039 -0.892693702466682 -0.41074247176617007 0.963342989353128
Ni 7.693285126866317 5.272649119125925 2.2479533858436493 1.8468120878977483 -1.365691323518332 -2.6077115565375477
Ni 0.43448579471314464 8.317848561382801 1.4886126927365908 0.4405081330643768 0.9503391208942923 -0.10351904103127335
Ni 5.567050411394063 4.619852436666423 2.814531531216722 -1.4082798476128198 0.09692261876067824 -0.09163180267538412
Ni 4.0658531607932815 2.6963889458433474 8.259405358916473 0.24681021975416204 -0.8636312378830868 -0.07244340267239137
Ni 5.052992933232114 3.364534731197324 11.583665523093403 -0.19849533469885816 0.9277319250177377 0.6638410956322052
Ni 7.728391814956644 0.9081331331731736 9.386109148470537 1.4373050312005762 -0.5594975018171074 0.7061601681153902
Ni 8.414835172013113 5.428481858024305 10.412350736831526 0.5260682756243844 0.04369332712289249 -0.29204003812623897
Ni 2.9138930339255174 1.213034197804271 4.1509539343026525 -0.5454088849345252 -0.2999376957067609 -0.4110165513631631
Ni 5.470348218976744 6.604333114783406 4.1534653471233725 -2.9605455860227075 0.859826519425016 -0.12773780436932194
Ni 8.915904218448423 3.6182073353649917 0.6543989050593579 0.12242127725241496 -0.5996087680156964 0.09531979304993261
Ni 4.997654629590949 2.605612132863364 3.7764453042845747 0.3007720186825981 -2.0719934165282248 -0.6656406107347892
Ni 7.581774226159209 6.716820518021788 3.7970504557551434 2.4613533088535613 2.14631938093531 1.2601323692388944
Ni 1.75448114987736 2.7381225782963905 13.254314404691337 -0.33907117137311277 -1.0348489678129145 -0.26572145483636816
Ni 5.8679838419539205 8.203057370619184 2.169693818417449 1.2400818783459224 -1.6366588572449878 -0.21868312250064273
Ni 0.9887230338244895 0.2625474004737313 5.061735001038782 -0.759237507556344 0.45522101379451924 0.6021783285150855
Ni 0.7431800502448467 7.19469051888404 8.153339170866744 0.03201460523338358 -0.07898017534964462 -1.6211720744632983
Ni 7.8801573734092365 8.772870299134688 12.035656310755504 1.5091820198465364 -0.06931976944174513 -0.2689517888482078
Ni 4.270586871112106 6.963363705650454 10.938258973868145 0.5267676156842541 0.798968764707695 1.7734826830759778
Ni 1.7952951634417287 6.3580648647606335 0.47761971283481885 0.8632412015335197 1.9739287137433037 -0.25511514007543157
Ni 6.521349360839407 5.850018091499919 6.040036003478531 4.271776316599314 -0.7507983756500554 -1.3443982184675105
Ni 2.27534570393692 1.7550405056962446 9.749558650306772 0.06441410461001165 0.3793575296969854 -0.19544009281230212
Ni 8.90301059279278 7.560319612292504 6.062612173165134 -1.2265277938105716 0.3720257719222625 -0.5878058618434973
Ni 3.294283432588272 2.125874452402464 1.9960375381715634 4.093510421573454 2.7354395907148565 -0.7467478597297655
P 6.354500156491134 7.371740856471632 11.841158811922266 -0.9289028053973873 -0.03286718304166598 1.3193821560391472
P 6.855597644747741 0.7440446816123427 2.3985063746481856 -0.8694393599244317 -0.40277128063523543 0.11221116948863255
P 0.18074208599222924 7.267397294731924 11.574937676197386 -0.3337531015943091 -0.11034326304195835 -2.1199897419018456
P 8.2169464600203 2.652029185223677 12.243931975886788 1.2917643943218784 0.8097494002629667 -0.31543064913603736
P 2.5215949927454933 8.461906386263308 0.6552388868483946 0.15017787854039297 0.6334280305579866 -0.9477461633561355
P 0.35809959524985235 5.0868481811852755 8.054099019928824 0.7469576617477265 -0.0737649496972923 -0.16391116896608546
P 2.917220727017525 3.5794411329341664 10.965344120291386 -0.007505307238109655 -0.2772942472756321 -0.03677783094998182
P 4.004305059501788 6.568439536303802 2.3745981796640683 1.493507546534073 -0.6068826759692902 0.028752903762976286
Ni 9.281647079142083 3.1569283969272797 9.008380904281388 0.6563242184298697 -0.4170301045470947 -0.1260997545452667
Ni 3.929484108270662 8.0870337009326 5.585297735878927 1.2481420296462375 0.5722833407278659 1.2933695340254694
Ni 7.838035036065104 4.513451583186073 7.641737169943627 -0.2593132373171792 0.006890556472246198 -0.5611229532356723
Ni 1.491640798644247 5.569543811061294 11.00878995038664 0.5110792584147199 -0.0809421841720219 -1.2191438426416745
Ni 8.557167526401468 7.7651007256468265 9.435187407243747 -0.07443189385732987 0.9442206667013804 1.3250699504525438
Ni 7.340862519147787 4.805321553358581 12.915009164956006 -0.8002355472352605 -0.5020006931522193 -0.12348777084371634
Ni 1.0051718871425332 6.288846952325453 2.828656687734621 -0.7331140709964148 -0.08024824342879082 0.8158477998512207
Ni 6.811759317518556 2.1368245536026604 13.67014520881433 -0.22637766293142303 -0.05155833169326604 0.8922234476984827
Ni 6.917856791571715 6.48264004205118 8.42076718787542 -0.5223823421323649 -0.051873034720207434 0.17540142899387212
Ni 4.666715077560424 6.115664702434554 6.88664189269583 -4.227335312677119 -2.0509363387476096 0.3705957243439553
Ni 6.108383596181955 3.104728174236127 9.551439559561432 -0.10221626305944978 0.583846362975117 0.751773595079131
Ni 5.103135864182625 8.762299422218481 13.1655095579881 -0.04965185869917255 0.06128378651114606 -1.6144609809917099
Ni 6.006865255357971 5.561589581704615 10.82805734500151 1.6909068199552748 -2.0003838226110386 -0.29091749448602156
Ni 2.6226393032144917 4.349645653716814 2.9995370462217035 -0.06359109448808403 0.31033369422910423 0.3236016149826039
Ni 4.901606599063512 7.848624874195511 8.170114157069017 -1.7599802777141689 2.5142612125961863 1.4341785697564526
Ni 8.65050410329838 1.9498954234171426 5.765503219509311 2.4248881240479916 0.32010002958724876 0.5903319706994608
Ni 7.1861769337084755 9.200331912047638 4.428886463977837 -0.2340151248720228 -1.327360032038301 0.3618516596027381
Ni 3.960153872238312 1.6204158848799768 12.615194446033916 -0.8302274656116605 -0.7075930439071749 0.6670984262272381
Ni 1.236830521624611 8.77316419795478 10.192572251106128 -1.7542004378075984 1.3601323413733155 0.12820188848993405
Ni 0.18220968397126855 4.473538227296179 12.384550236511512 -0.6207033839024665 -0.645053787722373 0.9260280549527536
Ni 3.8182291839552467 4.872975165622305 0.9591094094877504 0.46721443871096957 -0.6665803489402391 1.1213177382301205
Ni 5.936424344606923 6.144883933515944 1.0588017853843266 -0.1980019400022074 0.18105219952174625 -1.2495512512889384
Ni 9.295232789116005 3.9382726310521186 3.385035595989796 1.665214043174861 -1.0418359406537092 -0.5839165540914202
Ni 4.65494016354255 4.2327213263557555 5.232616307586575 -0.12959285530018969 0.6900923160192503 -0.34211715728828823
P 1.8602657638962274 0.5818807932927583 11.776941919732195 1.5998028647589029 0.8491839521095054 0.3273484836195459
P 6.094466064959542 8.00224863163965 6.419721044973065 0.8885048611963149 -1.1804878208323735 -2.0198020792366504
P 0.21781505199504148 8.414436986514925 3.567877636454617 0.05071218164288686 -1.482424549247034 2.0076091367148847
P 8.594037607412346 9.150008849562232 7.543260207877236 -0.22465091004830343 0.25375605494437586 0.6483298873704834
P 7.972963036308563 7.298882390910151 1.4152233131775256 -2.021063719557893 -0.22133058742581885 1.04772865198906
P 1.5125076148707686 2.466455781853422 2.935487012716589 -2.2222288877794307 0.318385103778671 1.8595629598055137
P 5.1386312571640405 3.4226887751471122 -0.03237911742773235 -0.740208515949351 0.5597988351076102 -0.09011202359674804
P 7.257907207025088 3.9982279903508564 4.018189408599353 -0.21557722988180938 -0.3196729693521591 1.5089686182841497
