# total energy = -381170.9124662265 ev
CRYSTAL
PRIMVEC
9.22208910315802 0.00000000000000 0.00000000000000
0.00000000000000 9.22208910315802 0.00000000000000
0.00000000000000 0.00000000000000 13.49745958552123
PRIMCOORD
 96 1
Ni 1.8524871713633586 6.099950912250372 2.7387963441108507 -0.7335326465910722 -0.008986776879642588 -0.3169949082993638
Ni 0.8353894071386175 3.3281689994299635 11.554811150553416 -1.895670247051032 1.0752199154307933 -1.4864802073736465
Ni 7.237283509053005 1.968464165349995 2.53089540923204 -0.9412595271905274 -0.24423191750402454 -1.2363836035587288
Ni 2.409482915861201 6.671268561301431 6.06560969642599 -1.7144324138810407 1.6144319275259875 -1.718383170998673
Ni 5.512393164089066 6.082170724240971 3.961463699060474 -1.59439840591388 1.3878367492671195 -0.24376037718424468
Ni 2.0083035907652516 2.23158881487502 12.994841303917973 0.4200362383632702 -0.7510254040591968 0.4762626649561668
Ni 0.610474639864295 5.477902550419377 12.688179171201877 -1.0473175325935706 -0.8501761408194455 0.9973993076068888
Ni 5.805840042957925 7.389309649786919 13.340132923944122 -0.2703684666900763 0.28839395673321944 -0.4854684998251511
Ni 4.055515175934895 2.4878153416661064 0.28305819536647786 0.37066565834994225 0.8176028348691144 0.5943369780937958
Ni 3.2544476182333053 8.956382381988986 6.5986648973178115 -1.4255180658679771 1.2358776104565876 -0.5501803381812396
Ni 5.144985129703921 3.5264531396738144 11.855750054701756 2.7810368197286817 -0.5055099918570584 -1.306569577655511
Ni 9.118857149805187 1.209762885508982 12.314205009294588 -2.0076207066791105 -0.6081294038921978 0.4221887659298987
Ni 2.2467868179038026 4.353010551969795 0.6961782815799444 -0.6163739032891771 0.40128055502232185 0.34872232130963166
Ni 5.257024291595114 0.48691985516846487 0.652815095875065 1.9233486868029068 -0.3990573221187579 1.3869654024057596
Ni 5.310069748768391 3.576731970082143 4.605913437807256 -0.057499122657733236 -0.4098965788261069 0.5987225087560012
Ni 8.79836188326435 6.961533819390599 3.1448135772097734 0.7149055184081881 -0.7857707779601822 2.3713454149348454
Ni 4.507913984539255 5.582490264223642 6.004047639861279 1.0627096987789248 0.27095904908622365 0.5731796272898902
Ni 6.39455977436051 2.7855873803775015 0.4676318555721663 0.7786012567949364 0.5197523607086856 -0.5502677556887233
Ni 7.358950532086219 5.430464123489728 13.317592293481166 -0.47477733865989197 -1.6559549864704384 1.6249158577764466
Ni 7.39530400777764 8.72914088160534 11.624417635541674 -1.159631031988022 0.4827320747305944 0.08398431343245535
Ni 8.05735779262979 2.7990792969012332 4.318309674665969 0.48737522992956067 0.5602726894202351 2.8722749865100727
Ni 6.313405389255357 1.3875002109784829 5.533081076828429 0.21054352411264382 1.1183640549184353 -0.4031093807009445
Ni 0.13145534852760105 1.284323476824341 3.1824987225840573 1.5498638138366145 0.979688777701003 -0.5199518783140012
Ni 9.041603708438613 4.951090703927122 5.495517663031803 -0.9970388389436766 0.24581777393390566 0.8601291382670995
P 7.376527834132858 6.32736763232913 5.099529451955819 0.12623499457155035 0.4975395720570722 0.4302903119911106
Ni 3.1911656420297185 0.6804536972568994 2.0144556464815753 -0.33996771504545326 0.46779345114289106 0.49375413687271086
P 6.338203587158511 5.263654973741773 9.616210876713195 -0.32555436783360064 0.17176846022697514 0.12612032337055698
Ni 6.8276567502347465 4.04108260631108 6.552841258209972 0.32558959194691023 -0.8615108491059743 -0.711032151495711
P 5.928383164466706 4.711888153829683 1.6974942845284982 -0.22149539513845726 -0.6275636013574095 -1.2823572420753657
P 7.520014320252298 0.5297730593396721 0.22919381667077604 -0.10850929515701313 0.21280892310805286 -0.3292937802713748
P 4.885438650794895 8.45653592436576 2.3993220179624672 1.5587372050668447 -0.10867153176649028 0.49238939531470033
Ni 6.898178066473281 6.661087374806421 2.008085027250821 -1.5583430549522195 0.42354373729589634 -0.7971836477828143
Ni 4.8854202066164625 2.198057298483845 2.6271186881169446 1.5688506393517625 0.5124170033895368 -1.0363396934258282
Ni 8.11615783347416 4.3577507058270735 8.811141854500569 -0.6010627268534037 -0.22780385385498833 -0.20689692849899208
Ni 0.979450429416245 0.7327724537999168 0.9900170992405046 -0.7221179769962274 0.17883462304513717 -0.4958840387315202
Ni 8.822071874639958 7.028440076656268 0.773039784154819 1.2455421301295453 1.2496530669741253 -0.3783411726173291
Ni 8.34161947063902 7.0534319384329685 8.813962891591894 -0.6502672136025123 -0.1324948594383331 0.1590463846746164
Ni 4.208242195449262 7.9366222006074425 11.164018664542004 -0.057622278499158824 2.086841280174335 0.4465042027468117
Ni 6.8429746404233445 8.733862591284186 6.728605056587144 1.8883631718666576 0.6858060299390706 1.4742463843116158
Ni 7.209755572741769 6.441804537416612 11.352321737626843 1.4717385302880976 -0.5826803676914739 -0.993546766630018
Ni 7.300491708542859 1.7464792558197528 10.801611769138963 1.1246725136349662 1.0400179136083636 -0.32223533076269667
Ni 0.7124082363920534 5.448935968190367 7.713704015648491 -1.431594353969044 -0.20081009887496384 -1.3113292038276836
Ni 0.3923076752696815 5.941736749652191 10.475256787109965 0.477156637525346 0.5468559017936969 -0.548191589885985
Ni 3.0708542661113296 4.152946548507161 11.998337387122586 -1.9622373934483046 0.6742903159899871 -1.355470674231588
Ni 2.9324860395070447 5.894547319131387 10.10518356894125 -1.1692310169716313 0.06626401333455685 0.2634701969083463
Ni 1.5708998992269114 1.7438325162146189 4.9580755142996935 0.2391663300556591 -0.8907643466544529 1.175408606537253
Ni 7.490033308209473 1.8785119071323064 7.764089822291731 -0.7168060778650107 0.1157153259871491 -0.5108522300055783
Ni 0.18206894077448849 8.88634061438971 9.864578339073985 -1.2899129429354366 0.3163601029288422 -0.756462258804052
Ni 4.410205949290495 3.891343543702857 7.334843990874302 1.1818849582902162 -2.6195571430222238 -0.05115672537947319
Ni 4.51942315188144 0.5312052497949937 4.269313636867654 0.18983457370006662 0.8448256751408094 0.5481275694172689
Ni 9.033580490820261 4.869124774970917 1.9237250439340146 -0.4135100072089782 0.03997371217946019 -1.4143584497067319
Ni 8.920462344490739 7.373041884409023 6.551801928755274 -0.562482038366728 -0.13042255029033667 -2.2695875795690523
Ni 9.099712092591744 2.957791452317106 0.3107936286850855 -0.9127051125916024 1.0686954840487142 0.9621489690450269
Ni 0.04369425870775155 2.233571564056566 9.459586602295936 -0.3334751653425741 -2.278128784270844 -0.010698874474742865
Ni 1.3685672618170195 7.60353878228609 8.052827902406648 1.9486051473768506 -0.2829786992549191 1.8378296818934798
Ni 0.2363012808299285 2.903150573709375 7.097207351525825 0.35750700948079717 0.7426958011475789 -0.5191252686476479
P 2.1377909454540527 7.932112598980577 10.55558026197671 -0.8050054578200782 -1.4594036628718285 -0.08840506820797032
Ni 4.798142354271557 1.4799700995522747 7.52213447856317 0.47336657435529433 -0.11759274551552007 0.3155005831420244
P 7.424021593597805 0.0656640418482067 8.825624223406152 0.3080240722593211 -0.8291298616721077 0.8677138925928928
Ni 3.317535930563345 7.867133758361156 3.7510792555556605 0.17654891233475403 -1.519508598583525 1.169953496959953
P 3.6526482085123266 2.2360707502342363 5.822547701991449 0.8807941228156185 -0.9628035719098901 0.4844819675421656
P 1.8220266106812768 2.7354284371289874 2.0545966342142115 -0.8011778565438717 -0.8216492370243461 -0.52312847626977
P 7.837567740333074 3.7642262659426953 12.003182672796934 0.39289413073083945 -0.7187598591572718 0.40344799498728584
Ni 3.1081115065459683 2.9829032012536207 3.778749212040831 -0.13800087685822685 0.7708316401518467 -0.6707753608581931
Ni 3.6790141615822844 3.3915985290610133 9.425910299104062 -1.0797566269588823 -0.1029315439589195 1.6283868470441825
Ni 6.061734574537218 7.598872405142544 9.62505209364505 -0.37928502458783714 -1.2702020947700705 -1.1157291883987495
Ni 3.8651804765956617 4.979550071249223 2.342456771435718 0.8203258902272323 -1.2340135606646554 0.4657936471040429
Ni 2.273706096326751 3.8597578881363632 5.846910617283584 -0.47083866572711813 1.8017180237725874 0.8743262557030879
Ni 0.2679339690514267 7.908854489976577 12.071466710191546 1.25831228531102 -0.5146824023849459 0.5213351318147731
Ni 3.1526541974616373 9.207490649264917 9.047009697137321 0.09532030727056487 -0.5252432086199276 0.18410898407019904
Ni 3.6302754200731107 7.05834731198536 1.2286248245834783 0.5451515175080804 0.640599094385129 0.11350289171686258
Ni 5.440359425219027 1.1829266058889825 11.943133038863728 -0.7422890526274635 -0.9069432704071606 1.4807471615446113
Ni 4.942597159758729 5.898365264067016 11.28028615433896 0.7697751738628742 -1.5525205347331712 -0.4306867760985808
Ni 8.794802156826783 0.7017834674057299 5.420404668572377 -2.2530242758937327 -0.2442234328635923 -0.25103171403467733
Ni 0.8799228759650701 4.1563679436064795 3.747961267191563 0.9251207126471358 -1.4821604969523698 -0.34127923476802513
Ni 1.175927040173663 4.031897405451452 9.33145489472196 2.5861045197907333 0.405759673839598 0.06207568628482212
Ni 7.974690984893132 8.977768406882037 2.2595289785742336 0.7402223999064219 0.14246816860096106 -3.0119974740450965
Ni 0.5257531506502021 0.3287278255844026 7.400373390219948 0.1485835374700796 1.3771610147208282 0.8087471842506975
Ni 1.3617429157968133 8.466800109663719 2.773228858618477 -1.184614184295921 0.06443055967024387 0.49725417960616947
Ni 2.307154613914977 1.934812761799006 8.035159301676766 -0.19067403888222645 0.6234992014800488 -0.7407240221331889
Ni 5.37287217633272 0.47599444607368363 9.8145697158797 0.013591879751821754 1.4200603851875155 -0.8425425355335876
Ni 5.959175720360582 3.006852966948857 9.391748914019402 0.16391271162798224 0.9524026882915404 -0.9810656034438717
Ni 2.582618418811671 6.641896207146895 12.569131221506147 0.8928500255388881 0.0033244363875426616 -0.6214199503535168
Ni 3.2241253888894708 0.11979032787765698 13.135606351509626 -0.5021531595696835 -0.6359217435141177 -0.9777295970921032
Ni 1.6385439236298998 0.7157816766274472 11.128075571820716 2.9806302725877245 1.3172432553192732 -0.34611779380724905
Ni 2.9067564105930246 5.449553848167872 7.814056946084542 1.2301247671332107 0.10199283419473401 1.8164923538682842
Ni 5.167496249481384 7.787519462155157 5.797766103848885 -0.6656411249554214 -0.26106184457716974 -1.4137053895037655
Ni 4.6190862700440976 5.130709335596787 13.465484171619325 0.2334425401980044 0.3781902488617616 1.2680958470603452
P 4.32752991946462 7.469145276134113 7.752022718551948 -0.1361010887323527 -0.8232289228066403 0.706039583377126
Ni 6.840005127695633 8.317282377196692 3.9284218756066958 -1.793883358219517 -0.35388689622970665 2.054093653429669
P 3.258606780469944 5.574467046605292 4.352337339456991 -0.9029611458309611 -0.636374257670504 -0.8792779432814083
Ni 7.088770984310576 4.659137803511333 3.398943923121951 2.4298025306304734 -0.9608127667321066 0.48723099104221257
P 3.584469302934782 1.9046565300610687 11.235096072760292 -0.6177710407470198 0.5819532597174623 -0.2537030902192534
P 1.7507029726809074 7.942266119207938 0.6069684015441836 -1.073739731340841 -0.18034566037302488 -0.1636805410125181
P 1.2331593258512288 8.611042807098912 5.076610715834986 0.6817717119686968 -0.5734745328224897 0.20993391555310295
Ni 6.5759767134273925 6.154158352664928 7.508272756261857 -0.7003918981730454 0.3264349706663411 -0.2681326353810221
