# total energy = -340890.32142604934 ev
CRYSTAL
PRIMVEC
9.07203363279505 0.00000000000000 0.00000000000000
0.00000000000000 9.07203363279505 0.00000000000000
0.00000000000000 0.00000000000000 13.27783823680824
PRIMCOORD
 96 1
Ni 6.443493520220536 1.6879788617198992 11.514939934803076 1.1301029406219183 1.2208765090620652 0.42845942942995885
Ni 4.635827319076188 0.6651624115314578 6.192664491734914 0.5618387483557744 -0.637827959397895 -1.1729436899365284
Ni 2.859613858459739 1.8302737089019259 4.755829458066924 -0.3322189243379698 -1.6399293004661433 0.7811281369818482
Ni 3.5920989242119874 4.186670935016122 4.803815979850114 -0.7751505792421747 0.6068770195423355 -0.06481931046823029
Ni 5.375660732053011 4.3258450026361075 2.855956921711312 -1.6411351478487866 0.472689860003244 0.5150541839020678
Ni 7.114379477756912 5.958121577987014 2.770407644763495 1.0407486211268013 0.22146402767988954 -0.5014157671830268
Ni 4.864868951642629 4.805737436568835 11.3269383678842 1.553899417358569 0.46032568201093627 0.28504843729975426
Ni 5.5791464459384335 7.7970862950878805 12.533230347423197 -0.9227092749921657 0.5180184087367142 0.6418800179800817
Ni 1.8128372603023815 6.715464015832265 0.3770164799920551 -0.07944811612499866 -0.23465635800044748 -0.5046545858352987
Ni 2.642901119570083 1.5887852462217622 0.2709408197969282 0.7691138861297916 -0.28404185041211083 1.041076179669549
Ni 0.5818693493425932 9.16656420080736 4.834407784388367 -0.328458428854273 0.6562254880684764 -0.8764942098886841
Ni 8.529789089646783 2.2892823214630877 1.40151579241526 1.1730082246258766 0.7777756755698475 -0.29187805862707794
Ni 6.911592310459504 0.4804784873039724 4.996490551281803 0.16053505340500096 0.8549856463929469 -0.5960375057246702
Ni 0.9825828883288575 7.667038693280143 2.5836816057702667 -0.10512726605865766 -0.48658307304556847 0.05309687982497953
Ni 7.807981807454193 3.831346594590337 3.800900849793213 0.5613607802780912 -0.2648714481312471 0.05239059778657429
Ni 7.711999691854203 3.8270918108269725 12.296140913840805 0.38996872955392836 -0.2699961709523221 0.9344772141613712
Ni 7.862032983706059 -0.5060071898841588 7.321001393661515 -0.3225047823739994 0.3146922283081161 -1.259044278381038
Ni 7.153443654484091 0.6377911789249617 0.38016810446837235 -1.934033420210263 -1.2170422229176396 1.1069319018220938
Ni 1.9730675179325345 6.487937412878792 9.048395519809322 -1.2966248077379734 0.2356752861832651 -0.4324333264760424
Ni 0.2052647396764587 4.91387607720701 1.4397027034922956 -0.5007670778554344 -0.7605593116915612 -0.37993114281226825
Ni 6.662592203949776 1.8257739802310755 7.234350771833372 -1.8288164226512762 0.061300498681694425 0.7316027765582109
Ni 3.5791531322496826 4.2576958861533925 0.6321284155452345 -0.39636280600573026 0.06646070272639523 -0.12908069155046156
Ni 6.135525195242005 5.320330399062053 4.86482722028802 -0.40936281780982403 1.3217655686696592 0.8174611670849277
Ni 5.144659540226683 2.6422932933181733 9.782287657974573 0.5022045816329093 1.4752550280817884 -0.637298055036354
P 0.16556914940998269 5.558335200835752 12.315102371290289 0.3463044558967584 0.49961162409475246 1.2279197890620916
P 3.698123781018895 6.084531294316907 12.737390113405885 1.1070817971363967 0.884657719536083 0.07280412844591977
P 2.5611711687723218 8.673344949500681 1.2904359984805343 -1.3747737454355742 0.6551937043698522 0.1269029671728524
P 6.154404097185632 7.785347083595783 5.917666658507332 1.031743075194081 -0.5533111705007374 -0.20492026438859548
P 4.7874300727426755 1.1156877654633615 12.726608908663065 -0.6122742792985069 -0.44458770245038914 0.026985013229276104
P 3.8376698020169147 6.2236327856680065 8.072222023226344 0.50369350747361 -0.1794694284156587 1.2472598841516003
P 4.7782310306615425 1.1388305232039642 3.88509567212297 0.9443638771474638 0.01248630539246882 -0.5582294337379612
P 0.3836753526622245 5.605500703577183 3.592013647096048 -1.031319100282785 0.33276862619385267 -0.5760775176629757
Ni 1.4112636925298336 1.2051924490653938 2.6284012882502843 -0.4998695057418294 0.03427769023594742 -0.6311009250867066
Ni 2.0112244912986554 6.448764371748286 4.716846022438879 0.9497801630670287 0.1595508351148607 0.18477901355403017
Ni 5.829325916817538 5.590087318472799 9.062018085478977 -0.3833982754252622 0.08720282036975303 1.0997515820235706
Ni 8.45561614284664 2.52562694108605 10.173612549377241 0.5246647104086384 -0.6894983911889931 0.19619496870045566
Ni 2.3595542938106795 5.007572040337132 6.941374889599694 -0.9094968900669498 1.0010276483880953 0.04004261774418265
Ni 0.7217129330430399 -0.3322450869204568 8.79899805822745 -0.32753925947411333 0.2739027050955799 1.148941156374344
Ni 1.5219878627470242 1.152320637182904 11.430054730715554 -0.8285446785925988 0.48062351302802386 -0.6623004906179626
Ni 4.079103832495415 7.193741627782311 1.6812401551539564 0.3063770235742014 -1.8894376358777591 -0.5630420246352562
Ni 5.481749093095193 7.708171293670536 8.060909197313944 -0.09186937260748694 1.5254157080965791 0.06510547425008142
Ni 5.463732034344571 2.855975972981894 5.21164471479716 0.3658047307132152 -0.7259954576737626 -0.5808803383682577
Ni 0.9240319834061416 7.588248081372212 6.63905209113703 -0.516752140429781 -1.319679375564592 0.5406554294099398
Ni 4.777432691703811 4.560384287570563 6.934071902543173 1.0061243461847125 -0.19800399688473638 0.17046233982104192
Ni 8.006777279962943 7.0831081779012255 9.212681883666768 -0.11330980186945003 0.24172380637019011 1.3388230383725783
Ni 5.062104034370359 0.38497174626517716 10.30741325148968 -3.1221139657882295 -1.65406676830879 0.20729776348183654
Ni 8.156629131142587 7.281078095351413 4.526932978038253 0.06409040272200575 -0.8383354394307756 1.4718830262857618
Ni 7.094602444485837 6.072302193009838 7.030177397800267 0.23929102855898143 0.7083494624572253 -0.6774586864156398
Ni 2.4186313766828094 5.385921202066582 2.513547528333556 0.18134736216466188 -0.2809254162703162 0.32332085051739157
Ni 2.226440344642565 5.120999676570277 11.309013843876405 0.38097603913701483 1.0531716773815023 1.2249635346472452
Ni 1.3283090171946437 3.3667042491570016 3.780864356360875 -1.3769206165752481 1.0610582792184309 -0.05007917604457827
Ni 3.6952479463643395 2.7220727568896588 2.6544924569143276 -0.048095827065962334 -0.45657958470494264 -0.4635331332046404
Ni 0.9249210426999789 3.359101884991331 8.167397635038352 0.6083163230920233 -0.3581736965305186 -0.07373666756251818
Ni 3.3308969324960223 2.56981681680321 7.097336755416067 0.9904640139396362 0.8528009800368022 0.2696542142318711
Ni 4.081798226477758 6.853476863150096 6.089455594160732 0.7919851343010101 0.4423809246070575 -1.9185592358340635
Ni 0.9018563044484275 7.412704231007391 11.148789936669779 -0.4103953728393965 -0.2334803354144753 0.42781099721268256
P 0.1384319752706396 5.837817340277045 7.9710053442330455 1.4576673969070122 0.11066413671648682 -0.8914022373487679
P 8.62370278158356 1.5746963780245236 8.051136802708621 0.43851835632785763 -0.6444986865498513 0.4262737346325497
P 1.8071490952285445 3.313687284736742 10.35497429489653 0.2808025175392067 -1.7466100270548501 -0.35121166339038873
P 4.196622955886934 6.005069351921791 3.801166660378003 -0.27021831426545717 0.8730077940019804 -0.5941947960889766
P 6.786933496616455 4.112561492451253 10.393612993247375 -0.2736124275486707 -0.20781841187199696 0.2277706866242077
P 6.108907848628549 7.619392372757351 10.25527083110948 0.8425379075478975 -0.899050240812329 0.6259800589203734
P 2.577029083523625 8.479566311578584 5.5725229541993455 -0.6296559651100639 0.6257486596358577 0.6213153064548526
P 7.03588824295813 3.9193271765457904 1.5826915612455321 1.6428048222417255 1.1583956169190244 -0.9949950690407703
Ni 5.59645588606743 3.0799463387600183 0.10433473694525564 -0.2483999328387851 -0.7773100487873388 0.375335810132102
Ni 1.432546683380266 1.0292947893897602 6.967984071382901 -0.7609871432575991 1.1835212083420585 -0.9294728189682444
Ni 7.152872116366624 0.6289060292067546 9.4109466422093 0.4179577585676867 -0.5484327593625136 -0.5947763796240595
Ni 2.616202124654131 1.551680628754469 9.23889280317447 0.12756014114087708 0.2958866655658388 -0.017425394565299023
Ni 6.330074956021002 2.205030345321584 2.489036707924477 -0.18765582088119295 -2.5821995283093724 1.0610503087986307
Ni 3.79650998552569 6.783159530634451 10.47495284659988 1.2635475655680304 1.4887299226397717 0.10559237862053428
Ni 8.258880021967492 7.10674989749041 0.8855747257275105 2.164557501209891 -0.7604371842914001 -2.1276428875717293
Ni 7.808435409134723 4.297531185737472 8.452100729822538 -1.2002601183632942 -1.280400375459311 -0.8369616990117005
Ni 3.1904437081369443 8.57269073659124 12.260277350571439 0.13149727141175416 -0.4194284295759421 0.4924953247649453
Ni 0.17539869782705161 4.769367653824 10.17462135951474 -0.14806031797675792 1.4849766262449264 0.7897320766007754
Ni 8.398289962461352 2.4254716900251907 5.857677836257338 1.8229993017488668 0.21176736921741593 -0.7627478347024477
Ni 3.6754618410596533 2.9888359052089126 11.752294271766896 -1.1929805539827456 -1.6019597632009055 -0.35123557464978866
Ni 1.0680505169741794 3.2648343837437417 12.676206504329377 -0.36339534994077416 0.4119886854684453 0.08208786774069089
Ni 3.162574420885227 8.629853620371536 7.650464995076966 -0.4951972970771407 -0.8593302965148878 1.9330692565247805
Ni 5.561065882952538 8.015595296632432 3.5291435469713326 -0.15333802143592948 -0.7293558895055633 1.1019372768209796
Ni 3.0302950988092863 8.766541950782221 3.551051600937534 0.9856498803804443 -0.5034533664383458 -0.5071490701223782
Ni 3.5552573957194014 4.352017819602645 9.17040529983808 -0.8318819704959479 -0.5376716641912676 0.3019624394462735
Ni 7.165409666816452 6.217273290106987 11.766780495036278 0.3964365966664592 -1.041022186503162 -0.7259597193398207
Ni 0.5369056291584504 -0.017714052828028393 0.1355697486665 0.6323347974938077 -0.4704643131068349 0.6817948518971484
Ni 4.822411834345091 0.36252027748570126 1.6645231188197314 -0.011080940404509949 0.8509400155686636 -0.9250587490609488
Ni 5.844557861249711 5.410433836882383 0.6898873319337464 -0.5289854492711794 1.8625878626747665 -1.5712993580025711
Ni 7.848506581592677 8.531367623495024 11.526717248836338 0.06405080773332195 0.12954811810518335 -0.34852408925589656
Ni 0.07425187349255556 5.111827850589976 5.736703175263548 -0.28177388031354056 -0.6820347358220964 0.5112479227821001
Ni 7.85367764075071 8.650438064633954 2.6872751575695375 0.17677851184705684 1.7832451617793803 -0.045699558919643876
P 8.378104687677801 1.6562448881500726 3.589252120064986 0.49618871445613255 -0.5983972642060985 0.30944589230751224
P 1.8288493996250639 3.2595635322159917 1.5958632468447405 -0.3724880562706617 -0.1336117466515957 -0.7968162371410664
P 4.58825357482228 1.2412719267346906 8.269344612737301 1.1161639619433228 -0.7147594797486271 0.05414177614972611
P 8.466765672154049 1.4515072336263888 12.275268886112931 1.748758955077053 1.4944251732523357 -0.4976593854643881
P 6.416386283792108 7.587513246649754 1.4364757811370106 -3.011358297799201 0.8850073895660177 0.029063235914543496
P 1.6755955358414505 3.2578489178635914 5.953397770085982 -1.0926499379817827 -0.32152776317271076 -0.4291950220444028
P 6.913098268038861 3.961412340465295 6.432515452348367 -0.15034859979030235 -0.034058632246605866 -0.5214138075715083
P 2.442254952204773 8.644260009745146 10.145716046024694 0.3317216729865771 -0.7101469206772802 0.09632817970978894
