# total energy = -381164.66756846145 ev
CRYSTAL
PRIMVEC
9.29338976630639 0.00000000000000 0.00000000000000
0.00000000000000 9.29338976630639 0.00000000000000
0.00000000000000 0.00000000000000 13.60181531321965
PRIMCOORD
 96 1
Ni 3.627460841490497 5.5171786614431975 9.74130670604942 -0.6489394959300243 -0.9181666499268059 0.3549688164399758
Ni 3.58924642388626 1.6823265399779563 4.896149767104774 0.5789260428553642 -0.5335481289411973 -0.19449392684894892
Ni 1.4943677374376625 0.274052762823769 0.6089121731145907 1.5714289416019 -0.5446753492026103 -1.0685252770194371
Ni 3.1300321687602506 6.681956340433813 7.842466494968235 1.999632289156995 -0.2616915077413687 0.30661870727136226
Ni 1.409742132694428 1.5926453313493365 2.7118621683397643 1.269723612471755 -0.9959751735658523 1.3975082109186125
Ni 0.5997256575985918 1.3404041536707874 10.825344346444739 0.02837469448795113 0.15154544831188094 -0.0496261476675597
Ni 3.6627292546247574 8.79787526069953 13.199336975636191 -2.8192166732325123 0.9491096193625655 0.7385884638474247
Ni 8.175032296731644 2.9260422693407477 1.2008741331288977 -1.6379657489818695 0.8638286986058734 0.8655006869916577
Ni 7.018330573212351 1.5519124051919022 13.196657691444726 -0.792126544974881 -0.3017549514211577 1.0888981842488341
Ni 8.452170464867818 7.878489531329505 3.6114455433734296 -0.5969502473469267 0.024074267340384346 -1.1639435433204468
Ni 4.602922883074521 5.135592088770541 2.6771773800658023 -0.6621107432046597 -0.9034154597595602 0.09237845103342156
Ni 8.189864546365973 3.8730293655114973 7.2075068097765165 -0.09830021583449522 0.12578916528338335 0.14125280813662122
Ni 9.312812679238721 3.2751670325066917 3.813486619015791 1.1835296929824906 2.5318308460488335 0.22996872271679103
Ni 5.903049486673138 6.937505964772652 2.276113721689119 0.8610555067361108 1.2712835007597074 2.986520927040547
Ni 8.714011713894902 5.414598228195248 4.808432251676488 -0.4287432792189648 -0.4450042211625174 0.534981261843298
Ni 9.275016464161768 5.358921531729543 0.4619502289933946 -0.4873047817029414 -0.5729531131013811 2.869001972185756
Ni 6.323882043183998 7.621536605176893 11.112900404205025 2.418909280756737 -4.176977171939542 -2.2073260025256696
Ni 1.1123072019007516 3.9268938510256404 5.924270941585413 -0.0006664299394053039 -1.332934183691969 0.024476387874809456
Ni 5.911413537218812 2.719877716779369 7.029376695966339 -0.9400791337291811 0.2906758107888607 -0.45485566003530054
Ni 4.576873512319493 5.376894947013247 12.487948455235996 0.12799671445766342 1.4980738257485169 0.2361871928226771
Ni 7.956498242752162 5.76400179304605 9.964281141529705 0.29461756904542813 0.3014690447496227 0.4134349309966686
Ni 7.36309673670505 6.2363290207497775 7.8038645430220495 1.576789177472549 -0.9048231387403642 -0.5662543609249668
Ni 2.5010462743360415 3.626336341361579 3.5706940304370054 -0.7422934235028378 0.36574688089208623 -1.0970179851424913
Ni 4.019837039367073 7.209040219043223 11.244089607674978 0.06875335541531385 3.2372888458908764 -0.2664321077501476
P 5.427330171803665 0.1562014319573178 0.6490447463106355 0.3810194907804406 0.20458010744035732 -0.25345112210944737
Ni 3.4883759743054275 4.491978399280898 7.165572248357353 0.541021554500107 -1.6132667035732926 1.4506536845933402
P 8.77250430737765 8.230904154376748 10.699296246043529 0.43639642488884844 0.5285532468297671 -1.0888729874378538
Ni 7.002950013597806 3.8934655290114284 4.020506163410727 -0.32085310570318937 0.8045357172725112 0.8649784959396006
P 0.42638071003948996 2.0118608380880323 6.818807076784238 0.008077120581179638 -0.058936626435208174 1.255373000177038
P 0.1959241666766245 7.768502266653888 0.3735905403509914 1.261431804776608 0.4598286877698597 1.2140425168593671
P 3.722745963984719 1.7101695349055568 7.931435829961524 0.9385827516893125 0.7564069800860843 -0.39878324252176484
Ni 5.416205984577918 4.270098725083146 10.839231458367408 1.434906963282045 0.0031642566605945507 -1.3596235200576972
Ni 7.6025780906066975 1.5166161118891563 8.42946671433106 1.2313298431849051 0.9249461347424844 -0.6736192580648915
Ni 6.2651385281848775 5.362843342096515 0.42558147854290335 1.0108531191189494 -0.042920196402293824 0.3634588561888579
Ni 3.650071658132304 3.2801947562235916 12.243401274720517 0.11316067788609543 -0.644454206465161 -0.47498122714058194
Ni 7.360764095941756 7.9677060704833655 0.6386380087539176 -0.5782958654705331 -0.6922093623622531 0.03647649765947911
Ni 2.706523116074776 7.023971660635934 3.6327590028417074 1.4573318679444645 -0.8047792007418849 0.39660448970289114
Ni 7.890738218684171 2.0441460731943355 5.650493263090702 -0.02000961035270747 -0.31537125665301163 1.7037384245023046
Ni 0.5075919234821903 0.31689621773556176 8.679997908342491 -0.8984151783314915 -1.4853111267662098 -0.0643012331812312
Ni 1.6485822427209078 7.224931915080004 10.077870523973658 -0.6439484704733361 -1.2428972363075304 -1.928063832890389
Ni 1.3019852814976562 8.654980103821432 2.881789007242534 -1.2435909199404453 -0.6876356269486416 -0.5323404817863413
Ni 7.222469166863778 0.7973449385191396 10.762354681785267 0.7158642827770316 0.29476000816056336 -0.0773035589781701
Ni 2.3991907254687175 5.769075983710425 5.710898436131562 0.4790723664908201 0.38516719440022695 -0.8334917381852291
Ni 6.3944653363999935 9.45425806735557 2.4944777066408386 1.4173650977435395 -0.40636285464123567 -0.09716455956815524
Ni 1.5390782342990397 8.513135099956289 11.834639901824966 0.07895909230372208 0.8926654203319078 1.7373537985639045
Ni 2.284138563518219 0.5794707151938169 6.9953452329738885 -2.036509621799319 1.4994843329427985 -3.431704354093406
Ni 6.161535822092457 1.8600904942420227 4.153137700930334 -2.941614039225527 -1.2096328178274458 0.22880401298472855
Ni 5.827299068897814 3.3414381929969186 12.944194401757242 -0.8557410365017326 0.17703125128781122 0.9521214096056959
Ni 1.3538981552178087 7.706952148027219 7.353685321163267 0.4133467421582365 1.5368848850784433 1.451924580885964
Ni 8.537836929234512 9.45239938945653 12.653809436234619 1.770873527587905 -2.077985372445602 -1.3557992612156005
Ni 3.5788750012096244 8.123965121455553 5.88641617815464 -0.5622506390822123 -1.3138339725274082 1.0337889019795163
Ni 3.0376279970095394 8.970936759879029 8.750646255284956 1.7544866015894494 -1.3661088706717246 2.8007224710830667
Ni 2.6529838991929644 2.4498675783860095 0.7812831734545962 0.275550525111648 0.5388284035035301 -0.0372704543156842
Ni 8.30627354318277 1.446813463390756 3.486104669912802 -0.8048753600001171 -2.37444590823704 -1.8018704901900517
Ni 7.221623468419715 8.45403843615635 9.046784758244051 0.17614010693210957 -0.7094573508094233 -0.8420393706449241
Ni 5.487727910132929 4.665774076230516 8.416245009096247 0.9491504999028297 0.3504045941080611 -0.14511537641582103
P 7.24626953736097 5.7196537383749835 12.007900279539662 -2.0688692690769463 -0.895784939797496 0.5200202696580916
Ni 1.586000557860273 2.3550192451980623 8.810194577814359 0.570295877984192 0.1295792284534349 -1.3213907018287439
P 2.59784621931798 9.199303219944424 4.457655123858298 -0.5009933349336274 -0.12959156974860908 -1.0515490541764148
Ni 5.621060169220473 -0.13283506274955212 12.125351065318869 0.9347860036510418 2.5414442007688813 2.847173306346438
P 6.220316510649558 4.67723282547809 6.0382813145735 0.023966538117926463 0.5751148966393901 0.26007608362513274
P 6.824414708005639 2.831379803942704 10.339936673026527 1.0978399668231544 -0.2656201533718135 -0.8822174855257063
P 2.369089436893785 1.6037602251855883 12.258404522721557 -0.4080366427992328 -1.154905858598211 -0.014542159480233019
Ni 3.9278975370911215 9.027561382073245 2.2857853521367675 -0.9541181283207504 -0.2330802717625792 0.23975794089307093
Ni 0.5855829774648059 5.764169074056962 2.90819059745943 1.4711877999909502 0.14578206346554246 -0.5640897491734802
Ni 0.4826633355002825 2.259204399502614 13.025900023521084 -0.397132080071587 -0.4261706333957822 1.0403575563359697
Ni 7.621304270439513 5.387517291206254 2.364375829741823 0.5319897833151418 0.21916520434338382 0.21519773505520357
Ni 0.2366236366318761 5.8479118067981535 7.052636191194909 -1.0809336779861192 0.23850452810194409 -0.4421929769659675
Ni 1.6310177365749916 4.360318950302488 12.885937860367669 -0.728709514170816 0.2285448457860709 0.40921677915026294
Ni 5.2750858650934 0.45016063507979176 6.551763388317744 0.27595804496271187 0.022996718005489424 0.42829127928321076
Ni 4.689165537589918 6.10605428680615 5.005263453167844 0.7047992832121216 0.3821438341928709 -0.06113954762379793
Ni 1.7545268829661167 3.6152400343043176 10.781124540548708 -0.04746230724702149 0.17960261155941326 -0.9151733716264367
Ni 8.672089233882083 8.337824600518953 6.639508783914517 -2.675243637951251 0.851712889178946 0.545502473089596
Ni 4.7865881396680345 7.2075346899450015 0.5071718622770075 -0.1961322337833203 -0.7382274809635802 -1.0836425922768498
Ni 3.854451879910605 0.4747081940923966 11.171646707220994 -2.1733511882421217 1.4779940242795062 -2.6102386938347757
Ni 9.122800037619989 6.58183865540209 12.272822287184402 1.184829899851153 1.1062945253484107 -2.8242449796850395
Ni 3.2817560456587844 5.0495724756030285 0.6086482408529272 -0.049071817825986457 -0.022170622559768267 1.946676305785254
Ni 2.4030381887197283 7.292104534351265 1.2801578975902945 -0.7853930829057894 -0.6079036610346369 -0.808494187699627
Ni 5.574026324985298 7.108606558768663 7.11551712319729 -2.1984765225548393 1.1705582204234872 -0.17024636715549388
Ni 7.023497697771679 6.936223477022315 5.218948216508732 -0.5402810767896566 0.022101716995045807 0.3839811445119258
Ni 0.8245569123000165 7.295886943875809 5.237038728500076 0.273851025922038 0.6161507315347776 -2.2850820756602257
Ni 1.5410948998194967 4.772183385950485 8.448373185920081 0.22745058428062767 -0.22394077135515625 1.2291935135681928
Ni 5.412432868442869 1.2457974486097148 9.080789270406967 0.21136833400678434 -0.8235649659898202 0.7522569624734528
Ni 5.212838742254592 8.69361272395295 4.358429604218115 0.5092288354695423 -0.33309361363343926 0.1747985053025506
Ni 8.730033517384616 0.632973687856597 1.3708455803012438 -1.0147159445084655 -0.7433622310869843 0.5743019138197915
Ni 8.951374174991646 3.5511435269559657 9.64325122414668 -1.183122430241743 -0.30025085607180546 0.1987151640191481
Ni 4.846716369701938 1.970077758917641 1.8225070977845097 -0.6210828787290723 -0.14975313229814854 0.1045798781956199
Ni 4.0571314114112855 3.861328988137048 5.112310289407182 1.6812939794558595 0.568412287808234 0.06463547659219836
P 2.455852521220914 5.9569883193032425 11.752988181720195 -1.130260292135389 -0.7645365511717542 -0.19120908545009005
Ni 3.855743661050437 3.075015302948704 9.568088148587451 -0.6112473806958892 0.11437295302664173 -0.14416046870171947
P 0.8424727085688509 3.26619891164383 1.7652570304772675 0.7620832045352554 2.970392911130433 -0.9337855874109854
Ni 8.067368379429823 3.7042614122787785 12.562187767879403 0.2965304697974248 1.1399343248900433 -1.697325578997425
P 4.910980158061204 7.497757950490407 9.150090075872626 -0.15340358456654227 0.03773710953945759 0.49278971607691263
P 6.051111768110565 3.626866064562805 2.0227935814901783 0.8341507119254666 1.2196153829614542 -0.1335217580409507
P 7.409535804012533 -0.06598771211062333 4.967409619076021 -0.9986313802417769 0.17183865134327822 -0.24953893153923476
Ni 0.5807290401314661 0.7004873745223311 4.99378425846338 0.8612010311750394 -0.3484664965450837 0.6502070497885383
