# total energy = -381170.6343971765 ev
CRYSTAL
PRIMVEC
9.24507726685747 0.00000000000000 0.00000000000000

0.00000000000000 9.24507726685747 0.00000000000000

0.00000000000000 0.00000000000000 13.53110508677287

PRIMCOORD
 96 1
Ni 6.713026214002799 2.8247963592519945 10.624353045131365 0.6390325212289575 -0.6674205854533473 -1.667884905138805
Ni 8.504232186969213 4.942196391193125 5.3007972192896275 0.8306856361950017 1.1631405878031775 0.5442259203700176
Ni 6.222186575109124 7.413091195091208 12.365562565088416 -1.4686292952351545 1.278008735298683 -0.1105803187534289
Ni 4.819828549326239 3.822811688458111 6.737218732029187 -1.4318296099083017 0.28719787954258924 -1.2564454073056104
Ni 2.751556857645054 9.323937712149444 11.585818886120757 0.6908605616438425 -0.6156447384326365 -1.011629849383974
Ni 8.744807585961363 8.77592651582869 12.18710114179639 -0.3111297077678384 0.8356085274179158 -0.26523345945635607
Ni 6.286523067368995 8.90726208258307 4.53622193848992 -0.9103931766289741 -1.3496707797203593 -1.324488881138093
Ni 8.672899375471742 0.3847708681367414 8.003107399686531 1.8756215559302731 0.2522648151108301 -0.3490642780300827
Ni 8.776046701832337 2.660363416108717 1.3501159435207666 0.12211248776274454 -0.7912901651165146 0.5812757740344634
Ni 5.865964505377107 1.8541187233369314 0.9203289454642429 -0.4322579772404426 -0.3089239583657712 -0.480481845243837
Ni 8.266948035461546 7.026415841050524 8.511660606502309 -1.9078742453163917 -0.14134048275442113 1.010662343264382
Ni 3.762690951403083 7.631543124335135 7.0667955647527 0.01776837972701456 0.1565048491996853 0.9818937557721219
Ni 7.439495135584696 1.5834136177382405 4.657528445493832 -0.2510761941193676 0.5606550124603183 0.9029714302436062
Ni -0.21269409516152477 2.9928995980451027 4.274584404612522 1.4856736523119511 0.19678863642039657 -2.066019458332977
Ni 4.313549631502547 3.4412950874970383 10.74515846895084 -0.28856699197597396 -0.18594706572020234 -0.08099849133125406
Ni 9.026366412197083 1.7997391792253403 10.303530376011944 -2.0324886735653833 -0.41892629312854307 0.9375311704963467
Ni 8.529619168970306 7.540146291100319 6.285915665796718 -0.2910401361068149 -0.20017349373222945 -1.4729544049730696
Ni 5.479769895351011 3.4477481513851527 8.699444765646446 0.7141953797150409 -0.5160983088958659 1.856561196864712
Ni 7.000039635788645 6.21863646546294 3.8849829836368985 0.6444634624365416 1.140199919846604 -0.3005982121088952
Ni 2.0784690118367584 7.769017422352708 5.375989281201969 -0.4283175045354559 -0.08652507757643808 0.22429661203267823
Ni 6.116635528675592 0.6694508324363984 12.21655780678251 -0.3080968344787855 0.24604428812241497 -1.6847860517695177
Ni 2.067282468420399 2.906263979570142 0.8143942283267612 -0.8108202647296422 1.0266854581655156 -0.6383123552334813
Ni 6.615204052111478 0.5557326848012034 8.889665002633732 0.9591456634423288 0.18290725045261402 2.091391875659495
Ni 1.9972325184487014 2.3020981843147044 10.57017411919509 1.4013993184429026 -0.2766293599981236 0.17352040992107534
P 5.852688574512733 2.9209821424782776 12.446924791526442 -2.089052686003357 -0.5728574680637811 1.6300264395301347
Ni 4.354505323514506 4.052422425886788 1.309957177163757 -0.2467356577624847 -0.1132702068807662 -0.495108079797444
P 7.237786041156492 8.31535525969961 10.563503795992691 0.23336874953727554 -0.38226647581366424 -0.43648641349949346
Ni 2.9624000883504173 0.18784979919228317 8.901748318538843 -0.3558918424748774 -0.03544162863706154 -0.14840870245511215
P 9.381811895443999 7.387630252472485 4.164197258293786 -0.45915711562413175 0.32366409278942326 0.9685260762159643
P 6.1889227873305614 6.1412459241915816 6.010056429657019 0.11637249995517378 0.47789788656674465 0.25828016806697457
P 5.757020515609853 5.512617654655412 2.0581483321432397 1.1583189980448179 -0.0922511814269379 0.5939579974878222
Ni 2.1603064352430494 8.399383766403156 13.782513020729466 -0.8670957993929195 -1.5877433624912074 -0.14863624508488596
Ni 1.8187747931875582 8.58987858218339 3.145386976933606 0.26379698412014563 -0.45905864237305455 -0.5853226904103274
Ni 4.801245944146997 1.2517187378273824 9.84069869850658 -1.5519713470979206 1.33167228626041 1.4559858954395313
Ni 0.81341609915862 5.228322285567425 7.400864580489443 -0.11451719191398986 -0.28334610989666686 -0.0568576324189924
Ni 1.4164660135955824 4.614726511564313 9.839603156857955 1.5350588876132982 -0.6637125404741407 -0.5313398084359688
Ni 7.43914382265096 6.441572257150615 0.7588988033966952 -1.7492101836818583 -1.2140430310799994 0.5265272175386739
Ni 5.01768244656054 8.192728555671023 10.222600819187045 -0.8181533080559458 -0.20916361304598172 0.5304054695471575
Ni 7.166756113001213 4.890618105474225 7.520872154146248 0.3263205565756638 0.4260209951917953 -0.6479604198462066
Ni 2.3962038251701765 5.638239763697965 0.7743390068344321 -1.0289590846910408 1.1215673923470812 1.6428032795798286
Ni 1.3800404094133878 1.6764468296380943 2.7948497051740846 0.9918716929204402 1.611090264747264 2.3695263594482356
Ni 3.422240983380413 1.1205773176942777 1.1585376046922706 -0.9611176995670351 0.24090902377837864 1.0507841509859324
Ni 7.155079580493062 -0.2917774100688627 0.5507486636807413 -0.3976254747682378 1.265398245623524 -0.6869157180634815
Ni 6.9603690095079855 4.048826090854587 0.433195658021492 0.5660419878038444 -0.19354081890706024 2.1536758213003813
Ni 0.12424921507781866 4.852482162009363 0.2676533056137818 0.11696796744732758 -0.18042742145355378 -0.13212616324500473
Ni 0.8432767740185365 2.5852841441382592 8.536043573119091 -0.2569197973843382 0.43133649386743783 -0.5755463277498539
Ni 4.7984354406771015 1.3392603738682962 7.440876350118915 -0.45693825359594215 -1.1143613615169454 0.09715916025151654
Ni 2.687100179381536 6.883597888409269 9.18994788372991 1.3985657056488494 -0.3953055683858095 0.475719133747871
Ni 6.749100505251257 9.263197554921774 6.7503975895829225 0.051022513794454064 -0.6095903047084406 -1.750566954820069
Ni 7.953438222410175 2.238602994080361 12.606145360142328 0.6453587205573015 -0.08851074054789919 0.4476761115677258
Ni 3.262458314070547 4.479794609777731 12.681270857498804 1.0710920093053489 -0.8991916514861998 -1.6745126948679676
Ni 0.9908226591417136 7.671694494630382 7.96540967288112 1.754848098693926 1.2889027565033675 -1.4987135162150447
Ni 6.997913268031817 2.266689538624906 7.046323265793041 -0.2676371838018423 0.9815291733438514 0.34100258406787076
Ni 3.779443031296011 4.161273964882007 4.524909662023592 0.8622790947305666 0.40657265665919656 -0.9873956594269576
Ni 0.5898664343446249 6.676101375651609 10.134418499295922 -1.5174419458624835 0.5151459722849258 -0.25662257785889353
Ni 4.589367264794831 6.304772849768907 0.21114184669903985 0.13148107346183807 0.37041677556392977 0.2322402923597871
P 3.3836520311325753 2.846346634213593 2.8590817280615552 -0.04911706924162508 -1.2165627121780598 -0.7622179303409067
Ni 6.5517088618771355 5.812916252382835 9.91401031171571 2.1528324994634795 -0.08852231051212496 0.05603153697327124
P 3.463030264002708 7.290150158437698 11.64572143935378 -0.17475865320355066 0.6868388420789591 1.0282522884320031
Ni 8.044668644255326 4.556556485799244 2.675830430270344 0.11429222038737737 -0.36933691223618975 -0.5624912943381086
P 7.948122303018103 3.795335319009004 9.141736655128563 1.1535655425202327 -0.35910906386059444 0.2627610866564636
P 3.2415921748220162 4.641102716826191 8.628068147096032 -1.5004132725149708 -1.4630482016029513 0.28670654172846755
P 1.3415993784008078 3.5315547762358115 12.303982954850659 -0.5808260880915546 0.16472492311663242 -0.21784777108354095
Ni 3.0055653538140388 6.145646580940497 3.1452917526384083 -1.5311006742964985 -0.9264569149600561 0.64286037961548
Ni 4.419535196564649 8.755994129377722 13.55857321365748 1.5064209121616317 -0.6773247319409367 -1.164473447681988
Ni 0.6352468203062294 0.39819749375953356 1.3367752971159679 -1.2707605383767018 0.22120794580502545 -2.7143989679944736
Ni 8.411578023234707 8.220759629752347 2.2095891682922946 -0.7989222277404757 0.30084066713700447 3.562853755247438
Ni -0.05201372885518923 2.4570826585559002 6.463944419475614 0.8313572083407295 -0.17619050055407073 -0.023469286766533773
Ni 4.4572088861693295 5.789100933506354 10.607453044003178 -1.3520202537891426 -0.519067418826519 0.045413652248108886
Ni 5.994961067598976 5.058018718399859 12.267692328795636 -0.2895974901230174 0.13560435160159226 -1.497526437885479
Ni 5.710832109900654 3.206664273146805 3.1055776744948926 0.21564099324020924 -0.6069729216902514 -0.7791931247426644
Ni 3.7084223482179346 1.9659471771917099 12.586227765814886 0.8038096377397641 0.5055835254074711 -0.23290543674761177
Ni 4.062952568821691 0.6334745390062987 3.29954679028824 0.34419949373861364 -0.47873349509416263 1.2106070088152572
Ni 2.898978858733703 2.6736578371274975 7.419037628748565 -0.2227971446690163 1.2054468047705562 0.4747128039705438
Ni 2.7072636927625937 2.1882358134751336 4.923238435879417 -1.3564898595247221 -0.9630539973577995 0.42760170941535386
Ni 0.9447082140501433 1.3243018389528671 12.549747615677191 0.8069975485494424 0.6057891857947955 0.5939906504979706
Ni 8.798290357584206 4.420431969053397 11.183729214858507 -0.6248076358788273 -0.8962459385943146 0.3754435393545598
Ni 8.179147537258931 6.500417173551547 11.970981745530931 1.3158340336765726 -0.7066031691900798 -0.3181647602377488
Ni 0.9159550994392184 8.944963507419363 10.088237489648485 -0.08849222860513792 0.5215025106305728 -0.31684732697790596
Ni 0.21830215899323016 0.30279754209555715 4.887746584494786 0.0118206467840119 0.1734713018506948 -0.05006683474940409
Ni 3.0384685835816607 5.5774903613930915 6.094396495462325 -0.7144303785439825 0.1943005798912202 0.8877286451519227
Ni 5.108617025935176 1.9330439474240877 5.180058360026017 -0.25561264853714044 -0.7687598452244825 -0.07369887234604727
Ni 1.6041133455971068 6.144389250440806 12.029761021883717 0.15460840350792085 -0.08575323240742005 0.9508587408431881
Ni 4.809381612086167 6.655586549336816 4.394645599717109 -0.3032896428981293 0.585399823505166 0.9591374359122126
Ni 1.4718810063539771 4.2587725490712005 2.822385243117295 0.022926783999502452 -0.8604312428885504 0.15265873598071775
Ni 5.702946059045981 7.849477329255662 1.9866635461895428 -0.37698851524417654 -0.4076643470614786 1.400718233215478
Ni 6.298449216961642 3.98657898604273 5.125933980045245 1.8512295002391537 0.9807614419398916 0.026522471770560774
Ni 1.806404879889138 0.7488475554609384 6.737042151054598 -0.20499816881438243 -1.0802741900252493 0.2645783423708605
P 1.4533261364063466 4.305940932963981 5.085260262887994 -0.06419761772383137 0.09049460374714738 0.8318068942836384
Ni 6.001774689498031 7.6239898962597925 8.208766915603833 0.9213833570918906 0.37108834770965765 -0.908747413495435
P -0.028364821368373483 7.423686053566536 0.3965749827103013 2.0051964135083336 0.33967152396127304 -1.4240473948597216
Ni 4.828824009445344 5.77466936799153 8.148539860160964 0.49216031002302985 -0.08735605811816569 -1.0610024862798308
P 6.81308568457739 1.1921896857133845 2.7052464169167676 0.03199249374619652 -1.138198573145859 -0.24180479611977065
P 3.803637398337839 -0.023782961106267982 5.770082885190823 0.17477407982251836 1.9791169428124624 -1.2744395298901856
P 3.5139613943173553 7.7074082278679 1.9742557280745876 0.2945021265134864 1.8000396076289 -1.30085684354145
Ni 0.5901086553673593 6.369118587105981 2.33034004615627 -0.03870281588683657 -0.45167494831447375 -0.2736728484729609
