# total energy = -340896.76260510465 ev
CRYSTAL
PRIMVEC
9.01414387153364 0.00000000000000 0.00000000000000

0.00000000000000 9.01414387153364 0.00000000000000

0.00000000000000 0.00000000000000 13.19311071962104

PRIMCOORD
 96 1
Ni 6.322177882264847 1.7948782733607063 11.245741052838909 0.31690646235061554 0.9233422805904743 0.0029696241512852085
Ni 4.637677799009012 0.526398952025659 6.218282664338287 -0.15023187170677998 -0.26610789164150944 -0.7760311820749152
Ni 2.4718224399997966 1.5707506033919412 4.6624053981185005 0.948145198566767 0.09716815911258105 0.5305754194661185
Ni 3.233517586088948 4.285522245491085 4.771327804009249 0.49781622275722653 -0.1944643591625941 0.011608016552573555
Ni 5.146147619134418 4.514247128767607 2.7008015221298067 -0.5922664687180123 0.7422571709482636 0.1350281673831481
Ni 7.233057107262584 6.166638832019069 2.5128656392799518 0.06720683686380038 -0.09569131745673842 0.13410102758318843
Ni 5.037238734459281 4.597519788644194 11.403438990510585 -0.10299736419984842 -0.22005094938244682 -0.22797406088426542
Ni 5.697668989765409 8.018017758346483 12.253338434516861 -0.4674916036317561 -1.0781733416321626 0.13121830671875465
Ni 1.8762399347642649 6.288383857380963 0.44555109681532057 -0.08594940757862618 0.7299834957872332 -0.3670298613695679
Ni 2.9835283377281145 1.4672862615361864 0.5500827132899743 -0.532272090442251 -0.6724036404902355 -0.2763300835901499
Ni 0.49743740960116395 0.019945595855046936 4.625992764477942 -0.18644277440969828 0.009983593575273128 -0.28037031509779453
Ni 8.455978946132133 2.270536610269965 1.3555920064451723 0.23111723449893748 0.9080331610372298 -0.0032061656421235106
Ni 6.865667650822873 0.9478282001908664 4.894433063661616 -0.5522649886244102 -0.309501428135796 -0.9081210927653456
Ni 0.703741413151443 7.373109858561841 2.441385282244949 0.19653229743521639 -0.060245832164934954 0.06457505566790814
Ni 7.501732675597889 4.081892738388671 3.7665139899184257 0.9781371169431669 -0.9193362447548747 0.0962854993973116
Ni 7.5601533411813655 3.7084007066365063 12.556001831826475 0.5332516807467009 -0.3803507468481901 0.24678476583286532
Ni 8.137932912529015 8.814282145681219 6.653022197151011 -0.3941863671797018 0.058058594705629046 0.8382472505923435
Ni 6.734088194639875 0.7324108973187394 0.33520535762791537 0.035856604687293084 0.2206513019706071 0.13097919412475506
Ni 1.9219506576733545 6.58026183170483 9.160583914253936 -0.46779165137067824 -0.926328874022624 -0.3043345392228759
Ni 9.105547158230717 4.791053454757023 1.4315181391730887 -0.11079012077138983 -0.3941711976710502 0.199038865907154
Ni 6.435747079253926 1.9754225583431873 7.033827403720006 0.08413755118086799 -0.4693780220211916 -0.1013199764974255
Ni 3.279742115191258 4.256568815795957 0.35879086472545696 0.699531349944963 -0.29763527282582936 0.2947147567449247
Ni 6.070304677862207 5.6396900172252264 4.922626601039402 -1.0455781813049605 0.6770043724870405 -0.9563642440424498
Ni 5.373935031461908 3.1128272155447156 8.984086078396654 0.06433260063979888 -0.9653397080681828 0.7745921356355434
P 0.1508733294455925 5.365434693914428 12.47420478728024 0.31495010995519307 0.8648743662615687 -0.345789721043869
P 3.984359703114297 6.069087768457213 12.601966753589052 -0.5386299143394788 1.1111605951914605 -0.2854132768383407
P 2.3777959066405545 8.30372104420797 1.3894851869102045 0.7717698356953999 0.7755457577980643 0.46965750093482345
P 6.336663611256151 7.789337945788663 5.87962849531518 0.09284767736035622 0.059847568285251763 -0.03278902150556289
P 4.661159643453536 0.9381740522445766 12.462766740287666 0.31783925857753004 0.9734569378586783 0.5878053476228651
P 3.9830346239844143 6.030948926290311 8.094500965157573 -0.51493051384001 0.7396683271751648 0.3507066987295121
P 4.821070553413555 1.1864235708634552 3.9715884642624735 -0.8867835076298342 -0.9752752220143398 -0.3272420399486687
P 0.2968871340005736 5.582711614640261 3.5268747814006636 -0.3419893734611723 -0.7816457000482151 0.5743913882098043
Ni 1.2746810522286491 0.971634553810055 2.514923568295954 0.7226579086600974 0.3712032760209672 -0.6664985878597102
Ni 1.757090982799692 6.690631007665961 4.746933728218166 0.18115530075851383 -1.0737610714970798 -0.4212112325079778
Ni 5.968607108179629 5.548367726988195 9.15714051134499 -0.1659063450192433 0.2298751345617202 0.27175686239717073
Ni 8.640435369498078 2.1877777565865983 10.133614758929426 0.004267774137418457 0.17801649801921599 0.7299397870334914
Ni 2.2737817020166173 5.266792918959949 6.931383462935699 0.5737992631517601 -0.537412754102926 0.4877668089410244
Ni 0.5956239702967389 0.03885456517991336 9.029774265946392 0.3238474124448229 -0.4431887652203335 0.5143694991302173
Ni 1.6945959242454187 1.1336637875491378 11.554486292930372 -0.5813176830159924 0.201232274014047 -0.8736081465901405
Ni 4.1223211730657106 6.859673245235308 1.6419352965122493 -0.13365776939818272 0.04714554733755106 0.3193484961332048
Ni 5.605301058854455 7.7200011521351986 7.963744500298102 -1.0233841617064248 0.33187516784530585 0.14652279828630896
Ni 5.127848907340798 2.922845122065722 5.129877089682456 0.45792427165829525 0.39003943489086373 -0.4294552176843249
Ni 0.8846336440823148 7.274134560288954 6.98935342133214 -0.2888642115014186 0.10500205333470304 0.23532664459459468
Ni 5.230276622666373 4.606398720228783 6.9478613176936985 -1.369500669962093 -0.5224982988849388 0.4496172944544966
Ni 8.082973678141967 7.239078555281371 9.10603031633522 1.1479445967890294 -0.8035083044492614 -0.3847324208556535
Ni 4.542100832926369 0.23696831772739246 10.377925096733618 -0.3142579689841749 0.26584332512621317 -0.3904461834109792
Ni 8.194054971458613 7.0957446556605 4.721154178534139 -0.42534376661911266 -0.2308675803819766 0.14893500727222736
Ni 7.161169310930501 6.072134549041569 7.05671792033514 0.6576141408858867 -0.011882610370198889 -0.6493110203368302
Ni 2.468433121953293 4.978854125450767 2.5372065316229637 -0.5047108929945308 0.8956394153585671 0.42955857603140857
Ni 2.284012755162312 5.132950912698034 11.405272467347443 -0.3530949964560306 0.45608696133924037 0.22409040955914308
Ni 0.9580412250490795 3.3410743492029806 3.6578556984392794 -0.37222323264504925 0.31095770096634834 -0.13603115472636573
Ni 3.620648017320792 2.6011573743913603 2.6664468175052507 0.25935951717408234 0.1346450730121165 0.3611417780199071
Ni 1.1453911885557888 3.2470838724187017 8.283439220791395 -0.7542588233948301 0.7717870620865805 -0.9507497260691496
Ni 3.5447669553115793 2.7219739429479626 7.133594143813325 0.0744815161483427 0.3120319078671336 -0.23975151313516777
Ni 4.004803781118205 7.1552109619178985 5.784479701060221 0.9110171833662182 -0.8980667938531373 0.7377322864947166
Ni 0.6270229371887193 7.223186619866517 11.338634508329944 0.46427566779761975 -0.9402776228932324 -0.11031369535560356
P -0.043472511018273985 5.467105221165784 8.003640199080065 1.9235330348995714 0.20604332224944516 1.0621875077268674
P 8.48349912697249 1.56339506209953 7.948281638125304 0.20723811388849467 0.6399331786663559 -0.23123164858961465
P 1.7743710963506139 3.2195907340095666 10.369652817022777 -0.3749275189500898 -0.5374983718381969 0.9829808181887136
P 3.894849255769146 6.096517807860163 3.8682331935459806 0.8607971108684014 0.9054687427441631 -0.7753868636226969
P 6.891628384796089 3.938802220648799 10.44755845571615 0.15668714041382048 -0.7637302532203749 -0.9134499611774268
P 6.326333402529309 7.599382894740892 10.135805195858415 -1.1066043432793458 0.32838026731817 0.6416514469090433
P 2.3170676202594587 8.548446032624234 5.71697097575737 0.25158218722150866 0.6688100096017062 0.8519553442070553
P 6.938501932247729 4.0661900999923715 1.5230522617880269 -0.6734554787935176 0.46119137244534125 -0.40272268678548706
Ni 5.232557201032769 2.919654115181514 0.3316060100322538 0.3382988119834625 -0.2560219681604171 -0.1325524521491459
Ni 1.5098330199922905 1.1191329878391294 6.983535692961893 0.07978338797723034 -0.00048593849748303404 0.17289228941877322
Ni 6.877917872166484 0.548276278884338 9.067968094390114 -0.1432073607598308 0.05657943905694127 0.5668210320617141
Ni 2.742381964376907 1.6506700017969875 9.20471445776528 0.30470477807810104 -0.8099867130847533 0.48609019256954994
Ni 6.100619243262181 2.2387256970090346 2.4521634939157035 1.7118949921711677 -0.09319503339744596 1.0138723655612474
Ni 4.124087945238888 6.945641134090364 10.337210913699998 -0.1588458386280361 -1.4441955876728225 -0.17728604761109468
Ni 8.118525461055286 7.268320437576203 0.34363718768296614 -0.7685832104373022 -1.4172434845640107 -0.3021259616073313
Ni 7.570050871008655 3.6708658121002316 8.12819583446031 1.3596312333671812 1.0426571510034237 0.7434625041102744
Ni 3.1092305721921765 8.19684034187449 12.340466443671344 0.08221719422970357 -0.15991773153597622 0.7982084895029027
Ni 0.06926377908916488 4.701777375149129 10.243658524301518 -0.2718278248444222 0.32589118234772907 -0.26441482020980267
Ni 8.866879674408203 2.1885439588045577 5.644527006756486 -1.087155747636431 0.9321758197217044 0.027176046194159646
Ni 3.6058738357297844 2.781530390642768 11.613789443186064 -0.18816849885155335 -0.8351560132615294 -0.6748927254606764
Ni 1.1890196442607768 3.218770446929163 12.779202847818697 -0.9458425185755196 0.3865365639439278 -0.9656767796926272
Ni 3.1452150340050506 8.496975271864837 7.920879542567951 -0.2525064988079909 -0.5887412291735732 0.4673465934134597
Ni 5.757721215365952 7.970125612652143 3.8335882334929745 -0.5753840911403768 -0.13822481994357486 -1.0764740995528685
Ni 3.172140281358522 8.460612216014853 3.6499133363893486 0.33548242558058994 -0.449801899661477 -0.7253621949651379
Ni 3.4080043664776785 4.236169808510752 9.442731120409716 0.27427628638491475 1.0060217591685772 -0.9880703168964791
Ni 7.122201167539455 5.955212090580949 11.42285906178555 1.2317039386948725 0.45637801021709784 -0.35909363724162674
Ni 0.6378164729038335 -0.19576737093177488 0.14030064025212546 1.0111246276127812 0.8201009187006199 0.2656178393789684
Ni 4.778731120263486 0.41717186807647466 1.8990826764175728 -0.41068565038630556 -1.1109631344686737 -0.6528650562366756
Ni 5.960458322238036 5.780274603005184 0.27999372721612775 0.0322460045178993 -0.7246479425069327 0.9279139591215568
Ni 7.910361839651302 8.684821013277285 11.319966216642955 -0.06999802645569235 1.385438424238272 -0.039927432322557035
Ni 0.1575474014712068 4.792955439086311 5.874680631815909 -0.9119216974583585 -0.11751458397941698 -0.6936625498690118
Ni 7.97343380340498 8.906208383548877 2.3530701103598144 -0.8650389168638909 -0.009095791653681108 0.4436713612837068
P 8.339687477733362 1.7460576708610753 3.46213610246933 -0.1224269336793698 -0.41244582761052195 0.949054597754914
P 1.808381460684275 3.0831616684940717 1.6098891140996865 -0.26990618234167707 -0.5520490159588621 0.3720311712389012
P 4.774052779662063 1.0673647603362892 8.376794200441955 0.042258908669211094 0.4466379001111986 -0.9428726373139181
P 8.60698388207634 1.5439966247695434 12.500920906498928 -0.4839597764901084 -0.32033965640188056 -1.370512399056059
P 6.23105390319011 7.732044048172774 1.3760153519184763 -0.18347212181714856 0.6810975687198078 0.30510124218557133
P 1.7660239992467257 3.238709732883591 5.882438203919155 0.06912462271180352 -0.09689047997116217 1.1450837303014667
P 7.0267323711817005 3.8821483272384993 5.954486452009823 0.008033926048070034 -0.05449735971693195 -0.2955421377422265
P 2.224988141948208 8.36025775374964 10.316828131873528 0.9116936406079524 0.7184474701231757 -0.4239561422429666
