# total energy = -340896.9442072137 ev
CRYSTAL
PRIMVEC
8.97759922574982 0.00000000000000 0.00000000000000
0.00000000000000 8.97759922574982 0.00000000000000
0.00000000000000 0.00000000000000 13.13962393652868
PRIMCOORD
 96 1
Ni 6.183106049891308 1.9252012801447045 11.090723271430141 1.8496516142290726 0.2671795274391334 2.0025985708741705
Ni 4.6250796031847266 0.43519630775275087 5.998540972609362 -0.4766064214488308 -0.4312521616837476 -0.2537617113713307
Ni 2.754830208305549 1.6020615712331956 4.559147216225317 -0.36034345048832783 -0.4124347718669284 2.5637132965797265
Ni 3.2663019951618715 4.168685387984016 4.686234111801005 -0.25825779946947136 0.23652169334396037 0.5911189853771304
Ni 4.854259757907542 4.642388414619449 2.6694595233593854 0.3433194051265055 -1.0898934582825683 -0.6175126448793107
Ni 6.9873912152512085 6.036052973490506 2.6215254274603126 0.6798521263484807 -0.11463134889435098 -0.2528397137776936
Ni 4.90662609457701 4.578144714086839 11.141165708571362 0.9255583144051867 0.3648881324362167 1.03617154327908
Ni 5.582091687697892 7.90316020861753 12.476571932357695 0.24556066361777712 -0.6324990909858138 -0.45448953494513344
Ni 1.715296031101531 6.456913850694001 0.3178222768509351 1.2634994859389144 0.5062309291834829 0.07015074998347273
Ni 2.9211941007831608 1.5756943621129784 0.27715554757863 -0.6795795894133845 -0.9921786826378978 0.2698434474245417
Ni 0.5239228193142148 9.078776835887687 5.037403681221585 -0.15908186589824216 -0.29040661628787406 -0.7408073258756145
Ni 8.564010270091249 2.3677161268401865 1.597147233380827 0.5801879402869233 0.3013548877692616 -0.5635089369693456
Ni 6.7862481031168995 0.7717754828041865 4.8478901512099615 -0.36765052567270234 -0.24332920318409706 -0.25989636351415885
Ni 0.7832587300584153 7.195177750861502 2.4552836303330703 -0.10137294122254799 0.17251947946038676 0.25506783177726394
Ni 7.507436609431266 3.925868259936854 3.7506533523173893 0.10457833553372313 -0.9038661741437337 0.4856032256308024
Ni 7.503235092962671 3.9250243656034183 12.609716014175607 0.49309696290468635 -1.0614624566353847 0.1419385213497362
Ni 7.84040678956737 8.652053586346602 6.893769218795889 0.6743149985803354 0.7369948941080597 0.5540729883674265
Ni 6.798592302143217 0.7917811650661859 0.43521156967154706 0.3534762910548493 0.3154938982738051 -0.5175340129011281
Ni 1.872736189883026 6.452829043016201 9.107835529275606 0.3996247645864537 -0.038285782954076 -0.9261026169444309
Ni 0.0745311315611617 4.850578942197876 1.3881882233030163 -0.2975887358586101 -0.32572251798034874 0.06816020191600519
Ni 6.3845903107987105 1.9128481035190936 7.031722600554454 0.3536542113936103 0.6023323375944465 -0.5954260973929165
Ni 3.2197890532307016 4.183875485985858 0.21856145028039292 -0.3868960041658756 1.1778778940133519 0.32769069745031304
Ni 5.773170911026017 5.533047062766415 4.819377295858987 0.3542720474832673 0.5088087172129881 0.057165136357082195
Ni 5.305016040752959 2.9207272656199836 9.231939168606608 0.1552493795260294 -0.04074195780405241 -1.311964523418837
P 0.18916699467895762 5.544870561033806 12.305428366017095 -0.49172913602288215 -0.7614396574139853 -0.34515080190828945
P 3.955045457635426 6.16475583693873 12.436574931992563 -0.5538009656529622 -0.3572365294282299 0.7066059974035573
P 2.263082207093461 8.457580830486151 1.246837717972408 0.8833058334938787 -0.2936955714517909 0.3064230463207884
P 6.268671548742106 7.691441484517399 5.758597574095527 -4.010920931605995e-05 -0.5451736289952676 -0.09828401788457912
P 4.774978578561053 1.000732993064563 12.423028632421063 0.4582394889058689 0.16390242721533707 1.1386490304197163
P 4.187951316064366 6.231333713287225 8.096688521032478 -0.7801362053822242 -0.16765598072049837 -0.6961328657863753
P 4.699773229293071 0.9873204597225117 3.7003024866889453 0.8738644855753208 -0.14452042314429953 1.131250166852484
P 0.08580699627174833 5.436205699205031 3.5577498808131556 0.20175832172084607 0.025917234086394077 -0.2243223230642911
Ni 1.3706100838895383 0.8035229671800205 2.7791092278304776 -0.9250718616870713 1.2346151988043963 -1.314931062246329
Ni 1.6979333540710575 6.177755400713355 4.765163369255252 1.3335990709694774 1.2661456653125098 -0.6340073001002242
Ni 6.069692038037137 5.62499563471373 9.11590279999928 -0.18512071316416506 -0.3036233720884642 0.04950453448803087
Ni 8.499739636760763 2.33827857876215 10.142028932660892 0.7212188622207257 0.5415085214388544 0.7588497851996221
Ni 2.5603125644486378 5.255881639828563 6.907474421874856 -0.940728851498038 -0.37971079927134604 0.4024879450668617
Ni 0.6182594326731672 9.10723582564291 9.144718200446391 -0.4929833201449575 -0.6444346660811353 0.030689458664056823
Ni 1.373626557251606 0.9902381794923688 11.462784612162828 0.5020068637998064 0.5569299982002474 -0.9142302909868771
Ni 4.07836176150853 6.819608862085482 1.528217226017862 -0.7463223421565727 0.5577249832977169 0.06690087558760736
Ni 5.818669384237206 7.890106779247153 7.992478343972328 -1.404141399964414 -0.30091137247393984 -0.017451619817544138
Ni 5.242127957713421 2.9975216499626254 4.738004335877493 0.7143385901611246 -0.9855776323816123 0.36106078827032656
Ni 0.9294688098857121 7.371246428173623 6.830765324725487 -0.1623019154974366 0.5512296053813603 0.3957840506841248
Ni 4.982827957366388 4.536138527000188 6.962989202615981 0.9154870462121136 0.8191501247515763 0.13591545508410785
Ni 8.084049856749385 7.088730356057819 9.11874151689537 0.18428767573990842 0.7591428909600088 -0.14526552884044014
Ni 4.526164414186922 0.3217508743010567 10.29856145615398 0.07451185516564587 -1.0217152586444338 -0.4155018408280263
Ni 8.181797957839247 7.085435577117703 4.724758785882271 -0.4639571081159365 -0.00961155494783506 0.12132701574697169
Ni 7.203778290983112 5.959330409942198 7.0060735993775864 -0.1650329412753545 0.5194579693967184 -1.0377424873106258
Ni 2.355955471767839 4.878041418431701 2.5655644600343805 -0.41356605725789425 0.6112183272301668 -0.7860209462977754
Ni 2.3187433227030443 5.257668182087646 11.269434953973787 -0.6711119182620056 -0.21052552639051483 -0.030002459899361233
Ni 0.9915668641875655 3.2606550852072864 3.788088145844622 -0.1438190262019007 -0.12018904548778656 0.12412720419992818
Ni 3.6375975466749617 2.4677445381501832 2.6373062514955588 0.33693587019766486 1.3707669382690266 -1.5339201460231648
Ni 1.2816690077049986 3.282569405078737 8.265453921320663 -1.1604375870497177 1.2140219480340768 -0.8145033700081844
Ni 3.808441261199216 2.677658764792649 7.0503807451627445 -1.0278895057759458 -0.9571327467773582 -0.5816938354084884
Ni 4.016344505600303 6.978943294317561 5.846422734688088 0.6829950428528366 -0.282354692517675 0.018225007648458937
Ni 0.7386867450941473 7.224381881357949 10.998312353119294 0.020087000557862177 0.5936160407673712 0.9755145917186554
P 0.24790563132579374 5.645293986712645 7.784478141498889 0.15799994568797304 -1.1606062514170978 1.5964588879873345
P 8.652295981527482 1.724237719996232 8.040530046422123 -1.0800715870961397 -1.111089118523577 -0.11956760985370375
P 1.855283736859634 3.292301122711122 10.360251927447981 -0.21055535118718577 0.09000069482986435 0.7749623744907685
P 3.8222039209136502 6.164244113779094 3.7297481146063443 -0.403114522907267 0.3386371691594877 0.33911436590622246
P 6.902130954776335 3.949272861290755 10.402732131777245 -0.11166686694938832 0.18224004918226033 -0.5555043214973143
P 6.265394725000573 7.692635505223218 10.30526233626543 0.43622184698419714 0.31913072369544393 -0.739634645723752
P 2.454484623996094 8.416625022516646 5.739282269219072 0.1279800022871151 0.817294045379444 -0.486044426933279
P 6.69567310386124 3.9436349289354617 1.6353971929237612 0.596357093847618 -0.061532926407474674 -0.45064059351268837
Ni 5.125796226089391 3.0054039821408858 0.3087611858856524 1.3750807351530319 -1.1353323073416577 0.49549065994784347
Ni 1.6357814341734531 0.9970611549541889 7.045019322865641 -0.13454248599598118 1.393184386732278 -0.3216396061602267
Ni 6.871589161985399 0.7570638908446019 9.118123858064088 0.2345496572192541 -0.5957300017865804 0.3052418815284937
Ni 2.881423335920184 1.844492662510808 9.16206292227828 0.2719291263089768 -1.8502666221052522 0.30552341732465443
Ni 6.36580019548083 1.9873891104394765 2.593446190155136 -0.21041342629268278 -0.0246224265343705 0.20913070292551722
Ni 4.129965002238189 6.665418594247644 10.240418932100123 -0.08773092495908116 1.8326519943472828 0.32436651817308654
Ni 8.023729367107322 7.121112556703588 0.2071958095768876 -0.03284687132669182 0.2385631492540214 0.6680669607880946
Ni 7.624136422626262 3.7997689002832717 8.165448851768826 0.5429375405758972 -0.2932654258929078 -0.053074254117160206
Ni 3.200765520331233 8.33201114919079 12.268860808581454 -0.6848099845743884 -0.490311172629433 0.10510309768894156
Ni 0.00878547866702235 4.871101734179087 10.009542011111145 0.5960231075469671 -0.08353899836492064 0.3194590535691402
Ni 8.620111288066136 2.214953297289755 5.944405151119468 0.33249788903096933 1.0716131719161415 -0.553224524324202
Ni 3.801313047361473 2.6137562130331298 11.346131482484148 -1.4122920540960064 -0.17694331955969528 -0.41705324447554626
Ni 1.0752201343891945 3.354479975406602 12.473760148259483 -0.4899666448058207 -0.012062073370856645 0.05917188237446584
Ni 3.124384105556017 8.412800565218312 8.062512596048194 1.2468721617948784 -0.8319668169002704 -0.6435664045435691
Ni 5.5420067068596985 7.839212768861552 3.6307278876968243 -0.3721131894297462 0.020773742212241642 0.19426946954296864
Ni 3.034186165470616 8.339740862181086 3.484444191555334 0.48776038118312126 -1.2860526886490817 0.35997912517037356
Ni 3.494817807537088 4.3571611075175 9.177869781351474 -0.5754601957939509 0.4675499676735174 -0.39165743011026094
Ni 7.103094514924807 5.9592855219457395 11.355762651004465 0.2830555752394416 0.4378362426591685 0.052395225772264596
Ni 0.401901983018928 0.13686888776410783 0.3780161823429831 -0.0943430309589601 -0.35550694833163293 0.7058038132172361
Ni 4.711812189943467 0.29392660081576916 1.6103532819391653 -0.7476441462917898 -0.040854829232832866 -0.5674198419879776
Ni 5.747593730643484 5.517919807959617 0.3661316364004078 0.5456839929727827 0.2380072767505514 -0.19251751984886842
Ni 7.949502576162154 8.779768913872722 11.362950116997535 -0.5265578136662932 0.3990406099482095 -0.14150066248136922
Ni 0.09301690626304779 4.738403839045981 5.789634032607445 -0.3669689262246454 -0.7599324767408396 0.2836911519409114
Ni 7.847454205011487 8.702606447959113 2.6873159683509114 0.15463025788479176 -0.030518994524463567 -0.20181462888007823
P 8.459089067167184 1.5864585036639287 3.7310615373827445 -0.3432137327865767 0.30703779708665185 -0.5335985225631585
P 1.8503550348483984 2.933385680621518 1.5172062004863855 -1.4196652066316258 1.0485925426512521 0.6782485293067868
P 4.789800594991927 0.9982910860571748 8.151796616525681 0.008770289993462315 0.25107310879557404 0.3421359263413656
P 8.45478879710638 1.7665850558559748 12.369668475509986 -0.7885007752968355 -0.35427487569674476 0.26831672636737014
P 6.272693513224863 7.707565252845594 1.4502072747311012 0.20554324268457508 -0.04697893985269974 -0.006234410945486038
P 1.8598533348991948 3.2131905177511784 6.127821095692054 0.1366952706729259 -0.47195041073405813 -1.4347457551138323
P 6.885055560923202 3.877344335764306 6.04818171013382 -0.10142487750640598 0.2557843982283143 -0.9893013610901026
P 2.4436845720479763 8.5199033247703 10.080377962803773 -0.409650781363888 -0.4490110283290654 1.3482047366977943
