# total energy = -340869.2287174958 ev
CRYSTAL
PRIMVEC
9.26844325429172 0.00000000000000 0.00000000000000
0.00000000000000 9.26844325429172 0.00000000000000
0.00000000000000 0.00000000000000 13.56530357125368
PRIMCOORD
 96 1
Ni 1.91783549881134 5.284115467965178 6.2283733210409915 -0.44369372988121003 0.44132060166334314 -0.5976331323465642
Ni 5.841343530965243 1.6441291078921114 7.495901490947101 -0.13792554353560119 1.5023279730391805 1.8419146505961308
Ni 8.001548814834246 5.104011083137625 5.878564671302262 0.5113690217409967 -1.0107052806871755 0.08854982131595072
Ni 8.919161747906857 0.45891305363107315 11.025431181290733 -2.026033404858343 -0.21977995510924728 0.13692255619238355
Ni 2.2381992319095465 3.60117938913477 11.83913189225262 0.5777057972950179 0.5861945514923195 -2.393586228610916
Ni 6.976319989818822 9.324239050237454 1.5794761567392155 -0.05537204901240142 0.5117971104173509 0.4821744024549115
Ni 4.406820262043649 4.972065528258815 6.2354275330259785 -0.295699232145381 -0.3557357765129873 -0.7103940036910797
Ni 4.461392854564471 1.912144674795072 4.023685998570565 0.3266558284278955 -0.8906933842072015 1.0414271352510642
Ni 8.437267589799665 3.2959232181644404 10.706442885137175 -0.4562754232009626 -0.29901132723774954 -0.788291744609823
Ni 5.76902187005492 7.949932855637835 13.51777019405315 1.2862470640480752 -1.4616806318314632 0.610960959803722
Ni 1.9457242438682618 7.267617885596155 4.471937562192009 0.0021301589691253633 0.5712597845593581 0.35128673960269824
Ni 7.859769441907781 3.9066301974085866 3.69577219178563 -0.7436414528902999 0.5756792537832924 -0.36651049853098816
Ni 7.486918515968979 6.2680719161981235 3.706733052504911 -0.53304984914854 0.3244912166764089 -0.9976541039301721
Ni 7.711242642460397 1.059596211745588 13.038589836063164 0.19876967140616733 -0.026664653775379885 0.3785172931838771
Ni 1.0017333219515159 6.418943631730385 0.18054092849394685 -0.4261801464774789 -0.5298244002327068 1.9806254090371886
Ni 5.663083566299314 5.869528866198908 1.6797912961126227 -0.6173609497927949 0.9465182044863054 0.3545630963611249
Ni -0.4203971118037071 7.830388477524117 9.593992450207272 1.1605337463079497 0.26585875174518087 -0.9585309126764653
Ni 4.758047910409236 3.2795829531144727 12.442529777328641 -0.03147338801793289 -0.33858574709626205 0.9532943468678744
Ni 6.316898074044539 6.8051318471796245 6.846544177451752 0.842303422939588 0.5998468521684315 -1.4964082651206356
Ni 5.302791380657001 0.9022653182704328 13.08629914652528 0.02902724047028549 1.0329226973244792 -0.14053598457525474
Ni 6.4887442761383864 4.771774474526651 11.399873498896623 1.0597580723497684 -1.8679568402961637 -0.9494981130502356
Ni 4.060523425366424 4.877453261877606 10.867530278569648 -0.10254613559504276 1.076196934632082 -0.30416973151023746
Ni 0.4696959602443077 5.56470831205067 4.185831848196293 -0.7987661617785856 -1.3314061770832168 -0.9427250559924603
Ni 2.991714381255737 3.994170641763066 2.154645144899362 -0.044996619315348305 0.40158805896041155 -0.45355725293885113
P 4.4889201303434865 3.816550199665741 8.06766525314051 0.42590786665269875 0.08941782574320084 0.20689667138867596
P 6.085613346842669 4.979165155614614 4.88260002828841 0.202176125984555 0.7088330869618631 -0.24843901360683662
P 3.5197931909477207 6.8006551891994 9.984727763803711 -0.8574909293133038 1.2155561252904161 1.8062385373507601
P 6.978284899739748 8.70171480613868 11.933031415365342 0.26127627458082103 -1.4018104378383922 -1.2951531082884533
P 1.1753219913337323 7.534345138918886 6.55632790897523 0.3785286060377868 -0.456798128473652 0.9951516492232927
P 1.7684560026058203 8.792628963753618 13.264533159550743 -0.5850403832832182 -0.8588253318540112 -0.19698609714318333
P 2.9066856849605553 1.1360330613582283 10.497849160144794 1.0572715584824888 0.8061719673243535 -0.3903410252916826
P 5.185684603058394 5.60160598372618 13.055397230641503 0.25077820326297456 0.2543083279034201 -0.07098455873867775
Ni 0.7318214316060009 5.750188393831701 9.769012167192276 0.31352571880384067 -0.2683234112355895 1.2226068614896106
Ni 8.346056842007984 2.6460199933750226 7.5128451316378815 -0.0487026074120258 0.8578352000266001 2.021623962936738
Ni 2.753533932444578 8.023385266596993 8.255558837484791 -1.1034925371232414 -1.2380309093541646 0.6347991998739003
Ni 6.748177264801829 8.43951055301129 9.336251879239873 -1.4397061844429013 -0.5127414766084912 0.02477849249626055
Ni 9.09402946242628 8.060014153424827 3.223238234287607 -0.3296830452899935 0.5327099493106181 -0.3617508723588157
Ni 0.3441975343324618 4.2445020193776895 1.6338596730223642 -0.11106368614775065 -0.11899142563525958 0.16932256978964386
Ni 8.265319434832563 7.69266868264183 0.37834711265158066 -0.14373238002536537 1.3582004144579254 1.1644927309556976
Ni 7.368412203473864 5.5624838857250944 13.475013012698351 1.0067810059321047 0.43388214310742695 0.377621263732169
Ni 0.256946265400308 2.4383512589963616 3.365796156428024 0.37072042284727763 -1.4444735239245576 -0.0002853924509027343
Ni 2.9386988871628184 1.290009705303274 0.4240609273307929 -0.8426628631615357 0.5598970512483712 -1.5666073518435406
Ni 8.579936733256362 7.392102343841259 5.474603289511663 -0.12133421483582328 1.0642593026542315 0.8287436819772823
Ni 5.5091532645693855 7.262538778819421 4.450775853081352 -0.6318647998359247 0.26184808792389097 -0.16474137817686466
Ni 1.6655114059467206 8.73663829945024 10.585318237487995 0.24979192809030523 -0.9979898900030361 -0.16827073148636182
Ni 4.8108224249835505 6.12772915194026 8.289472070506818 0.38337590682775907 0.7269261970181481 1.3557874341410585
Ni 0.8432086530149676 0.3336648756808546 7.615913925433493 -0.6864284940144179 -0.9684054914776998 2.0766939073276878
Ni 2.1809295224689613 3.094621904142744 4.880294039664228 -0.021747418979420615 0.5146034695178945 -0.9393671952638211
Ni 6.81259294381333 1.7911266142406594 3.3808805474483434 0.1172919264456496 -1.110597780709455 -0.6544354860475889
Ni 2.4352185252545073 6.274198357036484 2.2732738008423845 0.6686009789146936 -2.5919836042793296 -0.7862104366007622
Ni 5.3102895510628 0.3192505930911156 5.812013543018208 -3.516969591120814 -1.3156846525829018 -0.6851138889680524
Ni 3.0426722809974973 3.1460339575926426 9.563674446233959 -0.11947093637483942 -0.6228068033987145 -0.5514504631429148
Ni 4.014171941807213 8.731670413989784 11.587454736711022 -0.47307038327111434 -0.2542270810435235 -0.2889958519832765
Ni 0.8538682893359931 1.91428568513344 9.776880148474703 1.0574592490132626 -0.5286591762800121 -0.9751620934752431
Ni 1.9642147876996208 0.22896947013466543 5.659430872903856 0.8108829996467777 0.42133850211446144 -0.8771066466617025
Ni 5.141798525343364 3.884747403430723 3.227985530804109 0.8485920841617773 2.2523421622250432 0.6766521313539443
P 0.8633350770399281 3.8336504770436144 8.790968058763854 0.21565153476317056 0.6115263453888887 -0.06952700035654477
P 7.982974855015677 2.4882710931195193 1.4848583292921926 1.8993746924858126 -1.7173912393990487 1.6623387785095953
P 6.421872459725727 2.1744786861247882 11.471918960204855 0.08085219556137688 0.7123765813387473 0.1052131409042446
P 4.872846845695057 8.673724108208503 7.916439483084761 1.4904294218293817 -0.8897284491907709 -0.4167411125517662
P 8.887945631804593 6.256940516127215 2.043992911022138 -0.3136041374502599 0.028056391916583937 -0.9027528864748968
P -0.036804060400974045 3.2199683275890085 5.620647999917422 0.6365274954189167 1.8823406198216612 -1.5472130064773288
P 8.179901463930404 0.762814178231405 8.722205479974454 1.0336528906222844 -0.0003761523924961264 1.126267368925912
P 1.8753396875497956 3.3173518584341655 0.3579806359523184 -0.3432517851133637 -0.6589315741457297 0.48079474849856557
Ni 2.5776096154205064 1.850222206956822 2.6979353232810834 -0.30360306037349005 -0.907157957521128 -0.28545030072386324
Ni 3.41306706953514 0.9478280573283662 8.15597590511022 -0.7539222659910177 1.5690311307936848 -0.09561881234759016
Ni 6.55937908041848 2.8164666605723614 5.518080628889367 0.07520451035729629 0.47438858786190563 0.3980175680003339
Ni 8.840398519095384 1.1812908686406973 5.813315759262972 0.7058760612160682 -0.9956859244602078 -1.6845430825207763
Ni 8.686245774732898 6.228977623526107 7.879379613656346 0.00134700094619768 0.294987293680021 -0.541551715971964
Ni 4.5012286226783464 9.531944858388208 1.7486215345360918 0.9519990250952187 0.5414925805992545 0.263145723689392
Ni 1.7944817906150714 2.6334890584076054 7.15832903968765 -0.680140604123177 0.4777814155935385 0.5805054715273421
Ni 7.313505947004204 9.009529067383422 6.988369892593332 0.6709054586781542 -0.9145406231384443 1.9403117970198067
Ni 3.1102299621938756 5.006887068697118 -0.23996462409313216 0.7640755523749357 1.6247325381210471 1.086869840964896
Ni 3.675113759131136 7.423114554197012 6.164155059865886 0.6716310239902691 0.18675850587790416 0.14811276848124816
Ni 2.1166714069888553 8.291808644992976 2.1032599699342307 -0.7026760662215318 3.82573979751754 -1.7748427966482985
Ni 5.952759484547581 3.0609311137532753 9.471904811327978 0.16932796910628256 0.15909780673784216 0.9597316178527858
Ni 9.016063319714805 7.237625203972959 11.818377067790683 -0.7434252231144357 0.4420345970112323 -0.7053569554878045
Ni 6.32637969125731 3.581409800166204 1.0854143866311186 -1.2231851025905836 1.1146490679606933 -0.6231256201907139
Ni 0.07530424587520056 0.7290742650939133 1.2580539674477556 1.2080137941667841 -0.3889364316346721 0.26609349346380623
Ni 3.5920870465289734 7.6294671696663725 0.19047577257055517 -1.5405103976461727 -0.9007731370407068 0.5354255484695682
Ni 8.155293747703709 3.2924846258028193 13.074578273478092 0.10788888796419484 1.7756570650194774 -0.2805644333864717
Ni 0.780071092296371 2.162568736839928 12.400735587203956 -0.9010086500902804 -2.720419977377573 0.7360309875328936
Ni 6.821453575343544 4.553289467139871 7.856521779472437 -0.9167306888112275 -0.8094269839265414 -0.8531797035324598
Ni 2.72141877736906 5.455340684376468 8.479819938563653 -1.4733714379058303 -1.6309168125548879 -0.024405939648190225
Ni 2.025395780096012 6.655409418582245 11.840190348445873 1.9966508379311676 0.1312386184337288 -2.017499913466035
Ni 3.5821049333929467 8.918772473299882 3.9883074247065653 0.6967193344174646 0.3686362866247393 0.15628759098255665
Ni 5.166980885037501 0.781070230454276 9.80592374153232 -0.7897683291553496 0.7247045067764809 0.8908929018125173
Ni 5.743700483715434 6.897547492564326 11.1777015048752 -0.7852133627948155 1.4548306987891655 -0.44931878937747133
P 2.6039690673785936 5.134485723798029 4.020443897201037 0.6082960113770493 -0.630485660100211 1.3864226425284123
P 1.2716767250033099 0.42678955695683407 3.4675896124636374 -0.9733011290071044 -0.16623364645167502 1.2630767965791991
P -0.18146499226336363 5.092888951509739 11.709122515121363 -0.3738060037511369 0.08669322772318618 1.0062906965592477
P 6.755156402398327 5.961128888597565 9.359258935356456 1.1486187400379184 1.0280185751546425 1.1392372988230186
P 3.635824829155632 1.8985386004369593 6.052566713243316 -0.003522668441277804 -0.3882494328699765 0.11358542412833986
P 4.6314039049397175 2.4791972873997694 1.7191172998602198 -0.7112424677343041 -1.6571081262382752 -0.6908772738143909
P 4.3676332849414 7.581438097919956 2.448849624408783 0.35498321461767895 -1.683956613889687 0.2395849056503164
P 7.129165883715032 9.496724774899905 5.021888970574531 1.3922716451100214 -0.32619251563823176 -3.9824171677393476
