# total energy = -381167.3121863957 ev
CRYSTAL
PRIMVEC
9.30462471542280 0.00000000000000 0.00000000000000

0.00000000000000 9.30462471542280 0.00000000000000

0.00000000000000 0.00000000000000 13.61825879689949

PRIMCOORD
 96 1
Ni 3.6940754785990633 5.734951806888721 4.301150118489013 -0.10819484924038786 1.3403698140344078 0.6163839305915062
Ni -0.2551197761231094 3.9407224636920795 4.133209090748676 0.2683828037186152 -2.0916484717549912 2.050308218245308
Ni 8.936152023402293 6.082972675435351 3.7419431191155494 0.2259899405747011 1.8491487064507253 -0.7340185850885552
Ni 5.148127751665906 8.648946180303374 2.3105690072365443 -1.3340158467919219 -1.1551220883740752 -1.517563301931696
Ni 6.822401876369294 1.1053056438126048 1.0285629622202483 -0.04162641729153476 0.663163095728574 -0.3895527250624323
Ni 4.312786481834317 8.12477946617066 13.431674816325236 0.41855399739078886 1.1943568655049819 0.8631787237267006
Ni 9.192317639314314 3.5167014225847213 7.1397937821300035 -0.5676358146535256 -0.7282708839715006 -0.5817092620274563
Ni 2.888341523788071 1.1017140587723941 5.702482389385303 2.4064114054000427 0.6800004790008869 1.8748293990462808
Ni 6.400595335882583 5.266798931984162 11.12826850899531 0.34954456010061097 0.3777819576797494 -0.059814658164787315
Ni 8.78763160782757 5.010084343229209 10.577995810024982 0.02204078185012333 0.17743440026350088 -0.5517703083761788
Ni 1.835132472307434 7.742275659388223 4.8521039159695585 2.4663811010854557 -4.145938814576499 -3.5693164801536463
Ni 4.5156552088594815 5.616606288426442 12.810178008527703 -0.38400685554353864 -0.8188896720013381 0.011191497840445243
Ni 5.385572463171441 2.9652721587944493 12.078673556243368 0.9245596979373433 0.8818343911546749 -0.4196675421699417
Ni 0.5444935967203938 5.567459262047187 8.22337126691178 -0.33683739694658765 0.8540129980670325 -0.2320379465409939
Ni 5.4326817767947215 5.810961284073905 7.755380292472765 1.5233207732407636 0.13827932733059412 0.2786111663148428
Ni 6.697012757193442 8.50464075960745 13.211807470880485 -0.40772348243418816 1.8973080397647712 0.4121344670176902
Ni 7.453339156140395 4.867909681533822 6.17737832563349 0.29377090477441664 1.315819121278237 0.05735719776323025
Ni 2.093568416586842 5.172440735370752 9.999110460388456 -1.9281419944264921 -0.12509111077509424 0.9282160637430078
Ni 6.196851974158508 6.755185269295506 0.7795563243650624 -0.8506227414385609 -1.240277025075864 0.4499690213669606
Ni 4.0538760017076285 4.799930095254601 1.5661674149930465 -1.5805409312054974 1.364120379486786 0.8287459959701275
Ni 8.899957034266492 7.629457087853109 0.3074489840664897 0.6911873488556418 0.7953447948018626 0.11082611621564785
Ni 6.64111987808322 8.201030863591713 4.120040255755385 0.7079203453396067 0.14649117371742512 2.280177696380073
Ni 7.003469868292868 4.790755735540488 3.8118459712699293 -0.054083669218281054 0.10024911203074993 -0.753952605008321
Ni 2.179050001468747 1.4290042240299337 12.56560781561338 0.5575226374789237 0.5616464298393101 0.5772975061130057
P 0.2304634517758186 7.107998019437237 10.100879790381471 -0.3428887453469901 0.2890465027155538 0.04733452341990558
Ni 5.386195873010026 7.766328113608288 11.297475896124178 0.46199407085229466 -0.9398346218185427 -0.6003240489151661
P 5.0521040272747815 1.0817928578110185 13.142886256606266 0.15916182720655814 -1.1309927994260391 -0.3184295838633613
Ni 5.787764855303839 2.950533633655346 9.616424282966673 -0.2400957838484639 0.893453720561158 0.9572013952317644
P 1.8396452151688387 7.24829314699241 7.199755573515056 -0.005611689759822593 -1.3160872873379594 0.16227749001740438
P 2.981648297837897 2.8105083402094126 2.3910391213861764 -0.3437847747986983 0.1731026056573664 -0.7155539506254645
P 2.213570158202378 1.5324065156150661 9.843481311728965 0.2344319006944672 -0.6139691505024265 -0.2714262185306293
Ni 0.2144715937224246 0.2118569942501469 2.0852007678131073 -1.7113080093194462 2.945471465298404 -2.5361382151749354
Ni 1.4687256658347505 7.963502410466071 2.4242677962452444 2.566392643184103 -2.3463645766197914 1.2847164863361618
Ni 3.0755784817263074 7.264287796433141 11.691261560060125 -0.9022237534443042 -2.1785450737382352 0.028076189410925836
Ni 8.901501601926272 2.6720090051743455 0.23250023406934736 -1.1749558352705505 0.3129726745138481 3.0979198850405294
Ni 0.7175223931135482 2.634595110234742 2.644488717419343 0.9536111067773447 -0.05277214949570912 -1.4059766534009401
Ni 8.606470569659432 7.223812680047346 5.872819357923191 -0.0874496462732365 -0.43510238866777323 -0.8308671560781884
Ni 1.0795225294436313 8.851898648948646 11.584793394716574 -0.23560200974316844 -1.4445930802215574 -1.7606353947996642
Ni 8.383345675192459 0.11201744336940987 10.32165898902296 -0.1472452782746303 -1.0061603416289704 -0.0833731622110177
Ni 3.9333438964980716 7.80515631146528 6.59917649195819 -0.2052707057494787 -1.5169858321616714 0.6603418242296951
Ni 0.3695108291913735 3.0678463388029527 11.874127205428696 1.260897529539693 0.5342191868662929 -2.2402602913598453
Ni 6.761754334161799 2.8761152472522244 5.198225710664617 1.6405116553321746 -0.845332439573899 -2.3995990104639
Ni 4.2204659979768815 5.396933409632831 10.272605939350717 1.802596826833115 0.6074681161591151 -0.3286720875269759
Ni 8.886223408568691 4.80267495946927 1.6697213719568198 -0.0022977948952412042 -0.438023161858994 0.23004328470846833
Ni 3.2455460566732723 5.406377603456183 7.575455838894895 -1.5640061667752676 0.5708000713141201 0.11217877358880035
Ni 7.330853079794973 1.4946948726928542 12.324646886525732 0.1484711802619314 -0.6554240752131035 -0.9822097443506439
Ni 1.8757750719334452 3.9304687675410115 0.5222015774475007 -0.8388419467535488 -0.6050178548464097 0.40803330036512314
Ni 6.656035191086996 2.260353809969682 7.22496273163017 0.5599093925435453 1.3041152025777476 3.1463234731548977
Ni 9.120030011911732 8.194638586590095 7.8514570532232915 -0.6472801059497304 -2.14264013231151 2.7763723243734764
Ni 6.6991342115695245 7.979357490539955 7.054080512099132 -1.9510826623830657 -2.834649205737499 -0.35042516293335135
Ni 2.27803259643704 3.2513986654564135 7.446490952540408 1.4591761202420548 -0.41928161958543275 -1.1563983839833374
Ni 4.298057261319672 8.74494199082113 4.653182210638843 0.1803567161166184 0.6740306345706972 -1.8313386748524976
Ni 4.00122113190827 2.8448517090783705 0.3154751531226703 -0.2087046711316922 -0.9559179005336504 0.16679260427893858
Ni 0.7621780772676493 6.147323458176536 12.371302134475537 0.23286404198671506 0.5355479329800454 -0.5417237227734542
Ni 7.976445143085068 2.273603595195744 9.665613180155983 0.42571426258465395 0.8571338030842012 0.26643365041204436
Ni 5.464801340418574 0.87351721351418 10.671893427727793 1.9355925371672664 0.24927925011994487 0.09760833197379318
P 4.79469159168559 2.2145750576436805 5.098730430888771 -1.18619155608537 -1.8600028755564098 -0.03763503674395454
Ni 1.7705118554570118 6.2657527182589225 0.9911071964705904 0.3098456988490922 -1.7580313815179143 0.1620535469320564
P 2.2784885230354086 4.652535539239117 12.140963364667435 1.0616061813021007 -0.1778203228480099 0.049542072594185645
Ni 7.505919588944102 0.40818829213217067 6.076126332760256 1.1331710380242808 0.9766438202270923 -0.7374078132757622
P 9.024676220481476 8.206585724392246 3.9366712302037175 -0.07065005821739445 1.0836850154790112 -0.13002222952812448
P 7.542403021438054 3.6109107452068274 11.955795755208324 0.1185797920191377 0.9592119979038899 -0.11273413187163811
P 7.34403773264984 2.7874700900551077 2.3976984411096964 0.8718022037296534 0.8656696084693544 0.21072504399583064
Ni 9.022638507725501 1.0401825772415312 7.860268532583601 0.21691446063599418 2.2963121400480904 -0.21601843118428604
Ni 5.030424252291127 3.63943872379047 3.4934240435818844 -0.4091882399051728 -0.2744369803324951 -1.8062516499768828
Ni 1.0916650643593695 -0.33181872598052015 6.176220830351101 -2.4641941207364657 5.016432841017689 2.4625563280227265
Ni 3.514859106942333 9.373106492504194 11.06773541366863 -1.5301884468948743 0.45676676101508434 -0.4562260580202659
Ni 5.092179044808947 0.6762991849214514 6.779618282655841 0.48783417184385025 -2.011033589015401 -2.8453161985330415
Ni 1.7461430440054269 5.031708290466124 3.232457241450308 -0.4880146632857725 0.3436564767509501 -1.3859652432760194
Ni 3.3786301002746537 3.153709413287575 10.8553182810262 -0.6093121113463894 -0.22460077353665833 -0.20365091075786862
Ni 7.168152416548538 6.995356235766796 9.227255573686042 0.2695451994578326 0.005316784227223101 0.6116469301271531
Ni 6.685354062749441 0.23346977593771512 8.62045262883022 0.22324760194287357 0.9239819710570022 0.94124872855725
Ni 2.7028817491210275 -0.006858438686889335 8.092296091730557 -1.9428484473987313 -0.543878821443244 -0.20088928885233145
Ni 2.6163208278021677 0.6705461356199948 1.5648061484350597 0.5084590471830533 0.8977279224564797 -0.008741236527739785
Ni 7.864277895261909 5.6643204026393965 13.310104315026333 -0.45869637393762935 -1.9693822320232022 -0.7868431850887546
Ni 7.551186586924995 8.398279597445148 2.0321569647114677 -0.6181821601425096 -0.697139966894651 0.15803568402191492
Ni 1.9860813948653038 8.196760040966177 13.573359124311766 -0.20501051010955662 1.3263868694917544 0.45808136606144984
Ni 4.887402869770199 4.364008439467375 5.77701522266924 -0.020909753569473666 -0.17820958786662858 1.4821941784037829
Ni 4.1335421963042185 1.5340441295194107 8.405284118736004 0.03465641373160483 2.582140650046979 3.38152207681206
Ni 5.626813461455227 6.3858661153679375 3.034720014812906 -0.47049645189635103 -0.08155924893073051 -0.09257462620462766
Ni 5.918224994808486 1.2728447117764217 3.1286585728633276 0.17543151090085915 0.5812811733511022 2.572016417128783
Ni 4.644031112485871 7.995212570613837 8.933563476878494 2.2806371525149944 0.6672565490716573 -0.05275955109021881
Ni 2.8644751620571376 3.479482924758704 4.537726708532755 -0.6999424693404526 -1.3402633703635305 1.1350816247834323
Ni 6.150282328753704 4.198907183111161 1.1451294364864433 1.732187166761301 -0.27206410922494434 -0.2241927394649623
Ni 7.435976726904559 4.502321682013311 8.548330623742965 0.04381236919926003 0.12845822747511423 0.5680093959428604
Ni 2.6487474440330847 7.350718453009609 9.394011192270622 -2.199234997987419 -0.5580057477629293 -0.11158176343474976
Ni 7.783299748616951 7.400349319860603 11.709060376182972 1.3879403647245194 -0.7143876982315052 -1.8223655248196098
Ni 1.6605591082545004 0.8090436097301703 3.9396533623420273 -0.3992622390407124 -0.1889377729174101 -1.0590767300120276
P 5.89032042606343 6.389457700408148 5.556480735650958 0.018615043998026003 0.6346030247026943 -0.4887248019789196
Ni 8.57286226612254 1.0906694695425234 4.014662592398137 -1.094537641922799 0.7145751316519628 0.5432640706773805
P 1.086621957903944 2.2200926999463877 5.840435542964773 -0.821166898071289 -0.023562617811288454 -0.4238347861737539
Ni 0.9911751202291228 5.44210736136916 5.746755653474243 0.7215788166633057 -0.22367929016365345 0.1848648883996171
P 0.06559201964368155 0.9050952479946645 12.784180887796232 -0.14183104923759443 -0.65108225330464 0.35388895311223567
P 3.5654669593612605 6.830180542414932 2.352853873079128 -0.6595931189891286 0.6856157683051354 -0.1561135272985376
P 4.805894359531221 3.536920371528705 7.903696936771889 -0.7335167057514722 1.5043383186009898 -0.980604090426421
Ni 1.0087701650763725 3.2543017082868424 9.260715003231631 -1.0480850068872143 -1.0030539347895047 1.4466718171274568
