# total energy = -340897.275151384 ev
CRYSTAL
PRIMVEC
8.99536735213732 0.00000000000000 0.00000000000000
0.00000000000000 8.99536735213732 0.00000000000000
0.00000000000000 0.00000000000000 13.16562938552542
PRIMCOORD
 96 1
Ni 6.365014080895502 1.9575268930706495 11.367507046647763 0.06631466406683417 -0.495565736160153 0.14438286912517068
Ni 4.450440067517945 0.2199574241087767 5.926231749443051 0.07817644850142666 -0.42687280166912933 0.16110712385838705
Ni 2.695866655418093 1.5949326255211478 4.661752043946506 0.5062245014255797 -0.4825590394878399 0.5948578835942723
Ni 3.359005145674593 4.313557560650974 4.982006016327962 -0.2886958042443544 0.24405733959937323 -0.3651421574285518
Ni 5.145377181798547 4.634863091490256 2.60370101980606 -0.5320733441678837 -0.624421199073686 0.11187126965071056
Ni 7.272043969501493 6.024413486822359 2.644396062262929 0.1542458779621795 0.1447399953542733 -1.4352782305785345
Ni 5.083731928492418 4.416779402426521 11.60916219664297 0.44230867660822537 0.49811884159930986 -0.33022194851259906
Ni 5.727224536183533 7.9187929002185555 12.225261211762486 -0.6025783921669815 0.4443419049881702 0.24779958025062482
Ni 2.0215379280227013 6.39426701592418 0.36944963710219403 0.03752756463181279 0.4316491400118502 -0.6012910408141258
Ni 2.829753704915892 1.7229097185878763 0.41823511306607225 0.04158656519253483 -1.1952526378463737 -0.2925234055205607
Ni 0.6178054363295243 0.15331434463354193 4.643398795687277 -0.24094964720832696 -0.9686237781360931 0.19192179524639852
Ni 8.652967807425078 2.2995757413072666 1.4619118299111906 -0.2619637875661488 1.642061516317798 -0.22584287347387558
Ni 6.83208954166705 0.6627103107646904 4.833576156233341 0.2931165590198694 0.45804537061719175 -0.5447537678490295
Ni 0.821954401637748 7.2551596647509315 2.3064212159557362 -0.2304155804462225 0.4924282189724358 0.5999383834409732
Ni 7.65619113752108 3.7957572226879392 3.7009109675683582 0.058069907559538704 -0.42653650137563315 0.09223112682227987
Ni 7.679183296787162 3.7337881361527105 12.55743044790132 -0.2867672197630739 0.7052294287710048 0.20733838691178488
Ni 7.6032174184608445 8.666676747456968 7.256842698005503 0.30681411111162 -0.16970849237415286 -0.7599964972095558
Ni 6.951521035632535 0.8574789068699913 0.46129233902187483 -0.7243275830530364 -1.4784905042999503 -0.969647334304601
Ni 1.7371583806682658 6.5238542797689325 9.168768475198421 0.675575610460314 -0.29953660361360024 -0.2347016094160861
Ni 0.3432938070951562 4.920708883743116 1.303710302128485 -1.080603805450526 -0.8632108625162166 0.9275828010343832
Ni 6.211472153464843 1.9181361788976543 6.762380840956338 0.1701188404386941 0.18579794173684774 1.2651239089162145
Ni 3.6108394535045036 4.330324925624361 0.6669786126315748 -0.5147680201202167 0.3155892862010888 -0.39356930242099314
Ni 6.029819702674829 5.6151242667101675 4.684910617510877 0.5763616245622977 -0.3687594424661649 1.384856583592873
Ni 5.165059045833832 2.8501731890841264 9.27288175789074 0.15181155748907404 -0.08168009077931095 -0.1943509735131814
P 0.20174360404541042 5.50620835732295 12.380299968340987 0.30769497105467647 0.3642078185397405 -0.6027180030686394
P 3.978740987864251 6.084844365519364 12.568396700390085 0.6339342807704437 0.818761631063906 -0.5955420541454904
P 2.486904268974001 8.422263617793927 1.4128564929230627 -0.39293166883699426 0.44015409215906776 -1.6241717805215705
P 6.360786258182256 7.772582197280016 5.7767620248683205 -0.4455960891102455 -1.3316853988865323 0.5019436146620387
P 4.693557864264587 0.85556559220806 12.523094230712521 0.32327739887396584 0.9789418722326496 0.0001462957698771674
P 3.9045382015630317 6.055735356370286 8.290831404080054 -0.43842965326879335 0.21332417218157454 -0.44476973655420826
P 4.72865778815201 0.9633228982644989 3.8786207487940816 0.395232549056029 0.5701410975738826 -0.7658028194786876
P 0.2823178091291672 5.4777560099995455 3.5276251080668364 0.018302912074245895 -0.573755040177386 0.3927982285829235
Ni 1.3935353431235247 1.1760813297830386 2.481247082368977 0.8748597596090546 -0.7451810294632779 0.2817345424351729
Ni 1.7878112949199525 6.675138369963368 4.729897349790065 0.5191165268968995 -0.6737853513291105 0.23129206951390488
Ni 5.824725324244985 5.53908642544405 9.291432004697672 0.6369332154977676 -0.022868934178373518 -0.1434233334253788
Ni 8.650781933128656 2.317836337281503 10.152240996606906 -1.1529536199678465 0.23157026287595603 -0.045160141476406096
Ni 2.2204614843647015 5.0731623717093015 7.103712758405198 -0.5119925142576086 0.7314572521192823 -1.1019395908138248
Ni 0.5928504878803981 0.22439843703118084 9.072988500934937 -0.19097151551798724 -0.8166785232826321 0.9231844148563714
Ni 1.4363532923044924 1.070574664668843 11.372089286839522 0.19964256092942392 1.2783542915635597 -0.07720302884456381
Ni 4.08610969404577 6.72711360323388 1.7527140696427714 0.5893600937044947 0.8039327935811895 -0.5283447303633869
Ni 5.424719323366986 7.794647833696175 7.994684116994832 -0.1703263284638099 0.04798295563718188 0.11409193145111317
Ni 5.314013335852245 3.023657846206846 4.756412994496102 -0.2994386445831553 -0.8250042695395082 -1.0319742173682807
Ni 0.49110388637074986 7.475798038177565 6.791582502390408 1.0519946263542657 -0.6991161167844153 -0.002038113475951329
Ni 4.889234092948115 4.4304883424584105 7.038108643873325 0.774981400654162 0.4893884037048475 0.3035367259119289
Ni 8.372330332940239 7.186417066507033 9.199760214760015 -1.0304747500046187 -0.6510956230410787 -0.6502322465995188
Ni 4.651279637132118 0.27912355413879714 10.280763208942618 -0.32724075439708805 0.25174339538972124 -0.09165442838320344
Ni 8.242545171011036 7.0141467839934375 4.59408079396888 -0.40691769870344113 1.22728035570588 0.8775920709385532
Ni 7.134234939784597 6.0761458451710455 7.018267561833732 -0.35737665455052003 -0.1996603015412368 -0.1656374076285728
Ni 2.3541416404105755 5.257495442006862 2.687868874196077 0.3752144540628893 -0.3846239203022473 0.18144429275384236
Ni 2.453414515864601 5.16058834819876 11.28781618665005 -0.34741620090369846 -0.25218922467788824 -0.23238118881302558
Ni 1.1984797947957715 3.3116445359187536 3.8404534045976852 -0.9519332048542896 0.44632628240805067 -0.4802530170624826
Ni 3.8975847825048624 2.566333363778191 2.5888370745903813 -0.50537706582362 0.11310977004350198 0.28396831686169804
Ni 0.8625639881036048 3.202710635796586 8.061407255240594 -0.1472769028435141 0.46673389953012523 0.10737929531762798
Ni 3.5121512769363528 2.5652988965185664 6.969963338029766 -0.26701446261617884 0.1905917635810653 -0.7907435485844252
Ni 4.075540137262653 6.6315018423421765 6.071000494975349 -0.12351219632374857 0.7579362722464172 0.03203825938246741
Ni 0.6032797169309053 7.356483483989255 11.27159574001914 1.5930673458072822 -0.686738826165985 0.4486832126760015
P 0.09506124440223335 5.5191706818544155 7.791853872558441 0.6873944574721129 0.30348041875269666 2.1875297937353486
P 8.338030996758091 1.5531401482323295 7.888016149939615 -0.18725832833245817 1.4597710735135765 -0.010309352345808051
P 1.6113401757955355 3.1938322080987676 10.34021988934208 1.8019522512705803 0.01082177320585233 0.23964378391270985
P 4.10675406240088 6.089458989034035 3.877777882861675 -1.3503912028261518 0.4726044993782893 -0.1056492000003987
P 6.862952647473753 3.8354897608249843 10.379268779551026 0.14766128276612633 0.941415078931785 -0.13592599660706914
P 6.429438902751404 7.798290957523547 10.01491052043968 -0.4357600768564302 -0.5031610320089076 0.48533171713697065
P 2.3762432582966335 8.390447003034875 5.900966460816037 -0.22428221385497502 -0.02326565539615993 -0.7293798007649632
P 6.843756533282116 3.9651579829770114 1.551990540269025 0.8646141706216465 -0.10851263759112278 -0.6512349768324204
Ni 5.257828270603437 2.759266005381845 0.3680031820122151 0.6673095137967797 -0.22392251652271114 0.0792840797433086
Ni 1.2933359448195751 0.9429483909336392 6.973768378471688 0.48116524446410686 0.9965912098832966 -1.027467844857495
Ni 6.7527953773749845 0.7672652660000316 9.104954438794072 -0.7110619762923818 0.8148316998818805 0.8209516967366893
Ni 2.743578084505457 1.645225725073835 9.125387416013519 -0.26295777604830195 -0.49965250463501687 0.5899193086420743
Ni 6.357511944421358 1.8871741240487276 2.4704643353767026 0.34899794356852154 0.7082913555257802 1.474678329642712
Ni 4.094736251454289 6.89281726749073 10.34842186540578 -0.16848516149001305 0.014058534975595144 0.3467482283023964
Ni 8.200608767842619 7.096616313004176 0.3736441769557834 -0.24522307777270025 0.16513398562959303 0.13343305498188635
Ni 7.325458461568004 3.782857865728799 8.172959706834732 0.8396137919225669 -0.11913952117734965 -0.008774917979152629
Ni 2.9736795845157835 8.409436223774586 12.234214301010349 0.7239653146176112 -0.6947930639290292 0.7454767063268258
Ni 0.12661249582077208 4.850356114721194 10.216252031558957 -0.8562148908143576 -0.14982743717950972 -0.2615619241420398
Ni 8.500361398211817 2.479456104704706 5.875148856626058 0.08831019450131888 -0.8027703978419722 -0.5629790326078046
Ni 3.7882550862137947 2.521212600523625 11.366085778586712 -1.249948486727357 -0.1974200993568084 -0.1930566801817901
Ni 1.241720526248064 3.498532290579213 12.683438455027773 -0.16682397173750624 -0.6418964730403139 -0.528276853239929
Ni 2.9973733824449154 8.366033575707744 8.036695181713293 0.7448421580666205 -0.14117516082115042 -0.3795202805270948
Ni 5.683066277248792 7.799892132934096 3.725452129113634 -0.8524320267331578 0.46612249119837146 -1.1315810678293416
Ni 2.995619285787292 8.397490375767795 3.4025382265698227 0.8963027599741789 -0.0766543554299454 1.7827437966629298
Ni 3.1637067224250157 4.098793162185511 8.984277985970047 0.07754884221975676 0.09982590845040226 1.201507103396518
Ni 7.240722099953567 6.293779765861031 11.368823968446101 0.3456575663413789 -1.503081049155121 -0.36576924948958944
Ni 0.6319533502941936 -0.06482601524528614 0.25814545765036545 0.4909472635515351 0.4118375046025617 0.35801917323052534
Ni 4.700547264792657 0.31033927835051855 1.6433735789107338 -0.5780040452617271 -0.6045738253304556 -0.3797179983601976
Ni 6.0535135006039615 5.799241448188329 0.3556534420057969 -0.5072645126543199 -0.9843982673615305 -0.0004993082339217207
Ni 8.05513568503703 8.992479962033746 11.240827985107673 -1.0060868080785577 0.17594110354742604 -0.0321002229686544
Ni 0.011883779971213542 4.805136402424403 5.773089216328281 0.1566830266487624 0.30052647833069535 -0.8546604018430441
Ni 7.901620743708794 8.693258058345572 2.511238537067352 -0.013552798983770206 0.13898689492057997 0.24896840374774543
P 8.422119691914327 1.6099548892043865 3.5894772548248897 -0.09246715409248592 0.5641311439343768 0.03613711204218938
P 1.9681144405887163 3.2456635154896785 1.6976291378361554 -0.5773062478637542 0.060285684263934894 -0.10656014185044227
P 4.605808054546029 1.1100103556792134 8.020870531251283 0.8041289687523957 -1.2806549146722783 1.0460057557606823
P 8.574717105760111 1.7129788328954838 12.48861318810738 0.30351512864537405 -0.22462879856111637 -0.5633179040044621
P 6.266937589315651 7.721200658262855 1.2984812950152713 0.2922917491257288 0.22057879686145884 0.9811193394999427
P 1.7091198202487117 3.134417805926437 5.961370353410616 -0.40469677979272234 0.07158722531968316 0.10403171900163374
P 6.774852018423668 3.969673657449458 5.983633887911225 0.5746613540417392 0.4473585803273069 -0.13764914994576297
P 2.4016641667809644 8.502169467074292 10.122578772358114 -0.4688879697586506 -0.3050518770048746 0.4169264890896948
