# total energy = -340863.0258988705 ev
CRYSTAL
PRIMVEC
9.32421858092719 0.00000000000000 0.00000000000000
0.00000000000000 9.32421858092719 0.00000000000000
0.00000000000000 0.00000000000000 13.64693639964483
PRIMCOORD
 96 1
Ni 6.83424174902631 0.02097203180260476 2.2577494358107204 1.1329144419287844 -0.4365908002878417 -0.8023502795854182
Ni 2.749590762126405 3.6972763375849413 11.893973797174912 0.2598081746757267 1.806923993453559 -1.2997165592894195
Ni 2.9756377863975003 1.780534078321981 13.208760374096553 0.5369245016125979 -1.68112788619164 0.6353679278931766
Ni 4.609846906921919 4.68944775855754 10.08681907560358 -1.1438701696093398 0.386320848388696 1.1970493247354803
Ni 2.243490841184834 4.074301104585796 9.120724695953387 2.2517060713029413 0.8085206700621882 -0.10486398509494199
Ni 6.551289020464223 8.425354332563517 6.115942200412456 -1.4493889589483038 -2.8844712714659484 1.972883560308241
Ni 4.185939970303646 8.04086086670356 7.148169530784311 -0.36054631052775327 -0.4612415089569863 0.21251967400240823
Ni 8.649126247569168 4.966405014752084 8.818704873387588 -0.44134734113622054 -0.22097654652050977 -0.5688218645418269
Ni 5.34259060210585 6.921199408901417 0.46410084444838545 0.18873825531209432 0.49828056398815473 1.8388550378342008
Ni 0.08629657279756683 5.361173769179738 1.1193518937545508 -0.4727919327987471 0.36659483071467835 3.3642419495753737
Ni 2.4787595173556163 6.350753057464659 1.1841654675866182 0.3562165728041478 1.4672653250080923 -0.11987125713705162
Ni 7.430777263269261 6.316607770046404 5.840779856240854 -0.31877385457665747 -1.9520805075199605 0.27350289855399995
Ni 2.425937820680463 4.1479158080721765 0.6320896910464864 -0.3417770003400501 -0.8866467249416536 -1.6498087643633845
Ni 8.305584748487197 2.499291446054414 3.294670577675298 1.1011885715804133 -1.3392120462808808 -0.6511678710399108
Ni 0.9180326964177025 2.479085864996151 12.354052173848249 -2.475673582130975 0.11445368566590612 0.5034749637049006
Ni 5.00262027863316 2.6010093435000012 11.722458531215374 1.184961797443327 0.22055462849174273 0.7600229795721168
Ni 7.241141311463563 0.7007010189925501 4.962612855169068 1.91208622651521 2.8451015114190743 -1.293056887881057
Ni 8.43771824603064 5.531489940665768 3.3993293335730206 2.840126426801986 1.4769221313715661 1.9270163654624812
Ni 9.17365082387351 7.717627515081164 2.0869027163033635 -0.7520134790040791 0.8262252864308027 -0.2197079642207313
Ni 1.700308504060194 6.9573027821628814 3.342352765222942 -0.625814994097419 0.2989416503420787 0.7964747946412476
Ni 8.071229845709912 7.348453739889749 8.208822673068589 0.3930267996539618 -1.2425532227045504 0.21709160964380675
Ni 2.3284437941252274 1.062932913658872 11.021402259505557 -0.34864827353858663 1.5342780435832155 -0.20497605732719537
Ni 4.230873378296156 0.6818698277118546 2.335427633632675 0.41029664247800307 0.6321787315319177 -0.7526233446739361
Ni 0.6494401964609835 7.02997573960086 13.292006062666033 -0.11521216109848545 1.1048788759478068 -0.563623608170339
P 2.90145430559476 6.495436952841246 12.676516277460813 -0.42157324383308686 0.6286668617239173 -0.22391763142670468
P 2.9837498563193687 3.4873788594111748 7.149165357298858 0.7095401403312168 0.03379663683447083 -0.9379232637284427
P 1.1416852614291013 9.232402723388098 9.41841901364935 -0.8057204816092317 0.7145008267706018 0.17665664155721192
P 5.071796654208265 1.020349208678214 0.015175165284874288 1.110258137981849 -0.0896818780378649 -0.273968782446825
P 6.486728132948113 5.116021421609898 11.526611717599382 -0.6900354946393858 -2.353264131953102 -0.3478016092675752
P 7.211397055083379 6.192278643220896 1.6268373935356502 0.19614714618165574 -0.034072259093360674 -1.12475993114245
P 6.057273286440746 2.05108559654374 3.481087809323492 1.2518937833791859 -0.9302024980454174 -0.4626795269550935
P 1.539130066509142 7.777600887193183 6.921944413943667 1.1675492583938345 -1.3698891636497634 0.225059972561264
Ni 7.3291805806615855 2.9837498563193687 5.591245126069544 0.16126627514407066 1.646310521402139 0.50476540038155
Ni 8.919164933784371 0.7833592818090677 10.90503415026544 1.186189499202841 -1.1068768802144422 -0.05873222373388594
Ni 1.347536028860235 2.1798064301890174 1.3436720727963012 -0.5604871194238864 -0.18144223587131333 0.9691431409746728
Ni 8.789819377512927 6.941479583706088 10.682507950824801 1.23763804479112 -1.2770684828726007 0.421391466839584
Ni 0.6050839575813057 2.1949489607098385 5.250767565121281 0.4925418617321646 -0.8218718945581135 0.1090685100945928
Ni 6.445626978677313 6.779862907894889 3.5613590722549535 -0.908489274738042 -0.14743245458477192 0.18991170679490518
Ni 5.059097068882305 3.8394799908934623 4.079055523497476 -0.12233720217904091 -0.07276350501597147 0.3828735132700439
Ni 2.8420217381441986 5.762879742023336 6.792817044380466 -0.283046576378377 0.5965825795948629 -0.011545538745754308
Ni 1.785802261662045 4.547551804452952 2.777860859593201 -0.19746200833833735 0.3925616870920852 -0.09134538178321687
Ni 5.537839733328748 8.847340480211784 4.021301315341094 -1.0839130723294172 -0.22256548827418443 -1.5472130064773288
Ni 4.617669926076457 0.23447145550604687 11.268889391337966 1.081835106754466 0.7895852666102661 -0.44611390928692846
Ni 0.7602958278415489 3.8007751607260194 7.130810633573343 0.23834949058131855 -0.5999890341732506 -0.058196662945390096
Ni 6.608232021628419 6.031212096289456 9.642024025147412 1.0152098534257483 -0.8746461009363516 -1.145656314975485
Ni 3.047695345427613 1.4014673075132074 4.51334217992842 1.057360004431237 0.7760669204088569 0.20295645579400529
Ni 2.784136990931603 6.552762246955781 10.524748704124727 1.1889956011930685 -1.1021283097858632 -0.22332113549328636
Ni 2.7084523109824015 4.13281057442456 4.876705102274652 -0.6015872318983058 -1.4206054590577082 1.414176158492597
Ni 6.587196585141367 8.611745456400467 12.186823251041679 -0.6352699688627317 1.253099630761829 2.1184545362042417
Ni 5.023898144796037 2.518378120916557 6.496078459060354 -0.12519498334281018 0.18428407619548262 -0.45281137591176207
Ni 0.9106600370071034 0.5554045224735883 7.234922990278627 1.005585957182739 -0.10216921187159823 1.2112338437659784
Ni 8.830967152875232 8.230142498213821 6.281670856494395 0.5563023919185774 0.9094943189637885 -0.8528647433952021
Ni 5.09706528580397 6.883510918528783 11.413696366396128 -0.8536697557950007 0.30724451378081924 0.024457618821732068
Ni 6.729129836119158 2.2272387286861948 1.2547125032519693 -0.37158225662694067 -1.3782827870300973 0.4226443654100786
Ni 0.7583946197299756 2.6410568611027885 9.884680279478076 -0.6947758375378487 -0.9658876101518526 -0.2482081285429532
Ni 5.186652375239958 1.4938050413479906 8.728239442587645 -0.07136585333749644 -0.016587729155352077 1.2070025792934505
P 3.68521079910345 2.6444602007826523 10.139168966832704 -0.6536654406507839 -0.4354001224138502 -1.6244247770726412
P 1.2220693474020055 0.5115611156004655 13.101072179672835 -0.04183107710317312 -1.1446060193340997 -1.2131925101542462
P 0.38096611407668707 4.025721927237597 4.3012954694362735 -0.04755795228462132 0.8816592990293913 0.6819054093330837
P 5.090445090810261 7.31492385087936 9.093171630873936 -1.4157219057131618 1.2095603127182977 0.1859756049652926
P 8.69680097574217 3.2515134332691287 0.9805310668456322 -0.23105861334686012 -0.043250583158519054 -0.5596168010037911
P 4.92254389186419 0.36261139035117246 5.817033869493701 -2.243419920034749 1.9539052194335251 1.6028277676281557
P 5.188666406392974 6.49268630844245 5.6960950284424365 -0.8655217700375804 -0.09984853415822159 0.018436609438632765
P 7.950742296824415 8.419237645358061 0.24697989435683573 -2.0052457786890305 -3.9001156413259537 -1.3943413831548568
Ni 1.2650726422062082 9.293700134498861 4.635905299807718 -0.6663276094994847 -1.235584504696201 0.4867293688154456
Ni 4.021871025079284 8.485859185118692 13.157461322269953 -1.3978987614888119 0.20515860565164665 0.16179515106434716
Ni 4.901359267884321 4.833637470364173 7.659342758903454 0.2829298482948547 0.2537288012508663 -0.34129697537983805
Ni 8.760261605498764 0.7212189613638964 0.7572151061148993 1.6547429684402082 4.043839022490255 1.140106074581217
Ni 0.46601603888741044 5.813920513002999 5.880437621518658 0.40560875008403047 0.47152540738149756 -0.9151430326091335
Ni 6.4228758860228785 3.6150740290433427 9.254560795758591 0.8015244412500131 -1.6063164975077047 -0.29514850184823366
Ni 2.182603695679317 9.010598218443958 1.1937833987640976 -0.2903189416700742 -0.5055462444116325 0.649862779075242
Ni 3.4331305573359683 8.203615097147482 4.575858266371122 -0.6269560496803976 0.08236220444800009 0.7506492516667008
Ni 6.714789188372224 3.717528539734709 13.178368084544449 0.8313569512304133 1.8043706309040861 -0.5081885671304861
Ni 7.1586965732461385 6.552818192265587 12.828256741247595 2.679760809095314 -0.8664141999448627 1.0323362286933897
Ni 4.487895455763167 4.965584483541596 1.7527991909856626 0.4672339790949953 -0.11057980453279666 1.59495427841735
Ni 4.559225725765801 3.079444308742511 0.4408844733007305 0.7611941170620826 -1.2242243424883754 2.1007046684199886
Ni 4.434215931004321 5.050257709932959 13.170221515014866 0.10146627226730268 0.5724314362699561 -3.2703753440322
Ni 6.953694309680395 4.23913463571084 2.576732808731523 -2.343061737498804 -0.6610812734988809 -1.22777246485095
Ni 3.80451417226472 5.957187127197833 3.7777312876169327 0.45523644041348693 -0.9674960922895531 2.789419901586054
Ni 3.2447626992192062 9.009656472395557 9.546304397334858 1.2619840777356524 -1.9412271097452243 -2.301026000583992
Ni 8.135296549656069 3.492264749800898 10.936026919476127 -0.4549752163323003 -0.10993111520520421 0.3928995300474782
Ni -0.005085428661364324 4.618602347906556 12.829306648228286 -0.09011048093485127 -0.44360914058720374 -3.247012243826227
Ni 3.17631361267158 1.1745531309401194 7.320366397101652 0.39829987512744314 0.08295381528541197 -0.33484170667279756
Ni 7.25755193567332 1.5298617935179502 12.37856274649608 -0.6282590847625373 0.2135612278930451 0.36991643888874354
Ni 1.3014277693617997 6.233901953716552 8.800717523863133 -0.4943166942444003 1.547732883536541 -1.6235462311224298
Ni 7.1034505798127245 8.280362737982996 10.143426404908942 -1.2385806112100475 1.179001466094834 -1.5808538344602259
Ni 7.387261136458503 0.3114522017990866 8.059825394305962 0.12172090875128071 0.3444522331793681 -0.31590836010340434
Ni 1.540761804711817 8.223429061037104 11.381067196873612 -0.6508171725687114 0.3145184217344132 0.6091760999891573
P 3.3899221297291438 3.0025568046324813 2.75430695174305 -0.1757834949236392 -0.01986074347966902 -0.09763378589508992
P 0.5630522463240668 0.5163164669339744 2.7169681195567033 0.2822762738712558 0.534543402974931 0.014787956942451951
P 0.6487949605545543 4.876547522985366 10.459298286182701 0.25325211872476383 -0.1959607412024625 2.3670637568403556
P 9.009842956761577 7.515068196710283 4.323021830499429 0.04369924066016345 -0.9782857267058894 -0.23992840503266422
P 8.515873843829604 1.602460157209521 6.76146995487434 -1.3971654828672133 0.2755099016816997 -0.44121544354404657
P 7.049053090244703 1.1558953701198222 10.017410526992782 -1.1308205355142331 1.5245996399531871 0.6168667837651958
P 7.142761484169732 4.516474184855725 7.418119636925655 -0.8180826027190105 0.01788716469306597 -1.6449455227338121
P 4.207656074726671 7.315632491470235 2.364864190808926 0.1529209885031689 2.5287300956363223 -0.9306501271057972
