# total energy = -340866.31608702266 ev
CRYSTAL
PRIMVEC
9.34743846512937 0.00000000000000 0.00000000000000

0.00000000000000 9.34743846512937 0.00000000000000

0.00000000000000 0.00000000000000 13.68092104727517

PRIMCOORD
 96 1
Ni 2.489325720179191 5.917863375697758 11.166272546524091 -1.1234887777395102 -1.3435340706950023 -1.9569985136468686
Ni 0.40529652486687195 6.708366910399043 8.018934821059945 1.970674468472064 -0.18618823519673097 -0.09474772259654651
Ni 0.21266357551808512 5.432852829220377 12.87642850130074 1.3864910338725025 -0.3830663460071403 -1.1589592027319782
Ni 5.687149896249058 7.285197346213778 6.400071560083788 -0.20341796881145616 0.01576677591595349 -1.6326849601989044
Ni 6.317232689750335 1.1131303778733088 3.689498511522978 -0.0423884922685399 0.5653444475161876 0.8306000184597307
Ni 7.389094126218328 5.749964683620229 13.478497956070965 -1.1802741621596706 0.051798215618214016 -0.1034413937158025
Ni -0.30385999070102626 1.7383338084270041 6.515921844566053 0.20509149985913708 -0.4156445370534777 -2.7735749641339975
Ni 2.1168957241628807 2.3851017798237493 2.3488776510291802 0.6658442421051629 -0.0036771917412710864 0.6998223988228206
Ni 5.507903413714892 4.368899325805363 0.9175370947208835 0.5071858368975846 -1.9311363011681257 -0.9380525902174555
Ni 4.676345928696019 5.227928932860525 10.489408627076907 -0.15358613289099354 1.0976713024557743 -0.33852249795849443
Ni 2.0571936338444767 9.115594077381656 4.021233498863821 -0.9909160138753902 0.7006317820979933 -0.3465199143416742
Ni 3.5509610588221743 3.9928705659292456 7.896490853391426 -1.197232387280564 -0.22034585491504635 0.751109479132571
Ni 4.77269932575287 8.64538052620317 7.98101132792846 0.18283243135062058 1.1268132141270528 0.899465988193509
Ni 2.82508571457986 5.988053292121884 8.533077594668427 -1.2379512051561647 1.3502940151266551 1.0563246211881872
Ni 1.115457890083937 1.92545083425976 10.213135731906913 -1.1379972557683304 0.18919436901290643 2.0141456522818215
Ni 2.6590378153445178 4.032419578632733 4.523733102956003 -0.6037927241900568 -0.5567214817338669 0.36217304749789886
Ni 6.814722066754578 4.575019694305618 6.46257975146898 -0.14919134625740757 -0.5509280149805414 -1.2368006364914894
Ni 3.4458865015544147 0.6889679176863124 11.963787594916914 -0.2472043698687872 -0.36450426673423675 -0.6042092429021853
Ni 8.394588748648326 7.439532904887203 1.2431700741456702 -0.7699111852201064 0.27449894391868207 -0.2945404359505895
Ni 7.507414003977895 2.7180668900839446 7.770530379322751 0.15600554096576358 1.0781034076261755 -0.3556241906357875
Ni 3.8394790985541074 0.6705254213346274 2.149464069722202 0.45876245128887444 0.005906595292422085 0.5550415229282828
Ni 5.633458208948461 5.995979920052056 4.501337574821688 -0.20045657219028704 0.21101017933641728 -1.4525012793250405
Ni 4.223144715763892 2.3144444914697777 13.697885144171801 0.11974810129562602 -0.5719863783127375 1.3250167286171053
Ni 8.290009605626203 8.30521788822336 9.004371709748716 -0.17571021848354257 0.14313331298878576 -0.02995489449087745
P 4.5288246527597344 5.004571887587586 6.167714800929752 -0.7089179333661855 0.08995544341422572 -0.17663812961445063
P 7.602075514648707 7.957287528769527 6.743394567053208 1.346067121529501 -0.8002810557612153 0.6730412740742344
P 1.2693634665819051 4.228612967343079 11.047316108196076 -1.558913839854025 -1.2485832309487142 -0.38597169257939334
P 1.2222149862991387 7.520921052750417 5.339786926318055 -0.26677355024996635 0.7356005848636944 -0.08440366035806109
P 1.3820561863061387 4.54397685072531 2.703391411486811 1.238439714756809 -0.028001370308932426 -0.4026928619888162
P 7.594868639490497 3.3979060992365238 0.04200084584745339 0.33343865567768377 0.5180528615190756 0.489845288736608
P 9.466431490239124 4.449147086159754 7.3769172179581455 -0.8417758325708922 1.738990048615747 -0.17823941266329948
P 7.4823628685382015 5.918237273241634 3.1600876317103195 -0.14233704233973551 0.0902331225556446 0.39027803326423105
Ni 4.531404545812479 8.601129751885441 4.164253983115699 -0.43774445427631065 0.754000941747753 -0.2119828276623317
Ni 1.101922798995625 7.9594374396468135 12.439596522839505 -0.03826624257005023 -0.5829017396736607 0.509357904848239
Ni 7.152388938629015 2.499888325793688 10.974670619652546 -0.47494523169632397 -1.1087267889389874 0.026028048632645497
Ni 5.101897418258516 6.048886422510514 8.17662143647036 -0.4448147308595307 -1.091492941559204 0.2719545802302735
Ni 5.405259190482327 6.482542141336522 1.734248043016299 1.3357693391479188 1.2480525552562247 0.06904080474874562
Ni 0.9979512394822998 9.180577470507309 7.205987151543642 -0.1747941344271764 -0.5241204078693941 -0.2904528961447772
Ni 3.7897694200957903 1.645906335580851 4.37804485972857 -0.7081954533778642 0.2650982194300725 0.584173921517865
Ni 9.081092681520495 6.137780563567038 10.182572411926628 0.45469085232266215 -0.595931062053793 0.3427527339897581
Ni 2.2437404659228215 0.24392608390541912 0.4236184392606568 -0.07669472174957759 0.5039164221176934 -0.03145950406086195
Ni 7.068430245151653 3.5181422019084563 3.0222110429183164 0.48884024451086133 0.739698666192468 -1.178441736936622
Ni 7.052950886835186 0.5581037773297042 7.032691248420264 -1.039122398377288 -0.2833697640457507 -3.182220958382455
Ni 8.54871866367262 0.1401582985535064 11.473915445625284 0.158533706704256 -0.4781398273742218 -1.4263017381115373
Ni 3.1400009209094404 7.034788813641408 12.946132350917829 1.9565328868643594 1.2061857398191098 1.7830549001454454
Ni 9.08777610011728 2.3487495911204026 12.40082521702728 0.2521198048925335 2.7167944648098437 -0.6244145142054666
Ni 3.2631534244236056 3.066137461116732 10.42751643189525 0.9643482906891907 0.3664485349448012 -1.3715200143849668
Ni 1.395086515710218 6.443806355790966 1.1478439605906183 1.6049142178435392 0.344811930511632 -0.6187053796358313
Ni 6.6025912952365164 1.7899223220432983 1.2755748395295454 -0.4586740053401262 0.8334452012180097 -0.45573009222045385
Ni 5.02630468232538 8.281924071239883 11.02598805754953 -0.013971888799059806 0.10659150930900999 -0.03916998533124222
Ni 3.485061616714025 4.694274315924875 12.81961103053334 0.11898756898051767 0.13960524523086926 1.0300903700820065
Ni 8.731031106066569 6.227721617746415 5.9136598325607315 0.10740603479050535 0.16799665188936874 -1.0398757316035445
Ni 8.831852578772738 3.564430717840308 9.521893582409977 0.06607735124504747 1.6092714663709704 0.8392265837864772
Ni 0.4945813888567469 7.03499445729054 3.2325555189205106 -0.5534970612592983 -0.026370519573728775 1.7816677899899318
Ni 8.537819550268635 -0.044688234444062294 2.886824611768528 0.2157078419224027 0.6464151868462739 -1.385108551702679
Ni 1.805382985482572 3.926737437856174 0.5549733201436022 -1.0245298452750937 1.3751357567606834 2.09809191338749
P 1.2281973470011551 0.68580848344056 12.220865524928172 -0.437605100484969 1.7534573889939866 -0.4344254172054066
P 3.6754876358100836 7.68038835521354 2.0499764765038098 -0.6380585873514624 0.22165531775508923 0.42034091408788254
P 4.892000684565113 1.7400069999358494 9.635158365376338 -0.6979033274232368 0.5085235818724017 -0.40569385359866905
P 0.8699296552030091 8.627181063255003 1.6851337963966042 -0.08725038577823682 -0.3042962297857727 0.7029151788155314
P 6.766208860436664 9.03589781590448 1.5033008776026762 -0.3620920577483183 -0.69980517243164 -0.4417790293570004
P 8.552139826199086 7.228766859404288 11.937944731428061 -1.9791997323342558 -0.04171100658554106 0.43726828597084044
P 7.455666583905454 2.764056287980696 4.966844690666636 0.26090963527002164 -0.02465096577946077 0.9614694264794991
P 5.172722960507231 0.7848969410308642 5.857814495407409 -0.6576005140391319 -0.6234819750888682 0.22791852505598167
Ni 4.663081913327018 8.85980142017747 0.27360326670671875 0.34156976942525047 -0.3321903850928795 0.40991714765139725
Ni 7.5139385161185315 6.166271556410391 7.956687423211605 -0.5033649204895976 -0.15856301728029465 1.9885354079128852
Ni 8.661860060449506 8.974307542989504 5.15800822266799 0.7126632593412306 -0.38254364073445085 0.3989238818646872
Ni 2.2413194793262243 2.8137098818074313 12.475276630707734 -1.0199154864315338 -2.1994175463118704 -1.1761495984683357
Ni 3.067371323011523 1.101922798995625 7.5007698446232185 0.6806111160016923 1.158980799998533 -2.403443838131287
Ni 9.217714844052795 4.637114728904828 4.194611659446853 -0.4904255867201102 -0.496129836193739 0.051854779887762305
Ni 7.088069213643742 4.999197110394368 11.051119580961155 0.13908973904703142 0.611574939238637 -0.20858125817995044
Ni 8.616225865219436 0.6859486950195134 0.06395984859929223 -0.03678708692136245 -1.8617674236559998 2.2736344959449166
Ni 3.0261117290448034 6.659648060431997 4.113743229169627 -0.28299258321199 -0.40430520078125853 -0.9110012425266182
Ni 6.163149511919025 3.9481524196816733 8.989022280828744 -1.127669134369445 0.014998787401677396 0.9134736153265106
Ni 8.840349400457322 5.039260232220684 1.6633131357359994 -0.389432140324168 -1.045367350845735 -0.2826328858797261
Ni 3.728749340935223 4.938027472216251 2.5311760722652337 -0.34451213988302604 -0.1361874777985719 -0.4263902056057559
Ni 6.836623115387115 8.40387075517505 13.013388106366387 0.19681254767979653 -0.406665473483319 -0.5764215312659556
Ni 6.476634560143281 8.03430107536939 3.393648340955636 2.096696061481228 -1.196968849206532 -0.2445944430497658
Ni 5.332022009075611 3.555130016436392 12.014229177817368 0.7646689629845604 -1.1903510867796983 -0.12750383398164492
Ni 5.209084496649175 3.674982874125851 4.541983976816452 -0.17647486456370895 -1.1039597065676472 -0.5735843189274767
Ni 1.7687223313055278 5.6573783043179295 6.210823318250938 0.7563298469912458 -1.07871610150951 0.38941774214646485
Ni 9.248664213247132 1.9587931477349043 3.8711669153976005 0.6338975139952374 0.3657471380024024 1.6738663195332204
Ni 6.790839361139497 0.8232242435097357 9.090301778026163 -3.123836604906291 -0.34069173769567135 3.5052397042783956
Ni 1.1189070949261934 2.6801723740121095 7.967111686734868 1.9718224660335786 -0.09804850483500534 -0.015842366348895295
Ni 9.201403563701202 2.4342319170890585 1.6175359246953982 -0.8467316339142709 0.6818624719102901 -1.0612670527951271
Ni 5.063862690607728 2.8409576653173967 6.902845978870718 1.717995448641951 -2.0279000257534365 -0.46998454525693895
Ni 3.382015453621793 7.997004795367757 6.0304682294991805 -1.296022398267284 0.35656341462060526 1.5831829968140347
Ni 2.7355746425759393 0.5359830638901389 9.612748816084128 1.518654992333978 -1.5595746133664752 0.7866747778316904
P 2.6296401209572653 8.130168405619202 8.197470898260747 -0.2990246969741882 0.10988097869355914 -0.085615164167659
P 2.7147205070662546 7.890911367292936 10.821704460733564 1.0706114701245046 2.3088185000452173 -0.18776586409649598
P 5.539497756172416 0.8812531423192945 12.441949273134345 1.0199337412639788 0.5345809410810858 -0.4060692346602168
P 4.488855005319388 2.866578994511501 2.340600494151625 0.348528974351903 -0.49876213161026367 0.49083644900528367
P 6.2662237173270485 6.834043222334372 9.785867117874167 0.3817525122917232 0.020572167724396826 0.2950996508881692
P 5.3827599057795865 5.724745294285792 12.627900673374068 -0.24584528473773146 0.26364940279868787 0.3666264552835621
P 8.73260147575085 1.2989668046182892 9.051174334803397 2.168859728129671 -0.06673272544085927 -0.3075047094207414
P 1.6960553436532229 1.918496339943666 5.41839701543027 0.34431442204992313 -0.34289260200173205 -0.11278786792770898
