# total energy = -340862.14091391757 ev
CRYSTAL
PRIMVEC
9.32721280913670 0.00000000000000 0.00000000000000

0.00000000000000 9.32721280913670 0.00000000000000

0.00000000000000 0.00000000000000 13.65131875529399

PRIMCOORD
 96 1
Ni 3.186819509393669 6.651711217416869 13.179446986212533 0.3515749602670784 -0.7414974099641036 -0.8922306467873342
Ni 3.6891458881342203 4.709944051170876 3.8728789244580955 -0.4777590469960353 -0.14867712562515037 -0.1510764790952624
Ni 0.8029890870497772 6.359359055814749 8.392749299965601 0.5024146407611864 -1.0928545977934212 -2.1218568770175716
Ni 1.8349985600100471 7.972258021897099 11.784541774932773 0.29013973577973257 -0.9193092481716812 -0.5288903184542117
Ni 1.699744645532241 4.091904269009067 6.180838998788965 0.39446044677669484 0.9480660085893995 -0.005350979899268204
Ni 9.436248033794346 3.5501051252129967 10.915758527981856 1.001548553888572 1.0583869030338546 -0.1406588833063642
Ni 5.715632129285524 2.3588428189450883 3.3769817935797297 0.4529885249195747 0.7977865714741357 2.5841080581859948
Ni 3.9917113478780695 4.326427710539304 11.554681007138656 -0.8019368461970834 1.6312939933886488 0.7651186489274695
Ni 8.205363727064283 1.6199783206846994 10.569205932131716 -0.4304623187926006 -1.0923113236954414 1.2258359099498695
Ni 3.7720275020953116 7.409966991327169 7.351398623271139 -1.5507449308899874 1.4081273811953556 0.6682425671340104
Ni 4.201685565016499 0.4959185834680699 4.077143954571364 0.08611344396031621 0.06869859091797847 -0.3614387404350356
Ni 9.082401557444816 7.83634187530234 9.661188696775897 2.549092461342758 2.373132331631939 2.5273221595452022
Ni 2.650495439578598 0.25337187338850503 1.9818032949615667 1.056496113769045 1.2532978628155642 0.13325976262881567
Ni 3.7112234011035996 1.6664744770650775 12.434945120466425 -0.3179223052096396 -0.5321430210635545 1.0050336842236949
Ni 3.9445156505290795 0.2991582288660654 6.5069967108795606 1.4054655180924762 1.4689226581058574 1.8420079816408859
Ni 2.8673997759127396 6.184585740216849 1.7868486887798716 -0.026466421721644744 -1.337209156918239 0.45752935021272173
Ni 7.1038105546111145 8.590120587013526 4.778153026495665 -0.9081455182453778 1.1159227924667943 1.1650540027758065
Ni 1.2558625829159522 5.958447463097035 3.5655603170128534 -0.17849678008974423 -1.0270240724518571 0.6456374281399849
Ni 8.721513035344598 4.562825921865419 7.256098758035256 0.01205050340663086 0.46022360921543315 0.7615072774271272
Ni 1.0382680328261142 0.37148610141403793 9.884250859076403 -0.22724309625551187 1.7981817284845547 -0.4088835641805603
Ni 7.40319543475101 7.804041736978318 12.046647650494716 0.2952726861309237 0.4394118146764045 0.318141106088665
Ni 4.235356803639 4.481222136073658 0.812747217201262 -0.4124669106564445 -0.8240087383954583 -0.3241163498354934
Ni 1.3350319661369454 8.555609899228692 7.204620004515782 -1.2695626614138589 -0.001615681226552056 1.6828060452250113
Ni 6.970897770574928 0.6733091150098675 7.381582416984788 -1.1719000791633623 0.19031768398407223 -0.9655477103139308
P 5.378891761421774 8.618382042145432 8.25491174751039 -1.280092614410905 -0.12609486944926027 0.35897150984146564
P 3.6014607595219963 7.463542502309895 3.4195595878145917 -0.39401024661315365 0.133392431551938 -0.21662135487560757
P 8.409965469563776 8.543493849652341 7.844361412966502 1.001059015846663 0.515828343063931 -1.7179144588923703
P 8.547467242354054 5.905580820295835 9.721513379023788 -1.119139242521563 -3.409498250310012 0.5886317001789023
P 9.298251918719583 9.076096361514399 11.657843712861734 -1.8649766746219172 -0.38537031154996854 0.30059872632952744
P 0.8248744594331111 5.4206496936414235 1.4553129057225909 0.04434998687028491 0.9999470137294069 -0.9263417295384304
P 5.4998190768624164 3.2737677881856215 13.236974437307268 0.570721652667701 -0.09197478783709967 -1.807315829575339
P 1.8839011373224488 2.6738601079302224 11.801906247216294 -0.4155383504929166 1.0422848552656696 1.0188975866899805
Ni 2.669019284427431 6.283071781384434 5.568154902282846 -1.1867764820545625 0.08731672023979802 -0.30881005849572624
Ni 1.2822959043165525 7.805496782193031 2.0891156777104465 -0.6779878194462323 -0.48155450948272555 -0.6708517226220834
Ni 5.1789069893151165 5.9710671821707875 2.4580974224568553 2.0333155403420533 -0.7641889380243485 0.9924298794167553
Ni 2.0502426524453505 3.6189679381631135 2.0791234345147998 -0.014946594007503292 1.489348272950061 0.8360188754824569
Ni 8.906648884490862 1.6268991126674959 8.369009677654802 0.2627513164644507 0.1994304449186178 -1.061878718237197
Ni 7.038016394709973 4.416584550573955 10.855992545787561 0.6564831126052372 0.7178728285666282 0.06482059601981094
Ni 3.169648110417485 0.27234155901466617 10.671959173207831 2.0705338012635632 -0.09014081995215444 0.4134362165482493
Ni 5.905991217664087 0.3592543943975428 2.2513485555443697 1.537727692694713 -1.8967377690835978 0.3162158640414941
Ni 6.9193835736463765 7.741586719300683 9.72767027226886 -2.6781497558544523 0.14181587972894286 -0.731177001874702
Ni 4.786119399046212 6.5162987403195105 9.159993708961913 -0.29057116689019635 -0.7613576392231404 0.5535394844614596
Ni 7.292099001722588 7.40474375209487 2.8844284685313264 -0.26410423094791935 1.0512122396622865 1.3076124170977286
Ni 4.480429322975898 7.788950306482139 1.2800844221344487 0.8739544741859658 1.7284780933408295 0.23842893766900225
Ni 4.775066651742151 1.78223451655091 0.9763064247116728 -0.7193555837597417 -0.4009349987574449 -1.5579589321399234
Ni 6.826167407775665 5.5337794590852765 8.538449692908006 0.09132378451666207 -0.7995552333387843 -0.21339436329787764
Ni 1.0700551744398212 2.9969174544479316 4.187119256607425 -1.052409088183865 0.6329433776120841 0.06588374717700266
Ni 6.026881224253071 2.9625560020697344 6.937053978513503 0.259468789058437 -2.2102328917598193 3.9089242407565195
Ni 4.626624058202788 5.323805241946847 6.731738704226026 0.08604428128527762 -0.8628105417540044 0.8148414700738933
Ni 5.609451137463212 6.189519835848789 13.249792826016105 0.645483933281256 -1.7492698332752004 0.8018957085465028
Ni 5.992743624984829 4.146627027180316 5.322662658364781 1.5841541024780526 1.5862320680530035 -4.724731674288107
Ni 9.036642250884709 0.5510946441869797 5.619606606884868 -0.1372583422652475 1.5068741976489661 1.2191392146559843
Ni 0.01703055806117002 6.214041078601851 11.74285099864611 0.1753176110308142 -0.43437039559775514 -0.02395882480844261
Ni 0.13407402204408153 8.334415044953733 4.059314987084686 -0.3908087089567205 -0.8410844629308225 -0.7644807582331544
Ni 7.82153958840652 5.939373312686229 1.4118331699988655 0.182915220872414 -0.8664777061929464 -1.8269215196214084
Ni 5.215059266572959 2.5931330801524544 10.969285537457425 2.3844647259256226 -3.0704196227377314 2.639195486078442
P 4.05673134910728 6.855109749450351 11.081226083254638 -1.2626397090417802 -0.541399763775132 0.5871790268927759
P 7.128425069493324 2.8034430769558183 9.14662967829756 0.29663022860008265 0.3895910344995355 -1.2726117326528277
P 6.26721551942924 0.38909028306946936 10.784705590200884 -0.3983070742162947 -0.28208678356826905 0.9721557025487515
P 7.598190147948238 5.584239680954453 12.854409472393007 0.03657677068276926 1.062042497508571 -0.24233624314320848
P 0.4036621878062928 6.671746070757903 5.439258416127781 0.9280024050703051 0.11265262790142534 1.0400559659351507
P 6.208649949537085 6.226865996359729 5.0678068254015285 0.7297929770429817 0.977457574377639 -0.2613549503375563
P 3.854218902300706 2.570971622266842 2.6032241918049985 -2.6331058282409363 0.7730242769277912 1.1315733545198576
P 6.848272902383788 4.2777396591239425 2.9879325502470855 -1.5028493927602893 1.4908670235874324 0.7589821970124284
Ni 1.9215364414337481 2.1897124671606556 0.41754481150871103 -0.0654641431410808 1.1806536569862764 -0.5397552861931737
Ni 2.2153156666118368 8.89867411744869 5.25482956972046 -0.008786745053694544 -1.7910410036747157 -3.276516681043247
Ni 3.7368266005547808 3.0036423749595165 7.7705896878593155 -1.0781712847496336 0.2913507253686982 -0.8032303681975264
Ni 2.4580843643587746 7.891269832157716 9.404748170338415 0.5162060381183239 -1.7047524675891157 -0.4463877317736054
Ni 1.289170060234775 3.333835039357063 8.322471548816306 0.036450015296917875 0.012028906140076059 0.7581666430896684
Ni 2.164538319503556 1.6973662062389618 5.924604603756902 -1.9120489455193714 0.31064942569731013 1.1273390047235359
Ni 5.075458870876846 8.143999993297681 12.498369235565912 -0.7892710778039569 3.295189317752086 -1.1123607861471487
Ni 6.568372570022951 7.382498349293024 7.011986008907294 0.8491795812341312 -0.15741784793225794 -0.23460133639279598
Ni 2.9142410391709657 2.4842192149461 9.939812133688696 0.0797993288168303 0.46303151097787354 0.32570940535422616
Ni 7.271886931336172 1.1751355551381844 12.886285222529404 -0.17607505802212903 -0.6689565624818995 0.14045705170820325
Ni 9.08072265912015 7.816605492774581 0.14341429305698236 -0.4219491391152669 -0.9444443526764121 -0.13646361427809403
Ni 1.936002948664634 4.61176580802948 13.10755935811414 -0.7576313394114887 -0.2921976467500258 0.15221650623697655
Ni 6.872495674323575 2.859900696729224 1.4195187934406772 -1.2520765888139533 -1.1715447527064728 -1.7428842414638308
Ni 3.892469802464383 2.979932599730044 5.408106457713574 1.0399253538945576 -0.32148276886738825 -0.605904371216421
Ni 5.011446208642436 1.3020509412701415 8.942569846868416 0.11689211990406966 -0.5586197271978444 0.2711991901214878
Ni 7.951467664309964 3.5355733274917074 12.937600749822872 -0.07470340235116167 -0.6408402638616576 -0.05558287947162685
Ni 8.736856300589476 3.9439280361154463 2.156621381181457 2.7287572935986746 -0.7615898098386045 0.44888170184005277
Ni 8.174994321813628 5.360097427398411 4.477687122378941 0.19194210696137265 -0.24638264529844014 0.03225037539327349
Ni 1.1924002262435165 0.30514070322963105 13.29141551364849 -0.7895191892590209 -0.054712046830899315 0.9358514688010786
Ni 8.048470678624094 1.8807671937830692 3.437798019948231 0.9786577653333273 -0.5411192564202358 0.7956610404907007
Ni 4.66337327708718 7.584553762666772 5.341010218889523 0.21062271409001146 1.0582413785949258 -1.9900562154327854
Ni 2.0334070331341003 5.493933605513165 10.413785650610775 0.7131862217242363 0.058537077003944345 -0.15882295580990066
Ni 8.962789379025164 0.13438275279156206 1.8601699095032722 -0.5235804762055241 1.1596402879594028 0.15625133842798253
Ni 5.287998071566852 3.855179605230933 9.317762582694805 -1.078146345048969 2.058119229649294 -2.6815101876862526
P 8.798546486808098 2.1400170767504942 0.7798753207255615 1.4978216005283946 -1.0431446321628037 0.22460514441203255
P 3.1815403068838806 8.90726448054324 -0.0587315942820392 0.4133025191838624 0.5309937379504598 -0.9391203693603374
P 8.498191576525059 3.364176462968973 5.622431819676767 0.39367908852598005 -1.3276001730735654 -1.5403391621756313
P 2.3390224915010958 1.082245841719491 8.210531003019092 0.2468194757255427 0.7453427518521228 -0.6840479095973832
P 2.703940369580517 5.584743350451854 7.968985102885288 0.961341385542067 -1.255679218563547 -0.028898685312221197
P 5.834097060516655 1.2465167155753027 5.476198842876926 -0.03889307752077173 -0.19744041107178253 -0.8072235485173195
P 1.2118661195967457 0.9999052061074593 3.5296169693243034 -0.8265636436068282 -1.1578297171132255 0.6770555374399501
P 6.926714762997426 8.261466912746926 0.924503084182762 0.02574239907142663 -0.19515367192013486 -0.7442595460902731
