# total energy = -340895.67133922223 ev
CRYSTAL
PRIMVEC
9.04562648141122 0.00000000000000 0.00000000000000
0.00000000000000 9.04562648141122 0.00000000000000
0.00000000000000 0.00000000000000 13.23918870148716
PRIMCOORD
 96 1
Ni 6.134743966585827 2.1566402049918305 11.422494353649329 1.6514887231689686 -0.32280662988513437 0.6483409431140771
Ni 4.663454707291934 0.37299822236944835 6.042538276304205 0.22815275255397482 -0.35731777628812655 -0.5316979631063359
Ni 2.8594944381792167 1.481682684268247 4.778168630266059 -0.04540362494577987 0.31650717002966783 -0.2128534031927431
Ni 3.3013552068017242 4.379919541216097 5.063645892374963 -0.2264457971651971 -0.429299408832751 -0.05550960303153021
Ni 5.20488973363219 4.591053511909226 2.803557187788521 -0.4523503771149435 -0.6009387996810296 -0.5555655137525529
Ni 7.118971461089371 6.061492482301822 2.470830095084717 0.460047231538569 -0.05956706093035548 0.17163990506891086
Ni 5.060955723021288 4.594228526849172 11.404157963949142 0.24830968711782397 0.04313565484720958 -0.20197917948240054
Ni 5.83683529982744 7.810392022242307 12.243508893549073 -0.9695725152026076 0.9555263215221868 0.51058380683554
Ni 2.087070290737906 6.378541694965982 0.3951075429284709 -0.2638823447451004 -0.46673184264759615 -0.1234342918979616
Ni 2.7123673213751496 1.5013026483843257 0.40698625979211067 0.4612847034900959 -0.4176595106009775 -0.07158928220221218
Ni 0.6337565006424795 8.952655659241017 4.67256003503709 0.5927043275863793 0.01974787205088857 0.5903962482784928
Ni 8.738129578569314 2.296983101838748 1.3743337104796043 0.6030872134826 0.5714184216244095 0.3141096163317687
Ni 6.972785089452696 0.7595196565201497 4.807387813340175 -1.264469048941035 -0.43916241766975983 -0.13033127612811102
Ni 0.6969827169551379 7.3041083009067 2.5149166700542627 1.5852393651224312 -0.44893235257233005 -0.08739873843064302
Ni 7.477006407921329 3.9574073679113826 3.9307281967892234 0.2874315928199501 -0.4928046284752481 -0.6194877663278104
Ni 7.749487818280316 3.9708491690531496 12.684956277035525 -0.1721448697297874 -0.9863217096364886 -0.5285133947307671
Ni 8.234677138362489 8.762724637320636 6.937546946432596 -1.2871675189798155 0.8204719288867934 0.19502948763744477
Ni 7.0341596659983825 0.7553794732209662 0.41365740941664186 -0.7017862074174107 -0.5065849700887921 -0.980620288376337
Ni 1.9200699322726933 6.640738227869928 9.12193370648651 -0.5337486749877776 -0.4670987390687117 0.012394774119927041
Ni 0.10383474785083854 4.801717110018658 1.29583576276207 0.17474142681237004 -0.36580884447827317 0.7775414480718544
Ni 6.119203580070648 2.0876039827078685 6.910486049867515 0.6867354837318753 0.04603534499250782 0.5575519480549623
Ni 3.489531377159856 4.400842075563949 0.6361544962566668 0.18064467967068246 0.17107246260121506 -0.6157023311434493
Ni 6.026051717245668 5.790376961560875 4.858981353832973 0.001939126004241822 -0.8628905030623205 0.3639861894472377
Ni 5.214441915331857 2.832402786483663 9.381937579500308 0.26833035321412496 0.2014492751208595 -0.5673023425735069
P 0.3424547595596965 5.561848250897613 12.487415169448543 0.11395617720419729 -0.6979256960207401 -0.41450219591891846
P 4.1397762459861935 6.309297423270001 12.49946213496712 -0.9237261462924543 -1.1504995020003992 0.43207800001915264
P 2.359280332298607 8.203587319705523 1.4080141965975423 0.7345461754572511 1.6799050695281326 -0.09207840329449948
P 6.526356279392374 7.919256138488047 5.770842930897587 -0.8222524178259839 -1.2633035678780244 0.6496480919612747
P 4.7229025653697905 0.9506229916491267 12.662728458767916 0.21645757560423365 0.8127987286122519 -0.00975733649707997
P 4.095235580560849 6.283879212497211 8.33572402409227 -1.0024237574046737 -0.07532586642650899 -1.3434224848178025
P 4.78829340013011 1.0046072912548245 3.622228910396395 0.4300383438813046 -0.23558144091787814 0.8736258872019534
P 0.10324135474525313 5.485277021647908 3.4221713094866404 0.5838756735511558 -0.915519956332578 1.2045762292401447
Ni 1.474265270448429 0.8893750538759733 2.533345325145866 0.34704390516594424 0.6141393575317037 0.5667945496991529
Ni 1.9194819665430733 6.3947695491034855 4.704624972242566 -0.7077668504808778 0.46751705755305295 0.2671931542858882
Ni 5.994283476592986 5.777152255457737 9.318482508834428 0.34276944616030647 -0.38650853891946985 0.2697935680232128
Ni 8.508741533378146 2.3491040023628815 10.158668349770416 0.641616994126682 0.3838309920873067 0.6425253648735644
Ni 2.1912578180265165 5.085930698090211 7.087401319659437 0.007297819212993883 0.32281614296683114 0.12760487833588346
Ni 0.5910955164265961 0.14043516223833422 9.0592855057142 -0.2751070098163262 -0.8959700592251086 0.5848616916135089
Ni 1.3013943003136286 1.063250088564432 11.515142375072157 0.9851338599759744 0.15763227793590917 -0.6578452830600864
Ni 4.17264805308524 6.744310652549091 1.660617842482079 0.29707734343983033 -0.0345859655049856 -0.07660344758735195
Ni 5.734728266659023 7.972571061724638 7.989241247003349 -0.628130272494157 -0.022764290279709182 -0.35516756271434313
Ni 5.136269610172267 3.044857418661784 4.793473830489391 0.7935092842550205 -1.181590566978249 -0.24962892014987978
Ni 0.8724841553079908 7.295668731280005 6.635918718012369 0.4303939274485104 -0.35314487585735954 0.537656751792932
Ni 5.056740461021245 4.484613623594842 7.419386670981259 -0.5480231826289207 0.2053020732080464 -0.6007408247376106
Ni 8.225649603006175 7.172485388111374 9.327114750307905 1.401711707476999 0.104678094336381 -1.044453323671898
Ni 4.426206012577081 0.5375236973942931 10.545092995716395 0.2144390025123081 -0.5593095541760174 -0.7234204978577349
Ni 8.235228921585673 7.149708500308567 4.522533794904668 -0.7878513146382947 0.07529167075446387 0.7248420607956098
Ni 7.156954047222803 5.979928067163656 7.055508249359543 0.4118719573849229 1.3832738124867854 0.4877025313619924
Ni 2.3118631576114312 5.142547275039282 2.698994266995615 -0.5902882619457188 -0.4724178372887799 -0.9598676292100177
Ni 2.295128748383793 5.303161421118165 11.331302678110635 0.6874533357345063 0.2932523132667853 0.5372590021338812
Ni 1.281692925558064 3.102478060164514 3.7508604344719485 -1.3531736506672956 0.20979070510701933 0.12031837197679922
Ni 3.770271444613347 2.6208255800866676 2.5462136335605887 0.27674428830943304 -0.11579580151609735 0.2680457320941706
Ni 0.882296851054013 3.2599443281832787 8.183712268919056 0.5661985679863667 0.5391533909431165 0.29170630893590405
Ni 3.464203622653161 2.693244866722595 6.970367193459967 0.1509075576175659 -0.0659559951758348 0.27887753260235193
Ni 4.150658134797463 6.961116231126397 5.976620081512549 -0.1321061086403467 -0.43532890285628256 0.4909524057578577
Ni 0.897779345558891 7.4755048339041466 11.713199987938543 -0.1582745395055984 0.2827128471880421 -0.7778252978608604
P 0.14636637960620555 5.7100608428948245 7.993809288441163 0.33653503521482037 -0.9852701284435225 -0.05343112323594669
P 8.407276739699004 1.6326089642483184 8.053425395173957 -0.24964897475453776 0.05910323392005949 -1.2667131077802056
P 1.7352225525068699 3.4119651289831037 10.382661583251659 0.20717872140546897 -0.9656983769591819 -0.6146895736082189
P 3.9183845347178536 6.02289479355894 3.8293294361843326 0.9729828264357373 1.1422107796290457 0.31609733618575886
P 6.9849062291094715 3.966082123829925 10.333279698464892 -0.5705969541643786 0.9796918630247965 0.8859090754446808
P 6.4380800093099335 7.7419075831815265 10.152406062468637 -1.2487575517430491 1.024192516540333 0.4672383499703695
P 2.5466604875150995 8.529844980258188 5.692705903681772 -0.4570076733812968 -0.1421776339437358 0.432286516485533
P 6.986796765070864 3.8621207372065536 1.689042819539878 -0.2466577533366978 0.4811734719942229 -1.3036344062865872
Ni 5.248055463812885 2.918399558660501 0.35099111739111355 0.7234652350527412 -0.30559720798538337 0.5839211820771104
Ni 1.4432930449373853 1.0674110768048175 7.02757354526398 -0.41744533770764236 0.5195055348052021 -1.2321009170229749
Ni 6.7866713219615376 0.7823897142770342 9.206691227817844 -0.5748626714192681 -0.24666752352871066 0.3082850392301916
Ni 2.6198215155330096 1.5996014727501295 9.215865302325232 0.09402344283601226 0.26244098431288354 0.2516444079180118
Ni 6.577228883444392 1.8890977067616495 2.529333589744538 -0.5035289568712876 -0.01030600991169838 0.5822895600109584
Ni 3.970613982761302 7.110947990286715 10.431355095853439 0.9935542228291857 -0.46427206825319395 -0.38688469131196596
Ni 8.386688893535705 7.106217127569929 0.4211544247506235 -0.9979014440542878 -0.1378242420710465 0.16701371915080915
Ni 7.545825535166663 3.749167997733305 8.206787662399975 -0.10737158200814413 0.28508263297179937 -0.02086913013952535
Ni 3.051894916164001 8.421867335420183 12.39508464951971 0.7941212068074066 -0.17974633622612912 0.7381279792712385
Ni 0.05770386126753805 5.023624422003742 10.302008967275732 0.09628035719098901 -1.2101285265169417 -0.943570177601575
Ni 8.37109423326087 2.4410527968487927 5.842215638534791 1.1134637894033406 0.2807264128856326 0.32877673142564023
Ni 3.6009734969893126 2.732810437512696 11.476258844528415 -0.592441817953612 -0.20597853044978076 0.305176575508197
Ni 1.3105756113223055 3.340613226287101 12.642696918641104 -0.5285272786878381 0.35166212066424596 0.043787429498595556
Ni 3.0402712859707504 8.451347032540653 7.836210049711238 0.6609491187963907 -0.27444006565628865 0.8367174442113785
Ni 5.466670167712098 7.73835265192398 3.72712290112321 0.5231436457784215 1.4910457152571417 -0.7214736585440091
Ni 3.1110442685637425 8.246273631675912 3.5304682649439623 0.15661154998087867 0.283566196327273 -0.09903246601482944
Ni 3.463624702550151 4.317369033211171 9.296889693554808 -0.7958194204454359 0.6339551067060502 -0.12707883062908437
Ni 7.4587885159297285 6.177665464848065 11.542785809990892 -0.6536150470288227 -0.3021128489812087 -0.49032737057934905
Ni 0.4848229722044881 0.06165318184526051 0.5387955124955934 0.27691269556649734 0.32104542421965354 -1.1728891825495091
Ni 4.730916990545837 0.14502129492936788 1.4740780259776118 -0.35944639259535516 0.17466172261437016 0.3419371800669982
Ni 5.960850840644149 5.5065161529270945 0.25411969290429415 0.09558024580017087 0.3252620334041624 0.853010267834131
Ni 8.059617126588183 8.811941891703109 11.260605678781163 -0.36406409387302463 0.9383989178132807 0.4339945003155752
Ni -0.11406082873291651 4.998748948827523 5.6224051027977975 0.775149293690594 -0.5308916651549567 0.5935977859349262
Ni 7.988129539493037 8.614068809619557 2.4885568095514206 -1.73055811579831 1.3474529461334341 0.07826540867080715
P 8.600916468529295 1.438046581503856 3.6105383425662336 0.06990752362441509 1.2540367978641178 -0.6617335623708991
P 1.9250540725345464 3.1473443681478015 1.6046824012167045 -0.875970219064414 0.17876057527409214 -0.30933430643031246
P 4.6110805292227335 1.1365287097282655 8.206112858654905 -0.06919224272494535 -0.8476780569879402 -0.17100201437459583
P 8.590676819207303 1.8138290477437187 12.38303677943847 -1.3986094144025913 -0.8236757805360717 0.7905638284734514
P 6.324096068403198 7.633595250158968 1.1903167192365363 0.45103217252415223 0.2613379810566918 0.6993374887666021
P 1.5332065734361515 3.1643501461737253 5.974488931883343 0.4426156663256829 0.08682769641852144 0.014273222089562514
P 6.720131692621806 4.0812419961959 6.110017746248666 0.40137028652265067 -0.5890199367562565 -1.2155142163088872
P 2.2604116334564024 8.478058767918606 10.273623790975014 0.3400615603108401 0.9473399290566524 -0.1723094203321097
