# total energy = -381174.07283009076 ev
CRYSTAL
PRIMVEC
9.14410884651515 0.00000000000000 0.00000000000000
0.00000000000000 9.14410884651515 0.00000000000000
0.00000000000000 0.00000000000000 13.38332759756089
PRIMCOORD
 96 1
Ni 5.3528605920068175 5.119621813826294 12.582041062693424 -0.20571884903049087 -0.11914877714873028 0.501459990157401
Ni 3.7872154608157365 4.492290242999669 10.631112573086025 0.753888841649921 0.6495815003893974 0.5428146418447878
Ni 1.49029767628821 2.9737555593400917 9.288122828776368 0.3499304826851199 -0.28083799876283244 0.5367882331450498
Ni 6.615040190933146 6.956298324061193 7.505771467762093 -0.20354061043224944 0.5639262270124223 -0.1797828458910194
Ni 0.5801717451086572 8.138988186886715 5.8970283238952605 0.5669377601452364 -0.2024805445988513 -0.057355655101333475
Ni 2.8926656042334593 5.6390437590086515 8.825862535303818 -1.23700581052376 0.16380781061900176 -1.1637573954515699
Ni 7.875162365423414 4.976717684551773 8.182526031186356 1.8416603684934796 1.896705630294082 1.1276647634940709
Ni 3.5358256270548507 4.833054594263061 0.6978107023083443 0.2796851161053119 -1.145192230854873 0.28328671741364114
Ni 5.540095359797006 7.521779144285512 12.289226588131449 0.8848240699106181 1.8466148842852779 0.22003423721189846
Ni 4.902879007568681 9.695681235753776 10.836359406005787 0.2576589895432079 -1.0020110953472872 -0.3761410796422167
Ni -0.49637239062244704 9.026963429382201 9.701962323954357 4.508625568486022 0.1657667341175855 1.032185047827506
Ni 4.43855946083835 2.597548643124815 12.714669042717963 0.10927419834749567 0.17792548096730645 0.6714767578005919
Ni 5.053528196831398 2.495756426137103 2.4407308381973567 0.1755685506993557 -0.022490467793032234 0.5210618235487284
Ni 7.836208462767318 7.029323175378465 2.833277362078402 -0.11049778634195163 -2.3326485125852794 0.6901234263675017
Ni 2.7787025786928683 7.701598039997275 4.871664678435619 1.4096605300104303 -0.37045611344229745 -1.1087432439992195
Ni 8.388777801641776 2.6528339237489353 3.9809242574980668 -0.15817658047515337 -0.21732249470769022 -1.2815797404793927
Ni 5.2154612161123355 1.936987381628647 6.876875339953201 -1.3979519833242504 0.9077423692696882 -0.8579892091059611
Ni 7.365515472339499 5.109883338162271 4.2825170763205715 0.8897536460017514 -0.3123838918899136 -0.21723816252400008
Ni 6.0411925113355105 0.8886711091603048 12.901474037403732 0.8695198354533799 -0.32253614983256707 0.25101268787128383
Ni 0.90992658961197 0.7794017545665153 11.568159674408724 0.583028495059512 1.487760873858283 -2.327615835257378
Ni 5.661501689741837 5.249138968103509 2.506590366011972 -1.3217853661640009 -0.1716779573956979 0.9486604476402888
Ni 6.5184235394157035 8.64250852720547 3.028472990819859 -2.3401725888764666 0.5991068886786134 -1.272214754324725
Ni 0.9638896321318484 4.4413209816369745 7.37730497156356 0.40360251828727906 -0.4540383063403277 2.016623167288037
Ni 7.11710661798375 1.3586042241630722 1.8440219726770681 0.12341603706551647 -1.7965755603396996 -0.060685490805514844
P 0.3749075383825461 4.828473395852098 3.0775896557792373 -0.35317161533023694 0.007812811176199447 1.0406794584517627
Ni 2.383933122010016 8.600765671424936 2.16140758147078 0.44484815520062737 0.8140745100008819 -0.9075438801056369
P 7.1340415071196865 0.8242133731947925 10.69718607304199 -2.9930859818525746 1.2126327809960342 1.5118659944366026
Ni 5.674147991942162 6.880749698769019 4.5168330304947295 1.010976789181007 -0.27028542005796674 1.5545378222735162
P 7.555557481471337 7.366667630023693 5.460986018614157 0.6971458804319219 0.46592271648273953 0.429135372451061
P 1.4685529860261923 6.12060909456748 13.061980575742332 0.8948248898770718 -0.9133751420754335 -0.49432620732609706
P 3.324459556656812 8.249567892243562 8.008476153593307 0.7815040322640282 -0.4092682012134888 -0.16567545995535982
Ni 2.4063819086345966 3.853821147892497 12.302597103733266 -0.7589338602729961 0.885323892365172 0.4811565027133584
Ni 6.752613304891116 3.2176289358279004 12.097885201166878 -0.12589946560900253 -1.1511258227304884 1.0997071019388802
Ni 6.878171060142489 7.876378531867841 9.96759410686709 -2.1898707831636997 -2.9933605756701995 0.11131128338218249
Ni 7.931590659623124 3.3141815785851096 6.032548585471472 1.4141563609982546 0.4262187130248983 1.7170395124865847
Ni 3.150895231230674 0.39957742898721277 6.171172357508125 -0.48821598066330113 0.44703102178455917 0.2694374702353747
Ni 5.8203165679885664 3.282405801183717 4.842315747457919 -0.2516045558190118 -0.17462984093517023 -0.8561303015203514
Ni 1.361850382717747 0.542910416955295 8.075191569973324 -0.6560691649962701 0.7205462616337333 -0.09080467878839844
Ni 2.996835289458398 3.7066101434651544 2.832781751392026 -1.4411825118781116 0.4389811548968891 -1.3147917084549872
Ni 3.441065229584166 6.498233347616488 12.027100656457762 -1.8877309375992972 -0.1649756056748578 0.22675741486834494
Ni 7.912342311010194 8.609443430490812 12.130835082113117 1.2125602758868859 -0.6345063512238298 0.33667490322679433
Ni 4.306024750721579 6.6304022933890705 6.651767503143993 -0.26840671497801516 -0.5630561657026432 0.8681934033324725
Ni 4.6603589591543715 0.29336769313256156 1.3903406818974646 -0.09275640319813057 0.04295490629497118 -0.3479797867166523
Ni 3.758612689100181 5.398142217817377 4.202311356516015 -0.24173100545904175 -0.8403874368637978 1.7053677325756114
Ni 3.2125173791178634 2.090178633083475 10.701884316043094 -1.3181081744227299 0.08941962551541374 0.7614566266948498
Ni 8.373406555077246 8.5028048359426 7.659974057628602 -0.559218537124108 -0.8305138865038277 -0.8421715253474142
Ni 0.9607806352062445 4.349934760241431 1.0893824642121273 0.6585623637317691 0.2424835673543501 0.37159434081179876
Ni 1.1604056701558263 5.087836892316297 10.419147563574375 0.6478326360190907 0.4136167079901716 0.21744076545310942
Ni 2.5061441335120613 6.323910061176158 2.183048028894704 -0.6230752265687528 -1.6135729219598016 0.6072328602198575
Ni 1.5476861018914152 0.5248242845460247 4.078301698851421 0.8606189334193244 0.23050222662275785 -0.8895605561543389
Ni 5.405210613768823 8.775482154535268 6.226231778649709 0.28651216632947435 -0.2729035744071042 -0.32166788829500087
Ni 6.2055029988536745 0.6171880111514131 8.657554243503672 0.009850924652150777 0.20157885872018833 -0.11839235859867996
Ni 0.5265744669329675 1.3551386070018845 5.80991605886156 -0.33511038695315193 1.5523446712769393 1.8445945114211395
Ni 4.418003504694946 0.1947951167845703 3.780388469331455 -1.309766487326254 0.2582094627300392 1.084362758272326
Ni 0.9591804162004189 8.8701419668113 13.399119287943956 0.8659850828272442 -1.4920253055615917 0.9724902030700349
Ni 8.906572095492495 5.74530744510407 6.10099040955606 -1.371240535471335 0.8949475314978651 -1.075071048557755
P 7.480063720830791 8.123854687145908 0.7790771387110478 -0.856005603017029 -0.04814005004033645 0.5534613229253564
Ni 8.323113957751302 2.266605064502889 9.724754014651616 -0.13308235651068692 -1.146964235153631 0.5516245268269339
P 0.788853105220351 2.9709483179984435 11.31909610187688 -1.2693258628127042 -0.37599221276917827 0.6603703634747853
Ni 8.256105929895934 9.292974692802032 4.339129167103236 0.33137405983917123 -0.4455120140368715 0.1864358324311628
P 2.983219711745974 1.5849392003470335 2.6369972420564256 -0.40479602437474804 -0.3837348328290746 -0.44525978881674927
P 8.934278744564788 6.54538037158241 9.399110361376984 -0.3505290355010673 0.44416449887004145 0.5544707380264774
P 9.145023015577705 2.5384594133211325 7.840809778217212 -0.384999301363795 -0.7494030379644255 -2.728461873845443
Ni 2.27432269216527 2.5121701010825706 7.067936002783604 0.18077889125570157 0.12672016173808498 -1.899115268176839
Ni 2.1156906960906356 1.9917605921709032 0.3252458845503268 0.9057538780847497 -0.7119772890177996 -0.24419849316292783
Ni 1.3018924625966162 3.8995599791332927 5.041044659764238 -0.635974451128924 -0.04645829146253934 -1.0943615213562508
Ni 7.622583797543914 5.966805187836137 11.837900819728418 -0.024926588038350617 2.9863895436690053 0.10591530917759179
Ni 2.0933607828779164 5.893935786365145 6.08222669869918 0.7342988353331354 0.36591066016346013 -0.17265034861129622
Ni 5.24687122916954 5.236574962880628 8.77358749523237 1.4997676685111718 -0.14355137436281082 0.12898016141685528
Ni 0.9914774077922802 7.319566326600794 11.342182232871208 -0.5694103900554451 0.54543048220108 -0.3352561685023968
Ni 7.313759817636799 1.0313640095260568 6.549010582698482 0.6088662820582224 0.5155946297865701 -0.6693800231725633
Ni 7.354204209995463 5.534343715484639 1.0324951357604604 0.4617806692899079 1.875323822184196 -1.7127182594034116
Ni 8.726945226061428 1.8132858804240322 13.250511063721811 -0.28697573622945416 0.2601629869119842 0.17472548597277004
Ni 3.675501885991906 3.4609993863424497 8.565021350889097 1.152684168356544 0.5506567635970259 -0.5213713843693473
Ni 6.6059783793058715 3.2262518302421483 8.23520249762555 -0.10197740757576632 -2.4378806796529173 0.8698041994630181
Ni 3.4390992462341514 2.693753809755045 4.87715205800931 0.008215703041572948 -0.8386108045793493 0.4714053368638656
Ni 1.3965979954156726 7.328481832490394 8.019423480414876 -0.843538838008586 -0.9671633915404826 0.1102807852351391
Ni 0.7804112641564761 7.079981537048599 3.865894114483305 0.031398054695307216 -0.9682082878652293 -0.5903299138169317
Ni 4.296103392885461 7.089985191862159 9.886933010454019 -0.7067258108108732 2.5520613141630952 -0.6367969470302194
Ni 7.695983557313979 3.385441616941671 1.5830070501988567 1.5583029457429034 1.0716638226484188 0.28652990694128716
Ni 8.083766915022828 4.28303646168932 10.449179559464849 -0.5853419736840371 1.0310218807573406 -0.9061171749614394
Ni 0.6904881001376868 2.1115392707840943 2.103604927747781 -0.12505871487526204 -0.35137595688239487 0.9082146809204167
Ni 5.447950177387271 2.858676952549725 10.302177040713694 0.30800967408161795 -0.4940454428608846 -0.8030434489977009
Ni 4.36433673129386 6.998352079534288 0.8296001675738315 0.16036536059635606 0.9393463693282146 0.7940150202468454
Ni 2.5030168483692483 8.892663906304719 10.082356327499735 0.3473784056872275 -0.5857626061612234 0.2348435343105891
Ni 6.286656962720541 4.7641903123609355 6.6545244518883155 -2.379167224972109 1.4146543836805958 -2.1921099569068634
Ni 0.40100573875126955 6.865085840729139 1.3366693364420767 0.35713959883904944 -1.659452715211052 -0.8756943396952079
Ni 9.100134586437148 8.889774367985629 2.0223677524926127 -0.6002104061554372 2.3132773071475192 1.5673516862087329
P 5.751699177018768 3.8128646854519683 0.8469063075191193 -0.5569405397232086 -0.7066918722491442 -0.48478201528108766
Ni 3.4545527897761237 -0.17433608819237595 12.720557848659402 -0.30867121892501675 0.3276544448957389 -0.3349450650198812
P 4.310980857585335 7.104661486172731 3.029971710220172 -0.7097093189192294 1.3891662667118205 -1.5545334513981421
Ni 3.7252641250187777 1.2061902219396456 8.549082255180213 0.5821152392166233 -1.5146353296516237 0.5945287823896277
P 5.8234712854571935 6.045846862615313 10.763875885917914 0.3983042460028172 -1.1707736788684031 -1.2927514408254963
P 6.291302169891737 1.2011792504242607 4.374808564467982 0.268684394119434 0.9654669776746662 0.5945840611075954
P 4.114995177860431 4.056070542011633 6.488410746153301 0.08917151406034965 0.5269578773181892 -0.5731747421938838
Ni 8.615633992016205 4.265662655340356 12.732201956556647 2.2965916189617226 -1.1850425300825913 0.49250020986095183
