# total energy = -340890.95527632424 ev
CRYSTAL
PRIMVEC
9.07935696317131 0.00000000000000 0.00000000000000

0.00000000000000 9.07935696317131 0.00000000000000

0.00000000000000 0.00000000000000 13.28855667106675

PRIMCOORD
 96 1
Ni 6.4599896681313815 2.0541409417627867 11.485990248107358 0.9467766003540147 0.12102002602951414 0.2587391099812641
Ni 4.480326690969842 0.43174521076488886 5.945632296923936 -0.24888792821879716 -0.5313675763501107 0.5572832677746079
Ni 2.5555211881616793 1.5488111751150166 4.73804786814798 0.7787418961378588 -0.059162883513401335 -0.23966409562768404
Ni 3.2225452217341872 4.149393211541477 4.593654315784705 -0.11898834031146605 0.40146001802297954 -0.015565715648740933
Ni 4.924706734788382 4.528111346302815 2.692673953402012 1.2598498050014688 1.0152679603571935 0.2966019464653085
Ni 7.588689920405444 6.194590986763702 2.633114280113249 -0.7892569367365697 -0.483825050684457 -0.08147748785020162
Ni 5.191376526121219 4.602643787045427 11.229056251171926 0.7547794717849905 -0.4097821647354297 -0.28859630255201263
Ni 5.601418442166758 7.698867916313788 12.481821375723662 0.24305306670457497 0.34267148712986145 -0.23790700372726126
Ni 1.809733733533969 6.748495312794219 0.520288007130588 -0.27943854731214457 -1.454042141449599 -0.812235142799298
Ni 2.9706929408523126 1.8634018121342342 0.1524532974780537 0.12451081279159203 -0.987506473973209 1.4296297740435056
Ni 0.6197260317690529 -0.06767661835197393 5.075523932154143 0.42477323882762325 0.20704605248234667 -0.018600645820322805
Ni 8.48397806564929 2.2869356525242157 1.54995063440521 0.6617888410888667 0.04926336501150225 -0.3264210867092701
Ni 6.625333836527496 0.8072937420345413 4.80738782468293 0.6339849315027211 -0.94187299240481 0.1491728343146463
Ni 0.8561388662527291 7.381426361229864 2.678056188802718 -0.45831430800786227 1.1394936378081988 -0.2681508902134672
Ni 7.677994474814548 3.9890426894370465 3.8083008396844455 -0.8936781778671382 0.4529877535886263 -0.4939004326425881
Ni 7.682861010109717 3.959289636895502 12.828666428108713 0.6397475450181112 -1.3117963732720892 -0.5332012871247397
Ni 7.834068619821918 8.810435422128927 6.888083161553515 0.5714829563137577 0.8831819063215048 0.022651675961244858
Ni 6.789624799523909 0.5563321460639653 0.34011815686230756 1.3889420665161565 0.141834134561388 -0.28528549301122474
Ni 2.110178732512379 6.518987329228408 9.279624808660245 -0.5425333631589431 -0.1708472339642864 -0.3011826238574555
Ni 0.03578356139052035 4.722890789749184 1.408281797045816 0.6357548789189502 0.20568619602034255 0.6408580044734705
Ni 6.344990533712339 1.7474856626689006 7.172923469838256 -0.7065761726068863 0.2808164014962776 -0.7713869984346844
Ni 3.4831953994463203 4.551844785223656 0.7181426287569461 0.2342544945763385 -0.5649932348243559 -1.9468727380667763
Ni 5.94893990664041 5.809426508607644 4.62104219585537 0.9052774526689635 0.1012040197448515 0.5035268999887587
Ni 5.608936149674966 2.7715372473830486 9.26535296755861 -0.6917002839363184 0.3177001618965045 0.4763863350182247
P 0.4178873883376202 5.4301000569344104 12.59620946942374 -0.2588512100790961 1.3652208116398166 0.1323840448920817
P 4.08602837977845 6.000991859713548 12.35361359289527 0.382250020753432 1.2904575025849971 1.2725770227601503
P 2.63363997487741 8.535485257308789 1.2947562422506647 -0.48694379881909694 1.5233032897392669 1.2830653238859837
P 6.276078214887095 7.777694892867249 5.8299558424806035 -0.3629479779907104 0.4355027094299854 -0.9874270268855252
P 4.879972743371784 1.1578359085468175 12.673256892025982 -0.12440668311355993 -1.0783726021271622 -0.4959704277977394
P 4.116117368525071 5.994345770467161 8.306197902115503 -0.286957481397009 -0.06237110603805387 -0.7775792432883253
P 4.639705721886618 1.070192876449311 3.719281377081813 -0.5469613170233096 -0.6759083112093843 -0.35931038123812314
P 0.4083077588787909 5.505504115938844 3.6105805925401184 0.057789400204642405 -0.33794991328447604 0.8859658968245451
Ni 1.4586259230871983 1.0932090461755286 2.3730043241363075 0.9218075891135028 0.2962921285343736 1.3391261714352938
Ni 2.087089927931009 6.338026666974662 5.119376318016335 -1.0280633123496488 0.33881817482204224 -1.286604961608126
Ni 6.174044402112644 5.729056041382208 9.161077461567038 0.0379368842550895 -0.05236154432085175 0.8096696960649669
Ni 8.581762739397362 2.223334757481945 10.230540357722074 1.11889370216966 0.6764402724534544 -0.061454250650739325
Ni 2.5907127754827126 4.913938617512131 6.963602528390502 -0.8692845795141223 1.1789652135402597 0.5267737863318412
Ni 0.5722618777344383 0.08001364849950235 9.08598391656838 0.6065299206155618 0.10318582606157069 0.4860675668617307
Ni 1.5552575185097366 1.383966371348071 11.629746429616675 -0.6225381231183601 -0.9180103268545996 -1.191757480208922
Ni 4.155485460017331 6.834494981293916 1.3346091714010633 0.617421113606769 1.1561111917602218 0.38759020201942285
Ni 5.5674344093126225 8.17845770616715 8.046047996968227 -0.41564196595031644 -0.10521879733119942 -0.11336148104299187
Ni 5.063984069541904 2.751072376944037 4.930905211739897 0.4422248586451674 0.9752248283923786 0.610458823356323
Ni 0.5606157866465411 7.354914639099467 7.166199298122581 1.6845603089119567 -0.24070899195243062 -0.2824832476757393
Ni 5.135583878007764 4.288888450860455 7.262927134728195 0.6483746245654898 0.8405496734732749 -0.2532282074653639
Ni 8.28954363776489 7.2946640267510725 9.295584502208468 -0.3193942617694757 -0.4211618673272811 1.052235281610162
Ni 4.65738322975918 0.3867869592330103 10.523380487366092 -0.15282328658304006 0.47272199879276006 -0.0280407081873001
Ni 8.470976426577122 7.104378864967218 4.765157011962001 -1.1613140761174 -0.4725685039340313 0.5566232655931058
Ni 7.320685463609195 6.527422051782907 7.272282504071743 0.0522252758533036 -1.4979154457937816 -1.116531886805703
Ni 2.432495902248366 5.426241330254472 2.558259522200901 -1.397690759243064 -0.3977249764605796 1.0804451683854748
Ni 2.4781469087112544 5.164256487078926 11.34700526864582 -0.9376299008577401 -0.592072093319019 -0.015957551770520908
Ni 0.7639280097018654 3.096169653126998 3.7411008875694054 0.9465197471482021 0.40627209469964226 -1.6610244305735458
Ni 3.7533789018971233 2.664446232818655 2.441201189638306 -0.9650792553179443 -1.1453920055705047 0.4123219004381479
Ni 0.8970758706162676 3.3130482512532944 7.927979131983332 -0.3722402019259137 0.5415288331538286 0.6708722914473736
Ni 3.472363726671812 2.7852198382222633 7.021646857013661 -0.21218877302555067 -1.9177169424384264 -0.5652644862078717
Ni 4.253705942896315 6.834240759300886 6.113839186548719 0.02942139058491062 -0.0315453789064489 0.7290375869341961
Ni 0.7559917438408449 7.355014512025301 11.490295679146477 0.7365539499158993 -0.3691152831436869 -0.2686584259775051
P 0.3342547081801808 5.478992393808446 8.255714861913642 -0.2657204263951036 0.5477383043986502 -1.8724138476262528
P 8.360371700894762 1.5375618519233862 7.994302926158104 1.314636928044678 1.249780079470293 -0.4688072371193861
P 1.5873893625575015 3.2170703695271223 10.329367341641573 0.9882366672710141 0.48207284388004074 0.44819753128883455
P 4.062185988574881 6.3554681115679825 3.6563332878002197 -0.3485197183805223 -0.3744968591705744 0.7315451838473982
P 7.241922042553993 3.9699851193166 10.455755621348413 -1.320405969317971 0.9150993238553916 0.0028968619318208173
P 6.394400393929332 7.898150720779568 10.323148890104893 0.7031578909539568 -0.9947806390371189 0.3685388418149266
P 2.5622671503339003 8.36029906603961 5.944130571293673 -1.1386976242694649 0.47273588274983097 0.45745118867661855
P 6.802662756023653 4.0100250832190145 1.6194630987211451 1.4675674296295433 -0.48801132085166277 1.3862670907871544
Ni 5.417316322427698 3.0742702442987393 0.2859588850540784 -0.887751013749426 -0.6083582320735522 -0.05229778096245187
Ni 1.5393323265177106 1.2400767232924113 7.063877669734591 -0.6594823044428771 -0.9728486148507182 -0.9907121253947002
Ni 6.991250078068334 0.65955081491308 9.40504250511512 -0.4995023522103978 -0.40308444100027996 -0.10893995493652851
Ni 2.6445352031501757 1.6409938856595092 9.228052245631108 -1.2736399168070258 -0.36675886709636835 1.1130225881008637
Ni 6.438526068434033 2.022018177071916 2.644861152062669 -0.8086512821027815 0.3169882234311444 0.15927726973849987
Ni 4.362322289418896 7.155077993863155 10.071902202327847 -0.9059449110496333 -0.44295376639139195 1.6405232252964002
Ni 8.512114992663706 7.3727010992547575 0.32902499860925327 -0.907395784563547 -0.7346608466582444 0.5947774080653241
Ni 7.495944289733526 3.8320696880971736 8.149194030962189 0.7312122259880117 0.2794580876961703 -0.2906346731382801
Ni 3.170647617728246 8.22797651866687 12.461543540036665 0.6236791787013387 0.5088930493966785 -0.3653069651411902
Ni 0.17338575479710494 5.080072689958022 10.318271459581451 -0.30935744635876405 -1.1407244248915065 0.455062633839784
Ni 8.356331387076944 2.299456085681002 5.619624368610549 0.6123961495883518 0.21819846955474034 1.2150789285436814
Ni 3.891130904692458 2.6134384057883233 11.324707276049915 -0.7148026742817367 0.37686175985832515 -0.26528513862989794
Ni 1.2341206651699657 3.4291913846409776 12.83180243797989 -0.9141022500494451 0.15301329110665907 -1.2135977160124647
Ni 2.985319784808501 8.541895283275933 8.123414104997448 0.08244267997694835 -0.6263294718399923 0.09596771104657666
Ni 5.550673916486351 8.112378146692825 3.4719941968462273 -1.54961441682997 -1.1551765957610944 0.5385193569035435
Ni 2.8434820714108784 8.295408902318396 3.7000258769810785 0.9947834672505963 0.3572876943811395 -0.490790940479329
Ni 3.4208565350123123 3.951735611959718 9.21023219185531 -0.05849851045652506 1.04028248012366 0.13740078138038272
Ni 7.523799756684231 6.115201090082815 11.825871433754731 -0.6767068958512797 0.16163548555803128 -1.7525860421326267
Ni 0.6087990257471583 0.22741337593037156 0.47908860935281367 0.21460509577652717 -0.20992414536109008 -0.897392650604248
Ni 4.813974898109506 0.4871292878181148 1.528211022258285 -1.6328088873712785 -0.9883595660021236 0.23673098114128904
Ni 5.911097147106336 5.4632306302405125 13.638178257032452 -0.00028410689932209136 1.1270795804145621 -0.2353194455057431
Ni 8.156630932194043 8.932461978783904 11.57039921327923 -0.6779590230908259 0.06315246428876865 -0.47353729560520386
Ni 8.76229667187709 4.863239488616196 6.037961185114421 0.8152227646727122 -0.06867416543794624 -0.06940770116986111
Ni 7.5171355087240554 8.70969087803342 2.5874278641584736 2.4931460278841255 1.222803550881449 0.45718045151373526
P 8.603335291377439 1.223243595610988 3.715453520215315 -0.3414031619403991 0.3889212621260205 -1.0898908871794069
P 1.8413571335956713 3.317415421919295 1.5269480837143334 0.05903741367913058 -0.8367804362388298 1.884163017742381
P 4.407546566107768 1.1514440412934615 8.282133066668031 2.09754863928951 0.0454470765892056 -1.153612593708084
P 8.559000791664175 1.7058658906669353 12.62317152765608 -0.31365298841032435 0.6443611325307225 -0.20582580692200034
P 6.518152028394163 7.449122046231316 1.2733997789646652 -1.4861169104969567 0.4037513851603176 -1.2876249182322084
P 1.5199932963335514 3.275032983938236 5.702505278017167 0.6602600631491661 -0.3246621950366344 1.9191703870555012
P 6.704823606134217 4.01474634880388 5.796840704081221 0.4232177214150454 -0.40820864960072284 0.5934628030189586
P 2.3100335364624787 8.573600397549681 10.506172382244948 0.1739724098568294 0.1403135841518035 -1.6362127708465046
