# total energy = -340856.13130319264 ev
CRYSTAL
PRIMVEC
9.41690237755918 0.00000000000000 0.00000000000000
0.00000000000000 9.41690237755918 0.00000000000000
0.00000000000000 0.00000000000000 13.78258850463914
PRIMCOORD
 96 1
Ni 5.805746151231059 5.737341774365694 5.652694183065434 0.04246665380464299 0.21831211231446918 0.051744736672459275
Ni 8.436499006819268 1.0840737699257768 -0.1963273417731112 2.3762287111690754 -0.2832689768018283 2.1821430755021383
Ni 2.218857557668182 0.24539787693386722 11.49040600848007 -0.8191652942602279 1.6615929014825062 -0.2749715126797264
Ni 6.051122369290092 1.2675150228631822 13.683394394385193 -1.2400332844961741 0.10271685684495213 0.20876123540124047
Ni 1.6218730489429858 0.8592810164802225 0.2148108372179541 0.8992860109722189 0.5697844855654123 -1.2382170572230418
Ni 7.368650559214392 9.364610044139845 6.715125086891312 -0.329504096509968 0.14667063671808286 0.6304069843434756
Ni 4.677686031589132 0.3512221976800008 7.733919949759215 0.18658289953198834 -0.48218288709534374 0.9714532771650882
Ni 2.855261218590297 2.3401378398335235 1.885912625277001 -0.03312069381336876 0.44122804194953685 -0.44638490356012794
Ni 3.7456387291901247 5.60313208561498 9.350893384538786 -0.4196731985968966 -0.7346472198114896 -0.5418149969356798
Ni 9.5433710967328 0.8021590300226759 6.422713326215659 0.872585104642265 -0.25642614557737126 0.8023302249807601
Ni 7.5189348998523835 7.439917674318616 5.212643289552105 0.33455862821474 -0.5704665992341015 0.23698089236856607
Ni 2.822942410577917 3.2023870638561416 9.972942861587569 0.4101068950647001 -0.26620687911321894 -0.06577781772675768
Ni 1.9025626498826802 7.559521747909889 12.218140436123885 0.9424931424873123 -1.8131113532111935 1.216837563106001
Ni 1.792281309371902 0.8948467723372037 9.086185208155563 0.2047845101416796 -1.7926949943383705 1.1427100878629675
Ni 2.6579017843468606 3.611137116474264 6.024314332387516 0.0914644238595844 0.5988029842849494 -2.809662196774858
Ni 5.4167621761240055 3.7576829469779556 13.276781036853905 -0.11360367896078499 -0.549845323439324 -0.9543287016696596
Ni 4.0342196940908845 6.092933414620795 0.16753704697816615 -1.9907067045325908 -1.1036971969348797 0.010134517330840611
Ni 1.5425450656398696 7.802411903814124 6.036911322328705 -0.8673089438449901 -0.7608292775234962 -1.8276062043932588
Ni 0.5257221020720231 3.669352405265796 2.228768847130021 0.021292076609556877 -0.08573497757497492 1.2026077926598644
Ni 1.8878628657022236 6.465127053280858 1.8413537279130783 -0.3942102784391017 1.965551545423202 0.717472764914732
Ni 7.314531622837017 8.139951342740632 0.16213739531316057 4.215664046986778 0.5399296069875088 3.4652983879987675
Ni 9.494497374825965 8.184493289680772 4.116818167493855 1.1504959024559736 -0.14493539919453102 -0.6053150743718543
Ni 7.305585565840583 8.215352477867418 2.943574809878674 0.3784887539387869 -0.34186107541342414 -0.23624967062949637
Ni 9.6912164597265 1.2402907588877181 2.0263713702622765 -0.8404830819013976 -0.2733625163213937 0.08815798519417076
P 4.400066340734529 8.649810673222662 5.8997193006824435 0.6007027724108235 -1.0477697896396407 -0.45901699050184175
P 6.4890930691292 5.820427101607313 3.35927171117708 1.4461948774910383 0.6751950871924435 0.15463797119427564
P 1.5368195891621519 5.933966690245214 9.513762473145233 -0.2931607819942435 -0.29445764642879607 -0.6393983892088085
P 5.138897645814764 2.2921022222137233 9.647646337083236 -0.921315994189065 0.5562705102393773 -0.3082873532230368
P 9.33888306759852 5.977896538548754 0.8705549316761497 -0.44227550937744475 0.0535985020517464 0.033560866674580914
P 4.867850952627015 5.234611038774506 7.486261074630775 -0.5159412144927114 -0.5243443509547421 0.08930752541758168
P 6.8638292713566695 0.43703371808000635 1.650464647103589 1.4816591318359194 -0.6203251746274413 -0.6630692504631871
P 0.9109346078874225 3.0352088008480433 12.860849654693169 -1.2242099443106722 0.0032663294560976003 2.504397432428229
Ni 1.1007605204496516 7.68541631210497 8.18585120696381 0.35339427286400427 0.5370345448279009 -0.3467060622105513
Ni 3.6743433633795957 3.1312800360876434 7.785342827064928 1.3285915904525571 -0.6773944088366076 4.138132688268518
Ni 8.415442813720293 0.8517898708584717 4.486990938962933 -0.8506039723854835 -1.8318858056052192 -1.8342015982225894
Ni 4.333865518960917 2.5165635007053044 3.7565406767530423 0.3036693948350512 -0.48512114378806126 0.33731305103142556
Ni 8.462329569283709 6.5583920516942085 7.379321792675823 -1.1157507856653044 0.8068944473126749 1.2631243619876826
Ni 5.932893163405641 7.610165847411808 7.487515405990695 -0.11829645645076402 -1.0882515518037712 -0.403702277089937
Ni 7.329400911255301 9.319493666171512 12.088900988302345 -1.1564886297042987 -1.2576813365952404 -2.8204952828346195
Ni 4.9905814377159885 0.11075595237669414 2.628698087549659 -0.9236847515315575 0.5893924896043269 -0.4472498226635846
Ni 8.461208957933628 5.186839094413549 9.417145999273956 1.6593416435544843 0.20083426724467993 0.37543274072128247
Ni 5.272542320439387 2.9665030831154295 1.5984353213025386 -0.738057016823987 0.18862024167699132 0.2824693637186684
Ni 2.024407946174112 0.20576119429840345 4.792261479458198 -0.2116794374893 1.7592580548361638 -1.5013085306357306
Ni 3.9981341252378995 1.3565235815266505 5.860205037774299 -1.2315167623847305 0.41185473099374237 -0.8342417289773761
Ni 3.240252427206311 6.889028901380309 7.154403794432319 2.838147448698744 -0.155230610472952 0.13249511654864923
Ni 0.7778492972476291 3.765866234904167 5.138493660714609 -2.8049444795842144 0.6524395386634828 -1.119393267513898
Ni 3.2004189313169262 7.66694976708391 3.8108168753955125 -2.1783764093708546 -0.15555842612601598 -0.5073408744182102
Ni 6.172939414875221 5.225438976127636 9.17025836842763 0.35388406801622924 0.9664635372599809 -0.910734876239109
Ni 1.4541486056129995 2.4640831052935916 7.57101036847373 -1.3146523546636455 1.6522885933624447 -0.32993707028232855
Ni 9.157005020409965 4.6556504806716 11.871962872899664 0.22232817545239777 -1.8635183449088355 -0.4548356054306425
Ni 5.295510144664968 7.643200339983903 4.223743324095654 2.146248418488059 -0.08998552532121276 0.05983856942418727
Ni 4.283616929347263 8.95865681144587 12.428779585710869 0.17188930207555558 0.12301108831761395 -0.6726489237318222
Ni 8.423447180506576 3.9874176906463816 7.079412294546948 0.4391395348516243 -0.5302833421469964 0.7323771928303903
Ni 2.8673713546928385 7.675264891639543 9.846901393719705 0.3870371577294302 0.8549007999886243 0.6929665522432518
Ni 4.717133434492355 1.824345861027542 11.719762192684014 0.9486866728925339 0.2818733820058823 -0.2385819183070988
Ni 0.94504262729909 2.305125797820111 10.966722665713023 -1.7136276585915584 -0.5241728583738844 -1.5240964750645236
P 0.18904242630738344 8.835521399566531 11.926983006808152 -0.8899871021687963 2.1119074791143437 3.578525400346424
P 2.2773647704248607 0.4232850410118025 7.003360451484946 -0.36047226275670824 -0.0670019199418459 0.26188048382372314
P 7.422609408256042 2.030265259281251 5.850047025477401 -0.7890769595152798 1.7250284442293322 1.4543393609750437
P 2.927441773198368 5.749498994978742 5.00699415638871 -0.1656921721259082 0.012514587527242962 1.0491088201660383
P 0.5740722442220136 1.9947635383585598 3.887144633689088 1.9496672700927777 1.8583486277824381 0.8379515737287956
P 9.433570018229199 5.9378464539110345 5.677034049927207 -0.8483365165075455 0.056181946508206466 -2.3379105323151674
P 5.614526537157807 7.617087270456416 13.359945466073176 -3.716718338610799 -0.3932641124757485 -1.0745928233697557
P 8.262615909514894 1.168778804328855 10.704605079097925 -0.13851355482858727 1.905529913453931 -0.29274349195116683
Ni 3.003643345003783 3.139764664881103 12.53496080704665 -0.26576799180358746 1.089393378717698 0.0058418034927576815
Ni 0.21809262760033016 8.56502088670067 0.9949474999860398 -0.909679438391401 -2.086048609069711 -0.7281109613548686
Ni 9.264122281814636 5.867238521953916 3.227261810757279 -1.0166339874667847 -0.13222900737145613 0.32722069979243
Ni 1.737079429252853 4.638295130098517 0.5294248279783366 -0.6128594623780155 -1.1858945936702414 -3.3405124671689177
Ni 4.918551553541542 4.251938470677784 10.87556422829978 -0.6865938159476885 -0.8310275929154527 1.42999872734715
Ni 4.0134365911528525 0.3175793732321479 10.012319637725032 0.47843113336239546 0.7079064613825357 0.06757476172618039
Ni 4.757682614941455 3.494979629052144 5.997079709819739 4.719314617037595 1.1202432742190191 -2.3574180062204757
Ni 4.527138017692299 4.907477276670167 3.6712951121693376 -0.33948203365828633 0.060463347492379735 0.30560954928055756
Ni 3.70986391810649 8.41224106700578 0.8226511506857708 -3.1064721454859145 1.8826357824645772 0.039956228677963446
Ni 1.512580483152866 5.362228896054163 7.085339292729638 -0.6819596596097869 -0.3703879792085234 1.1121358146205365
Ni 7.115260557466974 3.271902635169485 10.294214602133719 0.4922076183211975 -0.7495452199692446 -1.0120754215618246
Ni 8.73158705107217 6.774707709867983 12.243128185850239 -0.7256840970809308 1.272474435744015 1.2968022138561022
Ni 5.352698991127435 6.655800487032223 11.43340079160858 -1.035719800453642 0.3210536517497697 -0.7509850377395647
Ni 6.437356608983506 0.38116135453133004 9.492688387932265 1.2102018029570383 0.09517092617689417 -0.010208822212201775
Ni 6.9223270672112465 2.0145955341843393 2.9407083048789744 0.2692117273778138 1.1403827252813714 0.7674313562210461
Ni 6.242106560810807 5.673994273928839 0.24012535344723202 2.825454426612108 -0.37515737557270873 -0.2262095127846749
Ni 6.217283606871228 2.3887384715794138 7.7813048594438 0.29609106826716103 0.2838289630703564 -0.5553238300553919
Ni 0.36503490968249497 7.797289109070904 10.276973196076066 1.0221477181961622 -1.422836662381072 -1.118909385898944
Ni 7.693976276115242 3.729159150512483 1.5207986136168534 -0.4819558586862023 0.6357751906339244 -0.530824302252131
Ni 5.230298097612016 7.251118204085452 1.7414300380237508 2.2946350094559835 -1.270389013969896 2.7869475287861616
Ni 7.5246603763301 2.801914468185246 12.540157053626263 0.07714775012659618 1.276355515965976 -0.19643305285319074
Ni 6.002371067110578 0.632228206530306 4.6263328393589696 -0.22770178105948527 -0.20738852342342992 1.325178193895634
Ni 7.614356368846979 7.415678568309331 10.009135783124512 -2.741255940286318 -0.06491649816772692 -0.2617637557402008
Ni 7.555557232125154 4.1285770531480095 4.872323981125232 -0.32812752787741556 -0.012945504417074481 -1.083620995010295
P 3.2300256715240723 4.807658114394166 1.9396238097933811 1.8027230679983341 -1.5291844311103922 0.477934396231635
P 8.59340342963462 8.69508713852672 8.492224466695161 -0.6086335972221261 -0.019000195251586634 -0.6604310415093917
P 5.122069641759366 7.931385794996399 9.44475258947474 -0.15621251477024709 -0.10571373468974697 0.8424039530731944
P 3.1538711842291645 5.68566181563261 12.097460010622408 -0.06646404516050489 -1.3957297788619512 -1.4243885802492244
P 3.7628151586232783 1.4078551148819787 -0.08488301385279672 0.07182633791368274 -0.2836225034865051 0.6746196743049478
P 0.18016793776692086 3.4103781805721827 9.095681212234725 0.16299122825497736 -0.2300437989291006 -0.05168714396164646
P 6.963799104066295 5.219525161607888 11.606592688298702 0.8125110221685039 -1.1863409371790408 -0.012109381669024307
P 1.7048642071635893 8.625891741884827 2.4580421625954734 0.41041774143689963 0.41093838982706 0.6772797376356142
