# total energy = -340858.74651841033 ev
CRYSTAL
PRIMVEC
9.44991767099860 0.00000000000000 0.00000000000000
0.00000000000000 9.44991767099860 0.00000000000000
0.00000000000000 0.00000000000000 13.83090972381599
PRIMCOORD
 96 1
Ni 5.998779258641165 4.576661178951266 13.409370516982133 1.2344298222664676 2.041609919140361 0.09070337732384379
Ni 1.2414073079581567 2.2108081915306794 5.749813623024884 0.18241976929323422 1.3314095195173263 1.0250980590737375
Ni 8.500559858914828 1.8273588904503613 0.16806772715192259 0.6395161457335954 0.6356250382093054 -0.22408809556629797
Ni 8.635844877380114 8.266012907370518 9.605857170612786 0.3820415042870517 -0.7636644329794461 -1.0947764974064822
Ni 0.8531725686722772 0.822780689104926 2.1961409746293126 1.0525425284379357 3.5227183206791333 -1.672379964795681
Ni 4.6221814313924 4.915280071565581 10.423194707256409 -0.03393701906707704 -0.8277342668761615 -0.3420263973466949
Ni 4.864637963857041 5.280887928467186 2.679019472327832 -0.9159359608240742 -0.4260245947362211 -1.5668816885508499
Ni 9.409490720612572 0.21731219206701352 7.896951105634528 -0.3789271270277861 -0.9141919815497739 0.13728482462780872
Ni 8.09991170804359 2.953212607615455 5.762288459073782 1.4286213873836493 -0.41941917360456155 -1.237933207434036
Ni 3.635213151247723 2.9481947014401917 8.81091215840024 0.8111185126963514 1.3455539293385086 0.06775396761652203
Ni 4.139073300699419 8.13765467840894 3.281784347978282 0.2630853027651017 -0.027280175872191725 0.10139402426847055
Ni 8.187049397011764 6.965855462516673 2.6259922054504856 0.821586759217527 -0.45757408740772815 0.5617053081017036
Ni 8.069407374458375 0.9253803330334872 11.45579663885183 2.140790223586965 1.4623928274071396 -0.9919315996240983
Ni 1.501648585096705 8.190612015897027 8.58611752168243 1.6330202320511358 -2.4305442938925044 4.159849768230635
Ni 7.470462155448305 0.7981409743000655 7.0148164299077385 -2.1979502177377244 0.6318961672944924 -0.6977976550833079
Ni 1.7348630982780926 7.140423787894516 12.956229019570463 -3.89831278378926 -0.676989460088705 0.828287054055838
Ni 5.436461919735275 2.122338064199582 11.421177811201249 0.8856308820826296 -0.6597350438836316 -0.9675426292567724
Ni 6.149363693486395 7.063076213422712 12.731946568379394 -0.9672796054033728 0.6214960550070909 0.08336030669521129
Ni 4.757438100105282 4.51363967936025 6.706649896332568 -0.4096248132219591 0.8323779362957601 1.1679837748280917
Ni 9.235659488797197 0.3742696512523508 5.295481436012305 -0.13436045189216217 1.5924245700169606 -1.4754905411313621
Ni 4.993081242075826 1.203522588830794 7.284602123688502 -0.3224068233435544 1.3158905979461208 -1.1860763706637445
Ni 6.3673827393799804 8.862472798086626 10.643755780948762 1.1567796785821562 0.3506856156835896 -0.32141334908203356
Ni 7.364112784268625 8.588907137318849 4.376362618292809 -0.6195371315085072 -0.06235259409529261 -0.5044990340940408
Ni 0.8884566705125732 4.684144540227051 4.102939651278791 0.2856338774895791 0.8164270693934584 1.3203782014038292
P 7.760621871289081 0.7917575550507432 9.327205564263979 -1.0976607609328128 0.6362289903418914 -0.7503954837846819
P 6.394636301356362 2.6483488201951886 0.33693019236286514 0.8758133817715754 -1.9246378379279758 1.1804281712390314
P 6.05907918200153 2.795077688713662 6.277877846086187 -0.3227428665267345 0.0438355091277116 0.49538961559360495
P 2.882328776691447 7.657976867756675 4.998214437244193 -0.46023492206934286 1.5672568125020814 0.27968845853942154
P 8.106120303819763 5.182816684989069 5.052638401923243 0.5740846556026629 -0.3297167267414064 0.8081105791079631
P 0.7139507145900165 2.060705702476295 7.920989805688453 0.4709854757176275 3.68576534187271 0.6349097573098356
P 3.4668156219761834 3.0327053133523902 11.28112625436534 -0.27033144280455373 0.5112954881905839 -0.9292265072853931
P 6.041209388070414 6.94225901860023 3.28482722140283 0.17979852962030327 0.5096564099252642 2.1633118017282484
Ni 5.9942527481742145 7.905196158624955 1.4337263583070239 -0.13626563933467498 0.46918776038725646 -1.051503031429828
Ni 4.59227244260764 7.405201025417483 10.451063458859927 -0.17185844883762016 0.38504146745564005 -0.2739993785744443
Ni 1.3872573341521488 4.2830238934824365 10.774071087817868 1.4282120677603725 -1.1841069056421993 -0.0028613807081950718
Ni 4.144289655141501 3.1985986144950322 4.823169836025987 -3.416801725949961 -0.6524570221649796 1.3524120899109224
Ni 6.753109470569974 0.08308556435809378 12.90859482059184 -1.0302526066914837 -0.30811148976680486 2.781679595519003
Ni 5.092106927218165 0.010494133347701728 5.317390124669047 -0.21647351644383364 -0.5909456930240596 -0.4084498190772514
Ni 5.885389698948169 8.682073873631312 8.185423066215602 0.2797725336127956 0.8231780149640469 0.716374646754547
Ni 2.9463519675340217 5.507506399256232 8.375183078914258 -0.4529283611056006 0.009618754036686659 0.5309104342080341
Ni 1.4968858266930654 5.487396974885309 1.635809063383352 -0.046772737379164604 -0.48971930468170494 -0.8717942333098534
Ni 1.5103236093319055 8.620734459349519 6.5585621296822625 0.34541511131326963 2.011762753871942 -3.8330931525588183
Ni 4.564253437316387 0.8200638378330085 9.389196077859285 1.0999991792580024 0.04240134778434634 1.627369718633578
Ni 6.782763311583111 6.147284711643536 10.439819002065303 0.6333735231709673 -0.48551683656458317 0.3651035908811325
Ni 2.1659588832297407 2.3278737691185487 0.25056078168480167 -0.07072616287096851 0.8158087190831692 0.19563626798350822
Ni 2.5896648327217733 3.385848729114312 2.6171678725192984 0.5751953721683384 0.4125468719647605 -0.20043266093088705
Ni 1.1585315317678422 9.43805782111694 11.150838352256889 -0.30301324930829104 -1.0349633819035917 0.004678893532908071
Ni 4.439788574351436 2.9742670237331312 13.286967626008598 -1.3241520666239648 -2.0517773465916664 0.4526640517006204
Ni 1.9610279730286964 2.041730268201477 10.120505345845423 -0.8554728704420106 -0.7063856538626351 -0.1628037948345196
Ni 3.911500388246152 7.758949235897327 6.971815525463451 0.06615731255336348 0.1718455933218137 0.6304617488408111
Ni 5.871148673324588 4.333940048797534 4.517548165224825 3.8927427459006507 1.3467716037956934 0.2144397738432565
Ni 1.8544990534171326 0.040760329012734686 -0.021488167329436255 0.3730650118200543 -0.1058183785884113 -0.4828961111122845
Ni 2.612335184726399 0.8878244710339949 7.823108505551434 -0.6953427657849122 -0.16844453806006476 2.2646921991499642
Ni 7.293493551033707 0.8663107889273962 1.697772172218003 -0.8760326968712332 -1.0564194948948387 1.4808001262697335
Ni 8.81665014828653 3.3239045201145956 9.477188039366526 0.0851744770858146 -0.3284671706050214 0.03287798167494337
Ni 2.6926311334480753 6.021128313451895 3.6826318921080854 0.43955888177723007 -0.30390002278861855 -0.5085801461419499
P 3.1737453315554056 1.290357880440007 5.9398495733135945 1.7500465635402247 -0.0010040157844821418 -2.54253409139895
P 3.054846469978834 0.31640780659861134 2.4132726732726963 -0.3369682660974971 0.07766557030327914 -2.2650346700910475
P 0.6961168303452775 5.644388453773529 8.65545251113351 1.383628624723043 -0.1260419047241378 0.6949887248796032
P 3.6530073458390984 7.3058918427511195 12.8458719383928 4.794520670056788 -0.1893262666050804 -3.771257350198944
P 0.6293852931565062 3.079973800525019 1.655642550164222 -1.1682915358764976 0.7814960618442283 0.21285083208958183
P 7.1062056367445585 5.952191165526199 1.1679549894664718 -0.9525009044323015 -1.1400651940409527 -2.0110582716057492
P 6.156403881999711 6.64957617479562 8.471501362702147 -1.0193246469250703 -1.202395162428426 0.276898040278478
P 8.48639443263099 8.251271036121159 6.370751634957158 -0.277116069826555 -1.5653277138001687 0.26577261978927774
Ni 0.5630903421547352 7.30576899382404 4.4217836466005345 -0.4352363431424762 0.3996026530992666 -0.2516482645727537
Ni 6.633350666503857 1.7010229438268365 4.380262599231663 0.40374341474051756 -1.3028548478080852 1.2156509989970676
Ni 6.327126090968266 2.943252394604669 2.621690603019262 -0.25129705188092205 1.0536635294162564 -2.1294663139337136
Ni 0.009584106295577752 5.9864754660984305 10.731665528174036 -1.2538645339523118 1.3712690747164256 0.05996943857509672
Ni 9.188296502449894 8.547573198315835 13.012507058056643 0.4804885301120564 2.5690416507711755 1.9028191993909875
Ni 4.4633377686805416 1.647725409309918 3.317330212532429 -0.12711662584555528 -1.2699434417920452 -0.16155501002908304
Ni 3.3657771044132594 7.780258799786627 0.8940604715708236 1.9611343901921128 0.5208749043489029 2.1134465414666894
Ni 0.11943183692174113 2.5905247752113194 3.73249249164206 -0.37110351721830925 -2.2304196511203394 -0.04652256904157149
Ni 8.464867520639936 4.431340348135456 3.056782758067932 -2.6622125157989056 0.6651276756541125 -2.218687964505708
Ni 4.524233036841362 9.363242824526438 12.146180204269553 -1.1793881600102913 -0.495745713381443 0.18254421068624047
Ni 3.208417078743805 4.874692676042502 12.586584157926726 -1.1390658062421608 1.2706304405567408 -1.2702861698434444
Ni 0.2248324363876808 4.339213102744421 6.84332688764082 1.3715727219997733 0.17248374112644488 0.03615665242621515
Ni 1.8048680868776192 6.487236042620774 6.436504160696292 -0.42730346144864473 -3.040406878425725 0.7945135571498189
Ni 1.4795924777274696 8.086407775982478 1.9581523631433244 -1.6351249370989647 -1.319268256169102 1.0311105838164047
Ni 6.296120911757271 2.5021491470548978 8.966094923085175 0.4077466223626397 -0.18187289565082873 0.23657722917224416
Ni 8.383465931574557 6.378013896530961 13.197440052912881 0.688466093269737 -2.0880502128807716 0.709924520253829
Ni 2.5443146787950552 6.467258917094396 10.80342064148855 -0.6075408783785795 0.07164301825828306 -0.7686107212411278
Ni 1.9434983761264122 0.45778235187997735 4.252589489286481 1.0710249035128394 -0.9599375632160049 0.7257244634005631
Ni 6.488814178837852 7.229999555569316 6.431414435148276 0.2489054117202939 -0.18981426198509246 -0.9177277626171743
Ni 7.390676502269876 4.12102395833642 7.596793377113096 -1.6336817768945346 -0.3160078617957461 0.11855845186289905
Ni 8.227107597156662 6.130860755084954 7.786055379161215 0.7917398510594236 2.0198157060834054 0.300787702411882
Ni 8.74247774608382 3.4682425595137816 12.180661063125108 0.1345694825791747 0.2749535149575974 -0.9563891837431142
Ni 4.818286118678763 0.814414677170914 1.1508657587181748 0.12019213081158012 -0.18181041784400945 -1.2535318332032412
Ni 4.708421378201159 6.435507194403466 5.093592454244061 0.6730276472274795 -0.22967664539766897 -0.6782279604814965
P 2.394429537842424 4.544540909479102 5.599872727559194 1.135849099077076 -0.7176771676160544 0.4907418324089484
P 3.550163894039875 4.4327294860031845 0.7266202189387455 -0.05040416348416481 -0.09334775692522633 3.5410651986174364
P 0.8451911683791941 5.1231026565116915 12.81811375082365 -0.6754300860213852 -0.38306506045555966 -0.47941380899063885
P 8.898373034545806 8.977223145894948 2.6539989258490304 -1.6771195363631954 -1.2446458435675207 1.4560103209195634
P 8.269103030382404 7.684956382126499 11.49413589900938 -2.5909397363958475 -0.595349221408394 0.1103679456323067
P 3.053154934752144 9.229668241122777 10.168207584229812 -1.6534275920628945 -1.702157967389062 0.3844917655997572
P 6.6234660528328115 3.8127960002977104 10.787804652873442 1.3810166410214926 0.9264237477292755 -0.2969642149007337
P 0.60808045422594 1.522032057074186 12.58432940761897 0.7155549790667289 0.035709537586467534 -0.8389201082896519
