# total energy = -340860.2624481426 ev
CRYSTAL
PRIMVEC
9.34275421441878 0.00000000000000 0.00000000000000
0.00000000000000 9.34275421441878 0.00000000000000
0.00000000000000 0.00000000000000 13.67406517287089
PRIMCOORD
 96 1
Ni 4.3984005643969875 7.17942087188919 4.247547781765035 -0.422267441686634 -0.10587751396112088 0.5133919657082964
Ni 8.359644311395053 0.8988299564096185 6.006524954596699 1.4908266572678004 -0.820416907279142 1.026769790349206
Ni 7.325691033527058 2.6264444372636286 6.779642545974732 -0.26459016944540237 2.739788868822488 -0.4026890053340742
Ni 7.735211983646675 9.293256407863538 11.61209813333632 -1.941943933306591 -1.9168209129867182 1.7244211496626365
Ni 7.47724919411019 0.49994386353274545 4.051775970636741 -0.7201971058244306 -0.834289551496176 -0.3375490783016316
Ni 6.117205762202431 1.9559429879620864 8.595134973965035 -0.0036982747871936307 -0.9454514537846879 0.6651279327644287
Ni 1.2301417758389712 5.071938408852612 7.294061138775844 -1.075263109963903 1.649677895212475 1.197930956009485
Ni 5.941907662891539 3.7221346356798497 2.6850393895339546 -0.3793117640607145 1.1277197851017224 -1.1584023017872438
Ni 7.1612679002449395 5.596188382024926 6.765435019479924 0.1825282698466405 0.0024736583514731593 0.033881997459425515
Ni 0.8294646769589058 3.022007312428788 6.241007533975527 -1.0067239274419244 -0.41182130665264566 0.5044532684577699
Ni 4.866584668893467 2.3756101692734966 6.52399208813251 0.42377282258756693 -0.809516201206238 1.2079687998614614
Ni -0.05546419529760942 7.454135219921886 12.028405660194167 -0.1835417987128194 -1.5064234832647927 -0.5401514931903277
Ni 0.26863408352107654 3.8323417656415453 13.255187781579576 0.430159185729885 0.967108112822515 2.373266028996326
Ni 8.528449196453371 6.08378672999889 9.10599771447186 0.4269789882296905 1.3548914046893505 1.4171015596695078
Ni 4.003061915335514 1.9322404202516064 11.743041506511814 0.42327017191953553 0.4354309756517856 0.11279712389908961
Ni 4.221869221515822 8.559784794443496 1.1738610238137719 2.8526297014753195 -0.3154985262594953 2.5874270952568987
Ni 5.46006445157885 6.285833134928665 2.2439006902437404 1.3706417255450718 0.9825532437329917 0.09812306682668262
Ni 9.118649672372344 8.594932236196286 9.611910663739813 0.29078893932795724 -0.2707952698148498 -0.4588352135083388
Ni 5.2209273119976745 7.077911846199648 13.524867319309088 0.9002586592981334 -2.6081887532842822 -0.10010024515771146
Ni 3.03801145057938 3.7624766488346992 6.833723079357512 0.7096226727426941 -1.297158054533624 0.9086240005436932
Ni 5.94856904672188 5.7204470144842805 9.706042650618082 1.1977599776492598 0.40160708512380516 -0.8172788758707924
Ni 1.7246631047642424 6.588622459693719 9.97747302050721 0.3618971681286929 1.3143116834947752 -0.6487212092716311
Ni 2.500363967711824 5.210463427158992 5.008960770530655 0.3029579705903234 -1.6145594542427872 0.59882818109593
Ni 2.5519826853312177 8.081846854436673 12.316982787087253 -1.1557872327618999 -1.8083519841493372 1.0918870916738292
P 6.050377040549668 2.0884325869775835 0.15681252561284162 0.13860457188049677 -4.586036085355702 0.7170852996683263
P -0.001112722039542041 8.357542191672996 5.269054642327589 -0.10875380706765142 0.2724148076961438 -1.1159955546862586
P 1.2423340702269006 8.051641729719297 7.78655976139078 2.336735795280776 -0.30848095729108166 1.3577805533116873
P 0.4938019368426116 4.436248062148329 3.9858123880340326 0.5535795936707756 0.3658666942994021 1.5177841596932506
P 3.1178452862459354 5.932602279588568 7.061136930817636 1.9284708385208207 1.2620388422329878 0.18067296180545658
P 5.546970752265836 3.203630456414491 10.345387882812448 -3.0894624983017955 0.5121789192368018 -0.4680767867112648
P 7.088198218706247 6.6823302855258495 11.752024564790737 -0.5492925362596476 1.3803232144988937 0.7667379296984473
P 3.724171356121665 4.088566802874462 3.115690847099685 2.392935482400795 0.30209228015591844 0.49774783141313633
Ni 5.500341065453458 5.041247460910583 11.866928297349222 -0.2995795410363937 -0.984479257111111 -0.19643408129445525
Ni 2.1197681849677092 8.077091392487665 0.9350863831002214 -1.3968098993000073 -1.9842115837265504 1.6917378004970025
Ni 3.5211719902512244 5.689681324507689 1.2071072150623894 0.31171051997197285 0.7666489695290668 0.6574035675369775
Ni 5.659476199790314 9.113072048043154 8.000900296730576 -0.4696644429133588 -0.21857436483692036 -0.3041273083080762
Ni 2.1393319125143173 1.7471511144130896 10.158613144094558 -3.106746482193224 -1.9422025862846164 1.8361710632441346
Ni 7.412531934933803 1.3410122413574044 1.9574966880055442 -1.192773580178262 0.22395516953285946 -0.2742821999221857
Ni 1.6916271254878303 0.9830072385596592 5.509759496083704 -0.5327284612533792 -0.3075733578751477 -0.013347882061815723
Ni 5.662269683332069 0.5750979135602864 10.63790298065152 -0.49723026834676953 0.049975817697494575 -1.6380135715006692
Ni 0.729650426903059 0.3608937824335674 11.507683511053179 1.0832335297638893 1.3833074939381984 -0.37421223805062004
Ni 7.431778008833523 3.662985658078333 9.630972685379422 2.4925238209190943 0.41345138605690085 -0.9834911821662289
Ni 1.5099479249762056 5.914981844940573 13.667160270432825 -0.8883282264091347 0.8651978110392584 -0.5191208977722737
Ni 5.675573765484109 4.143745109889872 8.014684596454675 -1.365203585248636 0.540505534095637 -0.7594493664568339
Ni 5.108627405068242 6.8524244706803605 6.701892144521593 -0.3793166491567209 0.10983264195412697 0.0615871766841778
Ni 1.993930627028232 7.48835772899697 5.464471428791714 0.686756823888114 1.0777596511335117 1.1895381039600998
Ni 7.236075334087198 8.677120445951545 0.35830303666056146 0.16606755318745595 0.02760207798798472 0.08351380155394005
Ni 2.4635535156900303 4.112372140882465 11.286409717732326 1.0498333570368887 1.1681768646755042 0.35096997969322785
Ni 7.967510227065426 4.712018141419215 11.708568611620946 -0.18971090363800877 0.8655770487555481 0.8244088020473543
Ni 9.003453511603634 2.0685979195556876 8.352980124738417 0.8818433900157394 -0.08964279726981336 0.4098811522071392
Ni 8.601332022905657 3.357944729522097 2.2168534164866105 -0.6986682306137193 2.1463144958393037 -1.6796484734326365
Ni 7.878679318988468 4.096975281762689 4.674055727789733 -1.0134129094263256 1.3297048781213938 0.2940521834602613
Ni 4.851402693123058 1.0294687557942734 3.8393899395007436 -0.8182283842682554 -1.895930185580638 0.8789429285394926
Ni 3.8188041146315 0.25725928013616944 6.154026491253978 -0.44691352237008836 -1.244174303247741 0.4145623597328925
Ni 0.008493497952541307 2.333100637116349 3.9963005640339477 0.6605914783466559 -2.3265601402993545 1.0289644840076795
Ni 8.484248625764257 1.6281524526360367 13.594140105492029 -0.32449610177241534 -0.9334215192033474 -1.6591830064894328
P 5.918345236495862 0.5449441739916723 5.965365450438829 1.95235947221296 -0.3064032488264465 -1.0659050657877707
P 6.820668448745823 7.378692478785848 8.450367127221861 -0.5214276915285794 -0.6397138635666982 -0.791264968305534
P 3.3689131230940736 2.35832607378103 4.950121038097139 -0.30508453001502295 -0.37514606271879913 0.09659171778382075
P 3.495638242693975 5.991181349176549 12.440117486201881 -0.3822988717134964 -1.0394391582867581 0.9932991693955859
P 1.9898011296186804 2.2556772320644187 12.590997362821362 -0.1103563756680809 -0.2436883862957287 -0.0836331007406237
P 9.86884481602564 8.992970941256312 13.429709498006455 -0.8554224768200492 -0.24555732118366747 1.7861787904864077
P 3.5538249166005063 8.904345573774398 10.855895598655103 1.8032892249144492 2.477430931141714 -2.637281813995497
P 6.973992389895483 8.436376352627285 2.4959541876726656 0.22907912102298608 -1.0144786316866787 -0.3551490507715819
Ni 2.9040550391356033 0.681901478123114 0.2632722768166838 -0.08710306156709516 2.9726516252576225 -3.5817896729199927
Ni 3.6560439916183856 2.682201995046894 9.215376142125349 4.564211790391759 2.3804700029439325 -1.661088451042262
Ni 4.954032849331028 4.43108151900923 5.413002195241444 -0.09867302579288167 1.2645271558724804 -0.1841632343469022
Ni 8.154701652625999 6.2677175343016955 0.24695609067179528 -0.21399728698919918 -0.8019471306097286 -0.13564806035533414
Ni 6.96163192592979 2.5685847597583065 11.70087018206106 0.3385381816877782 -1.6409238031689286 1.6189251874106505
Ni 4.984583655958254 3.7224896603440194 -0.07478033985473091 -1.1146241282600287 1.7496691255961478 1.0301662176252646
Ni 8.125851227285061 6.408241902032609 3.405635753225257 -0.6022647175813047 0.24110314206705571 -0.9288657815118648
Ni 6.200169420566271 2.6092350838057237 4.570200736490378 1.1471393272789148 -0.8546413756796507 0.7974276454728203
Ni 0.4046907461360458 3.00059371952677 11.277821857961149 -1.6414166836449473 -1.9074214740496895 -2.6434136379248474
Ni 4.323892098692976 1.9947901604256952 1.894145339510778 -0.6612962177231643 0.6602670051277015 -1.4077072629388012
Ni 5.260764816419229 -0.16626272160777675 12.76138958183869 -0.4154298499395103 1.6933920482709741 0.2761318515364148
Ni 1.8701765033021707 3.8791396220316887 2.3470166696763646 -2.0149434655927685 0.3860817357946964 0.5208592206196191
Ni 4.888764367649746 7.166901581100052 11.128528381025248 -0.4043275693787618 1.7992294530227788 0.8578462557701936
Ni 4.170409330719872 7.312228124551575 8.934989807944826 0.5157638083745828 0.2918477196097748 -0.7051872626791597
Ni 1.0068499475849428 9.088967741896903 3.4934772636197007 0.004633385006953311 0.1058453751716048 0.7021955270406874
Ni 9.255651821724523 7.994109048615184 1.724983561237427 -1.4403008806041064 -0.4856937284620797 -0.14895300499435637
Ni 8.67956824758345 8.105941817828603 7.26940654440013 -2.6019545994491127 -0.6545948944435888 0.41546353139092324
Ni 0.9775884410539128 1.8948600602162773 1.2758997836732706 0.6860605691520378 -0.3757533572854948 0.477652603325158
Ni 2.570761621514925 3.860005661183812 0.25472178806278895 0.874426785836694 -1.7441731354785834 -1.5179006306664569
Ni 1.9348283631983163 6.344356147990724 3.267117274846901 -0.4064006498577065 1.39022093322858 -2.376299673616327
Ni 7.233197765756561 7.668813028692641 5.263338745234459 -1.2450070835616815 0.3028083323863366 0.45427587627243055
Ni 9.192018322049286 6.068614096982801 5.541688358973166 0.8193288164212856 -0.09975725999599594 -0.14395426622818436
Ni 3.558907374950723 5.159508045096336 9.243053117523663 -0.0290992313588015 -0.9862733728970562 -0.5990186998401812
Ni 2.8594153589934383 9.18294650760432 8.731943728302785 -0.08625588307545146 -0.014074475815195116 -0.1692744901605278
P 2.4730924678510084 0.5938805868457214 2.2708657477628527 1.3344035691486438 0.23327156183777892 1.099460790256029
P 0.27705751081621594 5.703387145095499 1.9862265918157518 0.2616429138916203 0.40504722115360564 -2.0971303208051686
P 0.48761049355458047 5.181725114869896 10.834070924562992 0.35970890222812246 -0.0003733241790187119 0.4133315726495849
P 8.37136012531265 1.305444375660204 10.289488315163513 0.5299501271772937 1.6986111305780685 -1.4900247301917953
P 2.202685129559948 1.756577953522224 7.988142765706272 -1.6368151803171942 0.7603906473241807 -1.9887503521371686
P 8.636685005253492 4.459913258841528 7.920196650636805 -0.4966538270180092 -3.11532059701548 -2.1533860579741044
P 6.166264565138076 5.811520183598099 4.287571206997563 0.47494574591695626 0.08643406052452857 0.5004022383168478
P 7.584952465914057 3.6516622398421874 0.1818735298014862 -0.05066410201377081 1.6940448513636246 0.4531492188671551
