# total energy = -340866.8161993323 ev
CRYSTAL
PRIMVEC
9.29991488611801 0.00000000000000 0.00000000000000

0.00000000000000 9.29991488611801 0.00000000000000

0.00000000000000 0.00000000000000 13.61136548563606

PRIMCOORD
 96 1
Ni 0.7504129135201832 3.5263974855225997 3.543229401281745 0.3089607251409776 0.9409893042482761 -1.1292259373336035
Ni 5.56799847711852 1.2884659930198215 3.57826497022999 -1.673463941888479 0.37753076090089177 1.6537572074881712
Ni 5.534295585958156 1.097129546349475 9.145299046185892 -2.2413967189571333 0.07705827573658343 -1.2533947934047447
Ni 4.176712626298205 1.7179174577006446 5.8979678234131585 0.14189044172062015 0.7850513832956545 0.03916381468365513
Ni 4.10725156281124 2.4367357707409423 2.187781702055133 -0.37083226583479356 -0.952869857735946 -1.7556471975564538
Ni 1.4243656476904627 3.983041901018242 5.892686401809965 0.3862419155216445 1.8523183624279584 -2.0787518182979814
Ni 7.483474024476896 2.1850893767265114 8.415104147396015 0.7219567688280147 0.06651341034120159 -0.3728891483638223
Ni 5.137170625050353 5.937428291813418 8.1710520637904 0.972128963075874 -0.43708625186702144 -0.8509569848495281
Ni 4.230261535597703 4.480773340009052 9.984004420629745 0.5934244935818555 -1.3779133195058204 0.5041300807903963
Ni 1.418023105810946 7.648556811725137 3.7276355514585195 0.12045258356181837 -0.02120311644017639 -0.4798169579663285
Ni 7.272728655662045 0.3557161603612689 2.569050308264144 0.891835982452077 -0.2798938896820083 -0.9500868956741702
Ni 2.999129517192573 3.2812982315128307 4.163294709254559 -0.20642384551731546 -1.5917198306404523 0.6309525724343005
Ni 7.977448297896848 4.298792607606732 11.05784605038025 0.9695108087267367 -0.17745959707448147 -0.0790771059388251
Ni 2.7015229443385946 5.5933500448070275 4.747589755011559 0.257399308123918 0.9024582380526135 -0.5897473018405843
Ni 8.020999798808546 7.438099740268448 8.531984546351408 -1.5810335545711995 -2.0418426039764577 -0.8046341905235885
Ni 7.966567397605009 0.6749236452732437 0.3444521035805202 -0.30877534860304884 0.42355350748790926 -0.9068954478883606
Ni 2.254271442770096 1.1054436701622141 11.732506508065239 0.5902584371490479 -0.3282977349066927 -0.2893470646751081
Ni 8.418701354432667 7.514433440777352 5.728016530777927 1.2989681111591695 0.19732908230489887 -0.611185159999386
Ni 6.287690982148076 2.4937070486792403 10.786517316726803 0.7180759457163697 0.8121181576054595 -1.658547429787963
Ni 2.796558773468772 0.7044992342545323 8.184323042180534 0.20110037642187303 0.43937761900435945 -0.21929941592840296
Ni 8.66200572489002 2.1290480902661484 4.459872711533941 -2.4165294676706512 -0.4403916620911706 0.8507808642829799
Ni 1.475849975908944 7.726536597149987 8.140753871430757 0.5997476075864058 0.7283382468743262 -0.7856661340615179
Ni 3.710108002073879 9.163810526554188 -0.03534060615300783 0.7397981678848097 1.1446199032911706 -0.15277469273329172
Ni 5.077846468672879 8.317406682655987 2.082280678823753 -0.40966157999716546 -1.2484752446159402 -0.11642495045966401
P 8.39821364217376 2.432113713095605 2.1384540240739827 0.21004884386441247 -2.0595413068078012 0.5168403292682131
P 0.8391043407878881 5.959171492567538 2.172305713870817 0.5500389275073688 -0.8046966683304078 0.8478006986087335
P 3.622270306982918 2.3406025516668016 9.666709928187883 0.011904721857385949 -0.8746545855767839 0.22041218937660748
P 4.261025653687792 4.821512917609656 6.092624339659732 0.7241938856886496 -0.9330983315359737 -0.3409439629157935
P 3.7639638085610945 7.980666068410504 8.315659228668949 -1.4269324297170005 0.07297202148235174 -1.0426309257511785
P 6.266868472957111 1.5132635330662692 6.101811725470252 0.3820685008702452 1.2653295971691176 0.9474096059523232
P 6.507829264890069 7.484738812886888 6.690026685306748 1.4294857922664737 -0.8227866930628991 1.126317762547873
P 8.395507366972968 3.7455778770423196 6.236210373895506 -0.2467315439974267 -0.5321998424434189 -1.0258722182356008
Ni 5.05438278368458 8.709119093162208 6.157522864955949 -1.8204690791278455 1.2914998278065821 0.15421039673855377
Ni 2.7967540716791386 8.999174135215355 5.487163617856409 -0.6082412468797137 -0.009468087391435306 0.0187220018895355
Ni 1.814655171235443 2.3611367634996063 1.8928376948024825 -0.6149016896190248 -0.820025328267678 -0.2987989541166273
Ni 3.0444201021680075 3.5147818919631915 7.724408776648472 0.7990317567351465 -1.3545191089515962 0.4370402291204344
Ni 2.959753678016805 6.3417978863343345 9.771885454401986 -0.5737213587259732 1.0031876321538915 0.6590549870974713
Ni 4.402616856203395 4.5099750724162115 2.9603088829291324 1.6104588018108525 2.0629068808459246 1.3286062457405763
Ni 0.7554339375095543 8.459686078865262 10.215874545865889 -0.19343746055997652 2.1144024776220554 0.6445714487693157
Ni 2.698091275785014 4.498480377748934 1.4684760734803974 -0.1478248049271841 0.8563437030827381 -0.2562137724562491
Ni 3.036552374264678 8.039971624958419 11.679217996379563 -0.8369940949115328 -0.9666471140256966 -0.21280378090173027
Ni 1.2604918493635366 3.7055882434911145 10.945892746274957 0.7243558651878105 1.951749092322471 -0.9787202431401466
Ni 6.1375345581206915 1.7318859296992284 12.856873644820473 -0.5379274889558155 -1.3161304818710688 1.5632615752997594
Ni 5.902237414288358 3.5522884482683095 7.065347066022888 -0.9758164392297904 -0.3851929054318398 -0.2004241762904548
Ni 6.340505198180004 3.218235509394059 1.8690308429588245 -0.737509371850633 -0.09326496740343293 -0.35627390840464446
Ni 4.6013932346972215 6.310512973016602 0.1216252154758169 1.9475011156793947 1.1220839269721836 1.2784442801742049
Ni 2.686633780776855 8.814031431788056 1.9857345435334095 -0.0954329215890292 0.36556124724384137 1.1592417669694037
Ni 0.5289363730414415 8.435785297882333 12.705637500687207 -0.42065870243861747 1.0938928092499485 -0.7490939913644389
Ni 7.687104958485543 7.026355313327507 12.101810773910614 0.7352689125558886 0.2283828662869099 -0.2453151232658743
Ni 2.3168784690646795 3.1379865447630477 13.090893910353604 -0.8585602511180827 -0.47122355987036263 1.2179284821773348
Ni 5.559200757737255 7.998484705127739 9.337736602766112 0.14717225894484978 1.1593708363481001 -0.1585966987317075
Ni 6.460102102242445 3.467901021560488 4.36060542117916 0.20652617542313462 0.5032170820578237 0.49044846953824567
Ni 8.477700013792864 4.367286479956644 1.5726165191795587 -0.9057397370173628 3.1430203769235936 1.6420507176845205
Ni 7.846040502064634 3.0869393125391955 13.394182731137763 -0.842919459257032 1.578285045291785 -0.0014889258407006615
Ni 1.3719792277383842 0.9765933508943201 3.880872107260825 1.6607061280021789 0.5563139618828032 -0.7467221486981526
Ni 5.821188656986323 4.63060426701916 12.071905967946137 0.3301715548906378 0.9479364249900708 0.6889911125352716
P 4.874764229636214 6.979483742839582 11.253590656656009 -0.33691684403427136 -0.19806184670586532 0.4631130149480863
P 2.060377519535428 1.9473928548811053 5.7682377322071385 -0.7339617637086907 -0.6529853838646238 0.8763671973925166
P 4.316332246880586 8.743817075203964 3.910559295219466 -0.8459968126307753 0.3433006360734281 2.5730926809120973
P 7.085446971835496 5.755205761626835 0.20966378872601138 0.12342914969163904 -0.509534282525103 -0.7708262408352079
P 1.1050344739119227 6.1141917720245225 12.044166182142293 0.020117082464849223 0.873710990716592 -0.9646156854179645
P 3.6234978957337924 6.481631404956641 2.1100474343804585 0.1133069736559726 0.4148387533227307 0.32304471403786944
P 6.315609326315685 4.273673537787707 9.246159411942376 0.15004572383790288 -1.4310487658782192 0.2097570236556065
P 1.298184403964242 4.6285396859381445 8.556948307593617 0.3561774920360963 0.5429953903970262 1.3622514445988474
Ni 6.629779047391686 7.923592491409633 0.5512245488016316 0.7605577690296643 0.2674422941822169 -0.5931437291166429
Ni 7.226284881253973 5.480216581516236 6.530868873764431 -0.46690179256655717 0.2733792284919421 -1.0605854533470702
Ni 5.132585767064134 6.464380063040946 4.751659397719003 0.4660805822168424 0.18689426012482005 0.07184459274612788
Ni 6.110918202022192 5.962612461035898 2.1372840947947407 -0.29330862042601746 0.6818066789716903 -0.7768230818485911
Ni 0.38519968018624207 5.943045440340145 6.974504568466719 -0.7004978276232904 -1.2310989581210219 0.929241933904361
Ni 4.255259706524595 2.751509986277601 12.04424802139235 -0.5610820726954079 -0.8387686703134521 -2.459161443408565
Ni 2.962720350831418 5.848084010528202 7.446001877856461 -2.1270497340724206 1.1930124356619454 -0.7652112086412757
Ni 8.335420617583589 4.600965438617371 8.577378360380893 0.10636808044429422 -0.11505532380564702 0.030297108321644593
Ni 0.204546975614413 2.2512954700407035 12.301924480149712 -0.0016105390202294843 -1.8426309599368653 0.4010576403782384
Ni 8.895545184829057 6.97464778715432 0.7884560749080701 -0.47609168659594137 -0.575880314050505 -1.8206284875238452
Ni 0.7884272451722542 4.847878176009114 0.15128729366455365 0.2138515054399543 -0.2401204664388123 -1.7433017886172233
Ni 7.494531623149543 9.383428014068537 9.89953236469743 0.6112311827459731 -0.10770788230164031 -0.7173858616278806
Ni 7.057686726219137 -0.020910858381368417 5.00278964646318 0.6524994453671408 -0.4074049227525048 -0.4866918307092908
Ni 5.095841803770922 0.1611312534584956 11.294697209972213 -0.0687906364111525 -0.2745125707654369 0.3149251702545286
Ni 0.057515322952889913 5.562251129784881 4.327161997641139 -0.5770997882799029 0.598784215231872 0.43054356565249724
Ni 8.364306152888249 7.349257654381317 2.9521007781448785 -1.6514897516102331 -1.0042189016318834 0.908439652447029
Ni 0.3148644247100183 0.5076098084694362 6.098054559899396 0.3113863038633347 -0.5316609392208134 0.9552144467087228
Ni 0.24916889671721212 6.321440372882337 9.989027304602072 0.47118396488167885 -2.3797935457021984 0.8354951417685029
Ni 2.005926518502334 7.066363546708271 0.2999008618300441 1.1222021977176029 -0.24808291581899855 0.6917496491170151
Ni 3.2041740382476815 5.399772318674858 12.388316038492484 -1.596228260033767 -1.0907848597485859 -2.456949780469227
Ni 0.2372268761490488 9.118222344305813 1.674578924837396 1.5399216150222383 -0.18699041938305216 1.059145378466434
Ni 0.5309953741735897 2.86712652681448 7.466976905649807 -0.6037937526313214 -3.2178903867596067 2.6917735172854735
Ni 6.615029382551637 6.183857433636634 10.162504194930154 0.5895133314529074 -0.6887090625184784 0.41431630516035745
Ni 0.3348183218605916 1.7884945109611317 9.995410766106618 -0.5597564119054488 -0.9505111276957824 -0.9120556519330616
P 5.479853884839841 0.907850240828321 1.2079491908431654 0.26408237657104844 0.7510300320448872 -0.773755755777177
P -0.25975963966793586 -0.1726529178786323 8.224980409612897 1.2253803104696896 3.2138696956359873 -0.012696621631062003
P 7.962893931267167 0.355399963258771 11.851565877053433 0.5647986023150467 0.2939508819957067 1.2527322201200812
P 4.566332555979072 3.9301811854124162 0.11323669234484322 -0.548121655879998 0.14462069616758963 1.6754562897281595
P 1.4711721187749311 0.9655822517955698 0.33017673439421796 1.1651064532802966 -0.2461499604623438 -1.7240676229779597
P 7.0580494228955315 5.637719938219306 3.9398093871834776 1.1020316363069989 -0.5725345375067237 1.2637676519986365
P 8.955399436348955 9.131911818861017 3.851499256421726 -0.36051751417234684 0.131181025722916 1.6523747253183476
P 1.5113291507921642 7.239072264075579 5.838404659225856 0.6511956389540526 -0.09178966840948707 -0.2699712312516576
