# total energy = -340895.30149256904 ev
CRYSTAL
PRIMVEC
9.04046278435008 0.00000000000000 0.00000000000000
0.00000000000000 9.04046278435008 0.00000000000000
0.00000000000000 0.00000000000000 13.23163110888517
PRIMCOORD
 96 1
Ni 6.4846336323464895 1.7446014087319335 11.402490857125 -1.2372333531535338 1.6202829869901259 0.699533406827492
Ni 4.542055126603925 0.2806684030491191 6.028516061783099 0.6020238052150921 -0.6949064495784419 -0.13946486299826302
Ni 2.6142848990888323 1.3640069611749415 4.878793384594806 0.04781557682138216 0.13357292299386028 -0.7262471686732525
Ni 3.561327630466781 4.321250860774999 5.006597504542274 -0.8697692324600247 0.6500892932637514 -0.6400074835477172
Ni 5.058166113006954 4.550480838025172 2.760038858120944 -0.19557893238301158 -0.3632205149258067 -0.012504303114597819
Ni 7.1021876529317325 6.037709308504415 2.625393819898306 0.7127074823156048 0.188071825372689 -0.8503345207741806
Ni 5.089355710006209 4.336276110112031 11.843963781839378 -0.16969306575518517 -0.3026823483314336 -1.6000640888400894
Ni 5.84660296329652 7.747902715445288 12.350404185080057 -0.7131602535823073 0.6653120237507768 -0.2536005032031181
Ni 1.9618618131047127 6.370253695756759 0.4248122556390369 0.2360336979639483 0.5314634784980267 -0.6486119373872765
Ni 2.6437025653600137 1.4665529318307517 0.36826416020995345 0.24842975763545602 0.4126432883333087 0.35475438643632445
Ni 0.39366876500056375 0.23571922151859906 4.828711932276901 0.9492821403846877 -0.31980460983401693 0.25114329991187717
Ni 8.493424488356458 2.320370409801073 1.2851171697852033 0.6456353712574558 1.055436305045963 1.2526224340150942
Ni 6.838947454258022 0.603373150482915 4.716957346112847 -0.4163055676762444 0.18053797888948908 0.057433816637436574
Ni 0.6529944432392942 7.217128098221159 2.292459788695045 -0.5588020184119796 -0.017389913341673276 0.38935166479521977
Ni 7.567925180065241 3.9138424002615455 3.8336932723900694 0.7759882446521216 -0.7744561242783113 -0.14559385871413633
Ni 7.536364924087154 3.81029293822402 12.548905628938792 0.3447116574883418 -0.41072473115435715 0.15148322761537783
Ni 7.89777550937388 8.882290959465427 6.874242325459411 0.3994103345828024 -0.008273809973018008 0.006848647490717237
Ni 6.701098475984215 0.8816340782622074 0.6075100663051928 -0.08583190816415541 -1.3283712469116349 -0.5220789519593331
Ni 2.1061747223508296 6.430535502362855 9.19155073047682 -1.1657224895977407 0.2639679624803712 -0.11205998862274894
Ni -0.07582507446720255 4.891704069659917 1.1970856623126693 0.36169379386863515 -0.39945275778496364 1.4161996166805288
Ni 6.535911137905844 1.9480660667218541 6.864623272935583 -0.5758651445418533 -0.03461527608102426 0.36144568241357106
Ni 3.5210071659402082 4.519463009820987 0.691730114619789 -0.003945357800993205 0.23074339609928649 -0.02786587317233265
Ni 6.148897961691034 5.7038902159834075 4.783354121823376 -0.702220466741352 -0.1179861242991968 0.6091362478901574
Ni 5.380503817647077 2.875644681479688 9.201990657031816 -0.7516668942979378 -0.2393337088714588 0.3285332479562664
P 0.39781200914687054 5.5890582562487605 12.470296091898904 -1.11025608109932 -0.3754268271840115 -1.871299017295519
P 3.9656442526690037 6.177737038336723 12.579721854820345 1.3043188339481215 0.5438901342971536 0.18175693889825473
P 2.16263241315093 8.376522262618092 1.224329097256801 1.2622455589271553 1.024592837302545 0.4520906956956537
P 6.336044584149461 7.717364031774713 5.602444469662324 0.18849040096734634 0.02248943935176772 1.235214265840976
P 4.758773103202804 0.977735102917795 12.819559007189136 -0.15254457900035664 0.4087424106170057 -1.3437582708906664
P 4.070061599144769 6.063266697118008 8.267440941333074 0.027924494324409972 0.24347858427776778 -0.9242655637356921
P 4.569230758076319 1.0438389676304183 3.9637864375433955 1.1425486225844388 -0.3615559827391902 -0.7552880359902928
P 0.029371559910399574 5.590106949944967 3.6845590842802713 1.357929677295042 -1.0245162184283387 -0.26107392876202784
Ni 1.4120931833311836 0.975032004511193 2.535180848728404 -0.5251185101166053 0.7938170453034264 -0.05461948711709303
Ni 1.8629410680711345 6.334905485824271 4.959586193424643 0.2512993658737672 0.7067916310518021 -0.8502396470675292
Ni 6.178559720460471 5.745548669018934 9.124546435659521 -0.9907586623619196 -0.26104873195104716 0.1740557135992551
Ni 8.647193721794233 2.5274602934132258 10.129752793186487 -0.4077648771950848 -0.8149263164782159 1.1920469864248824
Ni 2.2731339911572745 5.079537767298618 7.006956320806965 0.8155238408528989 -0.08822149144225452 0.5894521391976688
Ni 0.5260347025265311 0.08761745427179031 8.945098671405317 0.9467460042263952 0.46240827557157776 0.9453110715520817
Ni 1.5318973976599148 1.0753992236085048 11.444818304415003 -0.5747068625676942 -0.1366037394003841 -0.8299770401637513
Ni 4.064528835850989 7.0499970606196465 1.5907725082390296 0.22905443843263776 -0.6338514912486503 -0.5828534029342285
Ni 5.736074263901479 7.925186192881632 7.956815156377744 -0.8094550089509993 0.19827164872382627 -1.0342954093022898
Ni 5.374708880929244 2.966582697774037 4.883027937416385 0.63997740164073 -0.5459855833736016 -0.27628714616735645
Ni 0.7783241884914878 7.236221555862442 7.000155180568548 -0.10683062190300957 0.664514467550146 -0.06645478918912426
Ni 5.15867797951064 4.413834241316844 7.114767457054764 -0.4861894371515756 0.6683127582503134 0.2744331236777532
Ni 8.134084169073452 7.430049080402738 8.922539100288812 -0.31437598261927796 -1.1496988604759748 1.0922221064157447
Ni 4.460356463391674 0.5217224017240255 10.504168988398755 0.3166580937852353 -1.1027813699888296 -0.14056220982749984
Ni 8.331229543497434 7.357562648883891 4.521208723206655 -1.1123769840970648 -0.47556795288198744 0.7832063596671156
Ni 7.347346925808773 6.180593824612596 7.04916443398671 -0.291574154233414 -0.4804851876779467 -1.291569504702253
Ni 2.2198223814457947 5.407986824858015 2.6546885358740697 -0.08293864577676038 -0.802549797190734 0.22437965866478776
Ni 2.503864685248572 5.093270230441188 11.462390252150497 -0.5383049268998923 -0.07368087462391826 -0.30037015525848915
Ni 1.2547981693630583 3.323355525593917 3.694245036229547 -1.0238752424102302 0.19318780644301567 0.33159028961503534
Ni 3.4863550716508915 2.57445261955877 2.8477114592164137 0.3479782440547555 0.6091791853129508 -0.45108333747706186
Ni 1.2602947708052459 3.256257209962477 8.366135674794196 -1.5736015237731866 0.9780137039914253 -0.6454628502353336
Ni 3.7934505558444225 2.501044060824292 6.791081819396499 -0.2989938437362528 0.1442669123725967 0.8318092082764836
Ni 4.225973422289449 6.763540953223012 6.104228130464072 -0.26163648613371715 -0.0018229121413516993 -0.2429124273616526
Ni 0.8709572915792743 7.466427903105637 11.372983690271125 -0.08913320462324649 -0.14666960827681838 -0.11520136246520805
P 0.11647822802843398 5.515676818902978 8.143168930239987 0.837822504350099 -0.09962407685224133 0.03010324714328364
P 8.508431656767694 1.748995073700524 8.005639984352781 -0.0326704936498276 -0.1290182137436423 -0.56352590625021
P 1.7073185397392012 3.1956861085436343 10.546430440309601 0.9798021633504157 -0.7673699068554913 -0.7652716295655659
P 3.9417774306173996 6.194027952479521 3.7508898646116426 -0.3179894110021491 -0.2900278927922167 0.7007233133705352
P 6.772563335195551 4.093476398051456 10.423310184189761 0.5329153804532047 -0.7828255792889293 0.3760544334656814
P 6.262780672821356 7.75391462327268 10.010059776551405 0.6398622162191046 0.4496422341551611 2.4321394062937665
P 2.2454611342254718 8.405469824818558 5.835638689893419 0.44526390258180726 -0.1237327969749869 -0.30117568187891997
P 6.890116474262597 4.020040717928284 1.5794203989775908 -0.24829297494727565 -0.6197309926868682 -0.03302196345197539
Ni 5.096841213286029 2.9133976545431337 0.6622473570157399 0.6962657918198137 -0.9748659023910629 -0.16388082994878228
Ni 1.4192893917982579 1.2442389086978034 7.004587719527601 0.13282910284930027 -1.1010715863865745 0.19167651200481184
Ni 6.915375527600544 0.88797234680023 9.257418639107794 -0.5685513844892596 -1.1036203209503572 -0.9784063114441537
Ni 2.8963654224426714 1.7451619174316302 9.072334146236479 0.1186237578831957 -1.0003583902352127 0.48593232683544707
Ni 6.22802009297726 1.994362277224226 2.747006126806704 0.647813095635065 0.45855470615344257 -0.1784258176424927
Ni 4.138172446620823 6.869567502094682 10.427636949732904 0.6489217553182115 0.37503370551065085 -0.10486655619810326
Ni 8.068649298615304 7.074767928961084 0.1809014706882568 0.38541864828940076 0.776222986370747 0.3941894525034953
Ni 7.459032804454799 3.724336216986654 8.29038473212276 1.1076271281169054 0.8236248726934783 -0.23109075213637617
Ni 3.2993350156730417 8.294163645614262 12.380242232876013 -0.5802784431182006 0.2801011205968079 0.4738391431163388
Ni 0.2861216102693946 4.8617078137632435 10.201283647776979 -0.3165357092747581 0.6762860062637772 0.5869566264693246
Ni 8.772801913303695 2.385190528782133 5.656932243596878 -1.120794775847115 0.5435463778044897 0.49619694198624864
Ni 3.572194266870579 2.5695165268162787 11.449370177484315 0.3474845922477886 0.11805502986391928 0.3162330904326747
Ni 1.0671091191307318 3.3668672735236016 12.685469053388458 -0.262044005984781 -0.13877709290261905 -0.10378540731878257
Ni 3.1303506831773698 8.432464647032987 7.877465205426482 -0.14009375483151357 -0.37491260655175435 0.623197868189546
Ni 5.430027473404154 7.778757815317304 3.502889174245656 0.2995191201121035 0.9462947756215897 0.4485096632126147
Ni 2.8231828752806516 8.337358977342506 3.490464866084474 0.48652702299665246 -0.7401370392814672 0.4354160632534501
Ni 3.35346930750827 4.218289028825865 9.1775913517155 0.4408948269798342 0.024039814558023113 0.5671560468036297
Ni 7.380498303256966 5.99637631213323 11.37745600726693 0.2101714854852058 0.5544576254003548 -0.6432100496454148
Ni 0.3800113377000495 9.226154006266485 0.28092244005656236 0.24952196225837023 -1.6015836108084094 0.7108087226309953
Ni 4.463330775685226 0.43337266995747004 1.7485602274351142 -0.1486706978672472 -0.2693883621649941 0.19429466635394926
Ni 5.975438600060687 5.5863641983050565 0.28787636411796136 0.020219669480984533 0.8458698001346078 1.5811256000643739
Ni 7.865003831367417 8.90425928430838 11.298939586994894 0.7943070975659675 -1.3588277636292792 -0.06007948179039976
Ni 0.15802186718515138 4.818991626568612 5.9638803682451655 -0.7572353895246507 -0.3566662587470567 -0.7234922316359347
Ni 8.13024197234166 8.897072116304203 2.5103846670908516 -1.241890649419887 0.36451120871277226 -0.27633136914173057
P 8.471727377400454 1.7219912110231985 3.5958151883313483 -0.32831033331218296 0.4981368393214388 -1.0167437735717715
P 1.9016975325162955 3.382290303228161 1.5362585169620717 -0.8994952987695477 -0.6584993717043175 0.021480538471279134
P 4.825102979487886 0.9311405571397781 8.2352749743408 0.2585431919203741 0.8247569294153925 -0.5631950052733526
P 8.425892230505898 1.626117101986359 12.451679970698653 -0.44561254417047774 1.3293266688463687 -1.3663518399204664
P 6.38756618220707 7.725554691160604 1.406879548377714 -0.5097435703224318 0.690327829068824 0.01666537647082291
P 1.7894059428560802 3.085437663498443 5.9463744158888305 0.7032795041334856 1.7831472027489355 0.202050141929652
P 6.984245773960057 4.076227194841433 6.078955516431779 0.535733052407658 -0.3468209905218608 -0.7217983888732795
P 2.3528708739205864 8.492176904476487 10.022444306675832 0.4406462013041379 0.3684550238518687 1.0398559341092026
