# total energy = -340879.4782178879 ev
CRYSTAL
PRIMVEC
9.21355157639124 0.00000000000000 0.00000000000000
0.00000000000000 9.21355157639124 0.00000000000000
0.00000000000000 0.00000000000000 13.48496405211490
PRIMCOORD
 96 1
Ni 8.30882678467945 6.326614107567745 11.156097045376875 -0.25577899891167566 1.0979937187921993 -0.8474507714684824
Ni 0.3530983038802161 1.0854577123988787 12.207101603403544 1.4746402773159248 -0.2527633520138034 2.466791449149997
Ni 8.913659584571963 7.189352640248108 8.954259099130754 0.23795585468732566 0.9093634498128791 0.22612312371845572
Ni 8.541017495310582 4.817286959726417 3.9771741453944083 -0.009289138611409809 0.10466241060709716 -0.42756879929488945
Ni 4.0522489268489394 3.3690364445890992 9.670175082338382 0.9605805961166425 0.12370605750210954 0.1494803382527361
Ni 0.6487878898971923 5.680633586803893 6.0552344771080975 -0.5997350091809155 1.0159526451290437 -0.978314780171612
Ni 5.062404283071944 1.3824657576314143 7.926448735578225 0.11119018442328595 0.06715310080772952 -0.5189589182731127
Ni 7.545871014434513 6.5247331048575825 6.696956494381862 -0.4316326849516179 -0.29321143272652084 0.6030861850413355
Ni 3.814788064776159 4.2492346573077935 12.153417924400197 0.16143442529081875 -0.7035648965843884 0.25457238019808415
Ni 0.22643961180267344 0.48002787437101846 10.053094888266127 1.0128367252078816 0.01460052352199421 -2.3297063992378195
Ni 7.990968472467103 8.839508922330015 7.179812929054605 -1.0141384747384405 0.9392049586543438 0.8904678984599568
Ni 7.8794200048026815 4.41771365951409 12.179282206090752 -0.09099596886359812 -1.8913399951067944 -0.12864643222652036
Ni 1.363329211225285 1.1813707832163094 1.5219672191049625 0.04001973492604721 -0.04767339481656306 -1.8841578755360582
Ni 9.054774338908155 2.7791203845288077 5.090789392445079 -0.1885845033430494 -0.6074933129700957 0.3065657425462398
Ni 1.870028474395756 4.099643435617899 4.869703775402444 0.5057532182161161 -0.2905218017094997 0.2573977654620212
Ni 8.205966696052574 2.9389386483519733 0.7563874294009658 1.1745639991487706 1.4717087054914266 -0.48095030023982327
Ni 2.8608077318743734 7.873689175787461 2.5727561800272003 -1.4034423170148604 -1.1145624217841579 -1.0141096783830341
Ni 3.6579826322841464 6.5283263899314345 11.918375619588662 -1.3968415238688912 1.9707472306915281 -0.6111684478288378
Ni 6.618296720049803 3.0379566860152707 9.21623077218294 -0.9473949506643038 0.6611530072770807 -1.2198629801958862
Ni 3.8982536275557083 8.738500757548891 0.022320749794650104 2.270186646605632 -0.7931231045601954 -0.20799530376949338
Ni 4.17733210162487 8.176990076674972 9.236270246633266 0.4566394914086007 0.15957577481552518 -0.22311056214437705
Ni 8.118585373897673 4.189982307795123 7.325463514780175 1.3414995567634767 -0.7248333190448614 2.388086124728294
Ni 7.5850286081880265 1.8758145847198047 10.961657019189573 0.42453206935109467 2.277602736564045 0.9431076361428595
Ni 3.857069052478483 0.7975415997583354 2.1247850152906764 0.4092309202176501 1.3408968901824714 0.06578707369813831
P 7.866299907507385 0.6434845696702458 4.760637438504421 1.4972194481680214 0.3518935199487617 -0.09309450326383968
P 3.562253832496144 5.561023261601983 9.387153208239454 0.21469148484274642 -0.6878019773231767 0.048437269565781094
P 2.8190979843632777 5.77515541134914 0.2881077545111487 -1.0296759082524072 -1.092618056302583 0.7096761516884488
P 0.5538652758629387 3.137859224619824 11.690668223103524 -1.3224520532137225 1.1367852377381005 -1.1346298819579943
P 5.077790914029206 8.217004530715329 1.8915633082498944 0.8669538744984167 0.21457629942112075 0.6954764631492991
P 5.433295797553756 7.882165643141162 7.417728019214925 1.3349825815805654 -1.3742775225254462 0.1302844820505756
P 0.1296088712586898 3.1648549304310705 2.7154400021789753 1.0804819351606811 -0.21108396999714613 -0.13625612625297825
P 0.6017158554297327 8.026477499837936 11.262399316833474 0.012706134712758763 -0.735041884146747 1.2555804882021537
Ni 8.940885629169994 1.7935467836315397 8.192331561230027 -0.9671484791421473 0.4561173003565436 -1.3452266279060767
Ni 5.520787682326314 5.215515081423918 8.143084207260166 0.2158610796708153 -0.009847839328357233 0.5333781790222363
Ni 0.7068111516435757 0.5355422860517356 6.047979726679505 0.2484379851655721 0.45316438837580664 0.8246211751684767
Ni 8.763699820823211 7.803141012170836 13.406940029189158 -0.9131087757879242 -0.3058980270552538 0.5428570650469489
Ni 7.543457063949003 7.815689869274903 2.745551731097854 -0.33820136717364974 0.04676219585620334 -0.9728681552347439
Ni 6.354245548430519 7.9459602735292405 13.241425026491216 -0.41011126594007435 0.483139080361026 0.981898383757812
Ni 2.146444232089679 7.708223004912317 5.114887436318565 -0.15663468990933024 -0.29925121116269754 0.6249243639623495
Ni 4.3093899348646625 3.9021693869310594 4.922834641317507 0.0657518495848287 -0.14675291201924404 -0.6567764754759399
Ni 5.466344806681722 0.8832230216667597 10.2274954400031 -1.0700360572370087 0.13029913733859494 1.2431461190935431
Ni 5.784433457680855 4.098712866919286 0.19142995892159054 0.7433660877417263 0.5354605154725617 -0.5209378963763545
Ni 7.687879483263433 8.895545742379161 11.415669509625904 -0.7529457610103614 -1.663899952349128 0.7438186018981126
Ni 3.3489509023814144 4.2369345660934545 7.428192770976159 0.009377070339525785 0.208082464166661 -0.42654318624385246
Ni 2.4700057326628326 2.3713285964039774 11.227958140078176 0.6053438707272607 -0.7790743397766131 0.4264246583881172
Ni 6.821206764104777 4.334257310286011 5.673933492173879 -1.5634803761787848 0.25890211792168955 -2.5885925763199094
Ni 6.334703605759647 5.353054977789203 2.5097944546921385 0.5252439799508761 -0.5328205067465533 0.3440495984243107
Ni 5.031621807605945 6.1781469391573625 5.898080772370465 -0.21044967884725693 0.4482723503908279 -0.6567165687722819
Ni 8.794970614517194 3.8889110863636938 9.824389664156634 0.6996269949825629 -0.3498669764370362 0.5147795900844425
Ni 4.797791084812903 6.269600651062628 0.9297717264106429 0.26644676303816694 0.7029915405794216 -0.8451699458541058
Ni 7.035163856373977 1.9214032374003662 6.283494686681523 0.33577553134097654 -0.02522380756379527 0.6498671499506163
Ni 6.715140359565846 7.634099983324783 9.71121039788177 -1.8358445331426512 -0.255881843038127 -1.0894987939473106
Ni 4.837870033713559 1.4199556985686022 5.139726249730352 -0.8226455394993445 1.523405105424454 0.7460408063604119
Ni 0.974250146138899 0.5397233957094637 3.7096052398233383 -0.42287010826763954 -0.691859692332318 -0.47374786895411314
Ni 1.8218047459943696 4.7600708050889295 10.56679092242399 0.4708772322745374 -1.2426210998280083 0.055145534823892124
Ni 3.712407080825795 3.231183287473787 1.0866886428754596 0.11377182910753308 -0.42579910898897644 0.17218755004226474
P 5.317942133131639 3.28635403368462 6.82976983884231 -0.61585171223712 -0.08493407894023437 0.3231393306342048
P 0.5866765753629419 7.880737542663094 2.2395425629325922 -0.11453390408453823 0.12120231724364933 -0.11356228419988829
P 7.544783815360886 5.340284995449821 0.5569785349051298 0.2013250908381694 1.2178459497658574 0.8933971562916098
P 0.6130927487866361 7.60621056302081 7.034309760152577 0.5079440552198478 -0.08798880660615814 -0.5071256730836105
P 7.216053512412269 0.654353796341074 9.065900623665037 1.4260672535032277 0.09459114241402418 -0.7199127418147925
P 7.4271820443797445 5.4393398873190035 9.256470036879197 0.14258463957416734 0.8110987152020096 -0.5716428789303897
P 1.0512017280281576 3.6976193307141743 6.929963525673359 0.17383331317580383 -1.5422592620164794 -0.4884147269376685
P 2.8771617857361353 1.3689586911743197 13.414936470511199 -0.9489463543118237 0.7710327004190591 -0.2597097014246495
Ni 1.1829923682752785 6.157877125920249 12.344688488881332 -0.0004566279214443749 -0.09611966324340865 0.46492281446331546
Ni 0.48624794296937074 5.378014488725265 1.4018833173574214 -0.7297523536130335 -0.13079741713125215 -0.25521104222334756
Ni 1.2663750090915848 6.040238500733222 3.5821458901229293 0.18245062253116967 1.273170176259459 -0.4441863532469124
Ni 2.9493776021690863 9.13632348298165 11.299320781644873 -0.11660801300474756 0.1773230714966172 -0.28221611005728175
Ni 2.890005476487288 2.117126711307636 6.521369237215369 -0.7361626280147514 0.15168557343417102 0.6839561212145252
Ni 1.7718396563648857 8.093202039593924 0.3062851702091034 -0.2602982269382678 -0.2605381108632158 0.0886629498550473
Ni 4.883384977982349 1.9680238078457266 12.741726219728728 -0.13263729855346837 -0.3256559264084714 -1.5052888554397172
Ni 6.1226997864023875 0.6322753629501222 3.569429346382082 0.38158770457908475 -0.4570457257080838 -2.8616604442190203
Ni 1.7639067885479975 2.7415935893857344 8.795392595174585 0.4566297212165878 -0.005533785334035631 0.4023722454246038
Ni 3.8130559170995335 8.947933996045627 6.559302349978332 0.548375680872333 -0.9700283717931036 0.846198130008304
Ni 8.184618897293305 1.054546247212281 2.143232388046744 0.583318258385789 -1.7222969042307823 0.013404446331364011
Ni 6.33582765903916 8.31566323987124 5.378815146348131 0.07209270420119197 -0.05861189610593776 0.46706968560298917
Ni 5.812166247609815 6.030960454401508 11.893913640432055 1.7300158701415949 -0.737043487957808 -0.28795018432758146
Ni 0.9306055528188059 5.315141213484329 8.335933053108354 1.1366194015841973 -0.24030095788073455 1.1101660924886751
Ni 3.4370140273451995 5.190970180304069 2.577475361090859 -0.18528757775933252 -0.9272012493252483 -1.0711336611765616
Ni 2.9631057938614953 6.558823245301819 7.5708231545294 -0.08896376892491775 1.6875031935903648 -0.6380562733586173
Ni 7.17022530739345 2.7731039354179736 3.307753428332129 -0.2479667019561084 1.0727406006523654 0.8805238998733674
Ni 2.1314998516030434 7.11090846302048 9.988259126561779 -0.8364942724569787 0.36867922404753284 -0.27755752823934776
Ni 8.836689575579761 7.82042563473121 4.8388632545621775 0.07862484889275491 -0.3614487677373646 -0.011288171319309592
Ni 6.106585284878882 2.0269813237113112 1.220494286829379 -0.47196352336018077 -1.1617092546732897 0.9100126533611037
Ni 2.3399103858864523 2.577389675062175 3.1356046685747687 0.11515636815988556 0.41697791115292054 0.5725203964393365
Ni 4.316115827438796 8.438562802948447 4.154488022106643 0.2769908571026004 -0.5233485627003762 0.47499845353176257
Ni 1.5268513227399596 3.638588106436818 13.48334524747616 0.4298722506170855 -0.061734243785003355 0.3888970937563045
Ni 2.025267603137628 9.007149491352411 8.07551109941366 -0.9045079214927906 0.06743772192768385 0.515404368152635
P 5.132261430328212 8.279840951750378 11.391557645425209 -0.07686364322727407 -1.086915606601167 0.7418578786273159
P 3.3112306226574413 5.865439002217536 4.504531112318939 -0.324321523867764 1.2860112938881854 1.6596640598909094
P 7.065153966413432 6.3819875519109495 4.416568415066192 -0.5430732948228131 -0.12941442074079648 0.868740276974878
P 5.858335354033075 3.540795471119219 11.3183615071157 -0.34001373779204025 0.06675509403836245 0.18785096761113454
P 3.290601480912943 1.1181566065709307 9.260259570599391 -0.3370898792770259 0.7172771039641583 0.8245669248917735
P 5.002175297103303 3.1183541361548386 2.9400184765844233 -0.5219385697267269 -0.31869183638581244 -0.28779874635138175
P 7.585185238563041 1.088507397935917 13.147664241297507 -1.145196601730247 -0.8691933053518967 1.1203196359829093
P 2.7328130748334756 0.6710072906256568 5.000737061718615 -0.4991020314481856 0.30201591839202824 -1.8379302120270862
