# total energy = -340895.0295834961 ev
CRYSTAL
PRIMVEC
9.05116643533158 0.00000000000000 0.00000000000000
0.00000000000000 9.05116643533158 0.00000000000000
0.00000000000000 0.00000000000000 13.24729698403695
PRIMCOORD
 96 1
Ni 6.396893867995174 2.1419495166129794 11.269700718003632 -0.39272366659124625 -0.6283830119349114 0.7470139689069586
Ni 4.6864677685698455 0.2751201640485266 5.917912469153442 -0.6711301730944507 -0.0052597057370425545 0.4482967758708602
Ni 2.7617824542006026 1.5159708369272267 4.72837104930254 0.6049808309608872 -1.386520087338225 -0.02149493664898234
Ni 3.394268922647113 4.3970476664641245 5.000073492855847 -0.08248793139258696 0.48679493194605833 -0.6533185988343264
Ni 4.864513266084282 4.687354782893287 2.335471603838154 0.40597538939482986 0.789517389486808 0.556041682058023
Ni 7.147326087959687 6.243956306534066 2.6439878571642477 0.3390865979920805 -1.6901149201815988 0.06018901078507054
Ni 4.993601003644695 4.458722315442996 11.403935853989976 1.489444689318609 0.9299405026332824 0.18519784625900362
Ni 5.713557945782402 7.848185068643708 12.456963054113283 -0.5927122980061793 0.09552033909651292 0.15963311041602185
Ni 1.6909117843096189 6.569807354066843 0.31693926893216 -0.15266979172431128 -0.7416056534071938 0.9474021497531554
Ni 2.4342026338537726 1.5712915669769567 0.19888671364868207 1.0044014499563347 -0.7792553454391675 0.7059107711087456
Ni 0.7049211442387195 -0.3530117881632126 4.725456573668375 -0.08007597951698467 0.9943193831299842 -0.20513212328908542
Ni 8.489595987324027 2.2861527023381587 1.4115258054586644 1.5977706648202226 0.4061111436417458 0.2117707116515256
Ni 6.959233795557292 0.6803083069965351 4.86373215040966 -0.447692566627958 0.6483640830425285 -0.7006538935851805
Ni 0.8319606028053088 7.526497557731167 2.511965731403225 -0.042009511662566355 -1.212826385064079 0.4014985845703989
Ni 7.785044130681189 3.824470869516168 3.9011306298612585 0.09442530626012124 -0.04465337704331664 -0.7504980708008171
Ni 7.4873331600012625 3.834952120399281 12.724121812050596 0.34682407584565433 0.28352583000764076 0.06957019488965438
Ni 7.786447061498877 8.646760443571328 6.920547299422058 1.0801003834515464 0.0926648719255888 0.6656136141515957
Ni 6.906411187479703 0.7512404891388328 0.46410218612433246 -1.5924921900301026 -0.16803161889236223 -0.4310742413449866
Ni 1.9122128068416697 6.620765421831892 9.192299595754143 -0.34018343060068507 -0.5805221836978905 -0.41589984759739346
Ni -0.0045943721487635624 4.738412413490559 1.4677607033315327 0.09769112149558659 0.4388651981443152 0.8530267228943632
Ni 6.588443706025677 1.9399274788659289 6.935715244352905 -1.1701391306081976 0.07239146638853339 -0.03981713199693788
Ni 3.173022207114457 4.2270486560266205 0.24478608442014563 0.6835108061469907 -0.6830842601325332 0.2548292334038966
Ni 5.8869511436820545 5.47744921474882 4.703704810177618 0.03357115108722605 0.9348667362903061 -0.2000688498335651
Ni 5.277635661643807 2.968167154232334 9.088042828550147 0.5133292307911611 0.43550450920219835 0.42599245594670504
P 0.10407483875602408 5.532308335303699 12.575672724089433 -0.4712305018488981 -0.038442620246914444 -0.7938885219713102
P 4.013848427570896 5.957966596556758 12.625945618545456 0.46930757379457244 1.879796513243569 -0.14748593353052664
P 2.3870822607125923 8.471041095864285 1.2250084160387065 -0.3583948114023892 0.7795985877111993 0.7101266089623061
P 6.273055807042883 7.80892110808158 5.787982973102415 -0.9877021349237828 -1.5170372542248969 0.6787077283313924
P 4.688296104216123 1.2644027133993812 12.648492979577341 0.43925574871451445 -1.5267035736700674 0.40504490716076047
P 3.984739875895515 6.246979396167021 8.165448369338922 0.012712562470661977 -0.49876341716184425 1.24254062429906
P 4.816659748451278 1.0507227731156732 3.8316882697356798 0.011540139429115609 0.17505664405994367 -0.5422011766305049
P 0.1965587536079768 5.663314920176046 3.7211264599019986 0.3031546599821618 -0.43488255934748327 -1.3659589753574217
Ni 1.529239847112584 0.972909894150109 2.5690088984504134 -0.396422198488756 0.9086301711912802 -0.07534823502401217
Ni 1.942262679839887 6.354018491973321 4.831726320316588 0.14802020876744187 0.7617042239292817 0.07917172253516043
Ni 5.994868202645231 5.558393797346127 9.239022622683088 -0.5201285131011816 0.5225777459726226 -0.13041972207685926
Ni 8.650679598694289 2.386168092889454 10.304224546953956 0.8099103513208633 -0.09026037624915423 -0.5947920633533434
Ni 2.3618385571607767 5.15061159006038 7.133206268117151 -0.6527388150714565 -0.3795333931532174 -0.24957569831444115
Ni 0.6511671711215171 -0.20271807245595477 9.172600636840494 0.37781795312400734 1.2203152372419563 -0.034727376178856316
Ni 1.3501082096102601 0.9541287235262232 11.434603016547976 -0.10621998490220418 -0.028159493153351502 -0.4491033309325556
Ni 4.160024767607404 7.003684074561583 1.4954346451062466 0.10545173927761194 0.33095702690641066 -0.3907241196627142
Ni 5.646117703701163 7.831377052331151 8.10268305478888 0.37022599970936243 0.20470789126747324 0.04815033445298159
Ni 5.271734301042953 3.1216387345208183 4.584240272909886 1.3908724507696497 -1.1261964064786605 0.7527783821945616
Ni 0.8362979218236056 7.577781467492581 7.103360046366663 0.3404881063252975 -1.0207089288671067 -0.46811946702374213
Ni 5.097689419150568 4.672682841890242 6.955055777070552 0.4538986954386699 0.41607519683299304 0.814698516738126
Ni 8.066173364212704 7.202393385345577 9.152531485214304 0.014034623716195184 -0.719006170840123 -0.6524328537952635
Ni 4.796348930677785 0.38493525264053546 10.54831912224848 -0.5820298785916687 -0.02544235133250457 -0.5181531345423657
Ni 7.959858361731661 7.179647803765902 4.646581992864651 0.7209452968443648 0.2344946356116026 0.49977668891770693
Ni 7.278839538159716 6.095770607519968 6.876950545424916 -0.3455945743139274 0.06935679332726764 0.6863019957388825
Ni 2.421811586825291 5.148022956422582 2.4766218310807138 -1.0193207902703285 0.2924596421621608 0.48031729464151474
Ni 2.2038775982556906 5.332467628698988 11.487288046893765 -0.2833160279896798 0.12675230052760106 -0.22217853724841094
Ni 1.222233328369654 3.1674557396765337 3.8970105388405387 -0.2672759438076816 0.7938666675944392 -0.08525520972507898
Ni 3.763900462858316 2.772580495913516 2.8775912252924365 -1.5581165407637103 -0.6371245055729672 -1.2262053774741462
Ni 1.0496909401271801 3.1904276004203522 8.204050689625095 -0.29249898004052854 0.1509507521506755 -0.3626116776972142
Ni 4.035390203997329 2.715159895220537 6.826610672336305 -0.21606908191656335 -1.3253432587185885 0.44201634217878716
Ni 4.1945459168890915 6.7453094737763095 6.099334051796894 -0.2130025271760977 1.2709065770362629 -1.0850132473721315
Ni 0.5560538923822205 7.351665224347564 11.136339924707539 0.5818079923888496 -0.35756434508129387 0.9524559101269789
P 0.1934234295096086 5.444638735948056 7.947914442331526 0.7998203140747129 1.150119492953161 0.5686897098393368
P 8.719024957432103 1.289673570450894 7.891878670123103 0.8089909248303874 1.4548124439567203 0.1144644842991835
P 1.890137011587859 3.3999530552503905 10.384065792346899 -1.7416665670066456 -0.9756205211689005 0.5061764217964637
P 3.998533853741684 6.226107406066451 3.6727208211084847 -0.10801512912941397 -0.4907027516408968 0.36213088140605376
P 7.055999817311491 3.9952663826114567 10.359810476184062 -0.8495513627512531 0.4023691601008103 0.17834662766512513
P 6.377379552879464 7.881964022267005 10.271397776053373 -0.23145816277812395 -0.4569984174099162 0.38915960338907174
P 2.529683389955638 8.462967455287655 5.859717088602436 0.3865630463064891 -1.2006406416311646 -0.5425300207248335
P 6.878316366459683 4.007250127144481 1.8202049833510743 0.5816719810316177 0.947873175852303 -0.8298842233396287
Ni 5.289800429508146 2.8897206936071687 0.6627662410754976 -0.47188819003755506 0.6222031083764445 -1.1291737439394296
Ni 1.8129486631153302 1.0284478521974163 6.997434244047947 -1.2328295676588832 0.7599826132524847 0.8240079670645098
Ni 7.007738997183029 0.8557343969068502 9.029954251764618 -0.9279453265801243 -0.8631684393140555 1.6833475195507783
Ni 2.8765602974206 1.800340388089271 9.238717598369824 0.3274909227346811 -1.1366903640314487 -0.17023942517695842
Ni 6.421603552719612 2.025623923910242 2.4628314737011703 -0.33918378569157714 -1.0076279273134323 2.5629018564220245
Ni 4.073368898907124 6.968981901948582 10.353795976001136 1.0087476427401725 -0.2897504707611139 0.3629099256639234
Ni 8.021433447878309 7.120760914089275 0.6113764326652634 0.8070949933592553 -1.2060749252728584 -1.5418895373818864
Ni 7.6174708328833 3.9027363068100187 8.201321762905527 0.23512429877580152 -0.2600285182166489 -0.2983387266507572
Ni 3.015939211366246 8.077967034247846 12.439172081111689 1.0821019872626072 0.7548638039686806 -1.1256685589996485
Ni 0.12368600135398707 4.834988360746877 10.189608719615485 -0.05156373100990474 0.3237885341824294 -0.2610330482217634
Ni 8.669478871651306 2.5230579360295247 5.997462266982969 1.305119475472546 -0.512247310580892 0.14859742142715052
Ni 3.695609411119898 2.643067353524513 11.430987075504966 -1.12338850471622 -0.2592553874960503 -0.29919978909947176
Ni 0.9466615111094977 3.3089254730988635 12.683703827751337 -0.18174408338244827 0.413943495201971 -0.8660480748546956
Ni 3.3334993903248153 8.457147555185891 8.108286632009722 -0.2374927990079781 0.1658374394545208 -0.08978832170874214
Ni 5.687897888568563 7.942271945094451 3.7020502212480695 -1.2620766374494587 0.13283064551119705 -0.628612354336898
Ni 3.094602899988989 8.237810635798605 3.492531102234627 0.35944202171998096 0.3725577331663326 0.33200757965811206
Ni 3.429794751417596 4.479549049710736 9.481911582591056 0.9473769529421748 0.4861480423906788 -1.0880008692455456
Ni 7.3097040161488485 6.052904282664679 11.375003800062625 -0.18685209403297498 0.02984639393747118 0.4192872760123876
Ni 0.25530987578611763 8.9093347856431 0.4332015034689369 1.6540587978889902 1.6650374083876809 -0.46871107786115407
Ni 4.369423506105523 0.58533984692229 1.6016247414886813 0.3956110154413703 -0.5354682287820456 -0.11801877730934514
Ni 5.997692166613738 5.645131126545499 0.42789027892816767 -0.09651407046834991 -0.19830404462365847 -0.4364509322758677
Ni 7.884815139735209 8.925798857626159 11.593623867057909 -0.2288250960306511 -0.5240309334793813 -0.9787264137877337
Ni 0.005285881274385186 4.918784060812388 5.779597067279267 0.6389828989379447 -0.13938335902805027 0.16547954189446984
Ni 7.981164807827384 8.920576334517735 2.579367958584889 0.07822067147580077 0.6414840680932437 0.8050846477974458
P 8.660835007581037 1.614710012992754 3.999677016078936 0.6965375574239616 -0.48717211277981903 -1.9320948084266532
P 1.8003584904224024 3.195351435032108 1.5725207153965826 -0.6531460778122041 -0.6146132118443285 0.8722572889892011
P 4.850981772068518 1.119258206351366 8.148863011723881 0.12632806850598888 -0.8130157297190643 0.021644060632336915
P 8.396459483362685 1.749074580660987 12.447862106131442 0.611574939238637 0.12858523997128177 0.23246294989355448
P 6.330639328734045 7.93218894554023 1.5072907681906937 -1.7372059601321308 0.08083856871462206 -0.3060615492163116
P 2.087461493887296 3.021469474137906 6.104023461194598 -1.7467951464824627 1.318497953661981 0.148586365683557
P 6.882941512574771 3.898138314194629 5.974305762441209 0.19413268685478824 0.555791770830746 -0.12772186352972198
P 2.559262602292437 8.57417008771419 10.2144876611547 -0.6430267299900151 0.4622144143932169 0.8687287070106522
