# total energy = -381174.0641896601 ev
CRYSTAL
PRIMVEC
9.16621565325603 0.00000000000000 0.00000000000000
0.00000000000000 9.16621565325603 0.00000000000000
0.00000000000000 0.00000000000000 13.41568314381493
PRIMCOORD
 96 1
Ni 2.7098174579610848 1.1985193430264207 11.146272971358616 0.5347017829296663 -1.077598442965299 1.4821545834150989
Ni 0.42475051073541453 7.855694181408631 5.4969684429519 1.785362208122383 0.9783039815383345 0.025387586835169177
Ni 5.577018836259319 4.6697559911195 11.140544086663757 0.31425694054291037 -1.3665166476331048 0.5897622142389197
Ni 7.42332379571828 8.588899760195385 2.3779436258987148 -0.20811640272838994 -0.5950949393057429 -0.8085646359262463
Ni 3.9081993077548294 7.436880628460191 2.0366350082100757 -1.4888533355915132 -1.607721091164715 0.20512415286928545
Ni 4.02579268655537 8.573766338385449 9.52673101744542 0.7519386599020856 -2.2723355746278346 0.09833801105096612
Ni 4.258312075442526 1.5617306326804419 9.608566989534532 1.3696572501446154 2.0454853429353674 -0.8677791986131894
Ni 5.712981310945454 -0.02518051063239274 5.877987856102195 0.8480542093804363 0.10257878860519107 -0.7663103552427254
Ni 9.077642371283144 4.745239775858954 2.5783739275222546 -1.0256978974412656 -0.9991929091722017 0.30013515642954763
Ni 0.953763056431047 2.4189001100484204 11.38089967319193 -0.9614354879177701 1.9072260702094315 0.5855479190472561
Ni 5.310291131082225 1.455906674597018 7.44781042383643 -1.3069745264034136 0.8263705537594155 2.9368099329686648
Ni 0.6963069782441113 2.208911278889204 2.089935634789487 -1.5399964341242316 1.530827108920138 2.7618304220035594
Ni 2.1237388043538052 5.422953085937433 2.343357661529691 1.0521926012976848 0.44831734469615053 0.1811630140679977
Ni 5.292215354093008 8.953999290244832 1.2416766355205033 0.47175732088664557 1.304511666685218 -0.7730515306213008
Ni 1.4321203453439657 1.6148488515711688 13.64589627493302 0.9167088344343567 -1.1487380392246023 -2.796982287314344
Ni 6.053047906432248 4.959747551265474 4.993786292568445 -2.178686741522422 -0.14706401550175963 -0.006441127639653423
Ni 3.2125202152732744 3.7284039904913935 11.674354229558253 -0.19755482516245979 -0.2916353464886526 -0.08056063246288706
Ni 2.3416289132841706 7.662479524635959 4.087396071145346 -0.3629045263472847 1.2277513818050274 -0.9875581531467507
Ni 0.27767491636280545 3.712766426828308 6.6352630002013155 -1.0056733746902227 0.9244131450571499 -0.2790492822935258
Ni 6.063396563745041 6.969559463023447 10.236769903147719 -0.10253250874828794 -0.7522255950148852 0.10343085219284123
Ni 9.348164889682112 8.6164717364548 8.007633369731787 -0.1494039764888459 0.010952642356761784 -0.3571573394508623
Ni 0.23818594331653442 6.294971832434483 7.116335322148823 2.497955790567943 -1.485047845802494 -0.32335736018228184
Ni 7.132470611314197 5.337826442479592 12.684541758815124 1.8054057570368196 0.6522693316342058 -0.3191019273400375
Ni 4.639131665094665 4.40915131790427 6.880823163897072 0.4230536850333553 -1.110067619237598 -0.18507777574137158
P 7.7106388209348165 2.984785590883264 8.083338060265074 -0.8572081079655625 0.8591063534295398 -1.2553105223702188
Ni 7.910187332626124 6.627164648796664 8.672474563367082 -1.058617273877106 0.24851511826041067 1.0952894324871587
P 2.265796812355269 0.16290748180454412 5.664811931809535 -0.2204507559240268 -0.9489057308818754 -0.5675761650601837
Ni 8.159270072943054 5.816972025926524 4.868578538542274 1.54610383257355 -0.22620257080613945 1.4181544264140544
P 0.48513570528387545 3.5542092309056517 4.33437883148853 0.5283655562989933 0.5797032873410211 0.1371138462675832
P 7.037105305129707 4.583171919395287 1.4955533065500914 0.024393598353016053 -0.01882716000883209 -0.22018541807778205
P 8.381129153190018 0.48205585687191954 0.1733212192474699 -1.2420539144706286 1.3795652532869465 1.9447106974184507
Ni 7.247057471426876 1.7215527663437231 1.9590246614718905 0.8399611479596566 -0.6909778039479971 -1.0604101041114706
Ni 6.920804362716325 6.1401727848716545 3.1735738821853 0.6130481813500538 -0.8961790899121211 -2.6342561397952955
Ni 2.1626677216323067 4.817863701358735 7.900441812294006 0.6086454242966679 1.3439012242264339 -0.8945783210839046
Ni 4.512711220756286 2.6830612748822187 3.964884101101187 0.9011647160521706 1.9994330286619955 -0.5644569027049118
Ni 6.4430245453806485 1.2930963546768985 12.841102552999315 -0.04035680655049179 0.6922646410802207 1.7017635601641208
Ni 4.289889687880586 4.0010347384580704 9.315126182491477 -0.6701377272741942 -0.023288795324611505 -0.4243448930409531
Ni 2.2893723186515507 8.060604929174325 11.04565542368588 0.32484602891266634 -0.6565198793804435 -1.1451600920653568
Ni 4.083878994253478 5.553672485350833 -0.1560154043612417 0.16371910755993738 0.2114146138636875 0.6177301602067554
Ni 4.00180470056106 1.6193402971719377 -0.1434375234359862 -0.19173847559099882 0.665430294496196 0.16438862282313627
Ni 1.8618600271824386 4.205193856551799 0.30970258998249295 -0.2521462872550948 -1.3501099241403072 0.6163145108061515
Ni 4.647665411736126 4.819880268771325 2.290325605064775 0.3618598871328542 0.5570976341263632 0.5839849454355104
Ni 8.237457891258481 1.0204106094171514 11.380912505893646 -0.5994457600752708 0.666186198825614 1.1901636533592406
Ni 5.5315635735364355 7.7025083877758735 3.622032809341917 0.9560752520471212 -1.5424616078352724 0.3727852757961064
Ni 0.882534228932158 1.4851835669416222 6.675147037136144 0.5700248837109925 -0.7129635641904689 -0.13989577988809454
Ni 7.836032649135877 3.4611996421076867 11.279061185613024 -0.711132167408685 0.054353377939899944 -0.7874173124246697
Ni 9.117817893871248 1.7565127123056268 9.098945572754056 0.41687609546773363 0.5882599186617804 -0.6314081719144803
Ni 5.863298079123027 3.5519910067518023 -0.13265530412948714 -0.7285781307992742 -0.3079531098120697 0.678529036661683
Ni 2.224420515535124 0.7325776930241987 8.689485226113831 -0.2319613276667876 0.1848378918164236 -0.6336103217721216
Ni 6.883516198014431 3.4432888569976816 3.462789063877428 0.1775189895575072 0.4482317269608797 -0.09097308604546267
Ni 9.326624283229446 6.776033154923376 10.699852610531819 -0.8184649257590938 -0.3718663635262628 -0.11040316974561631
Ni 6.768370198755533 1.8679647267132797 9.714040798185406 -1.30518426727221 0.1182252368931964 -0.4075219079463433
Ni 8.368213955533928 1.9723954200389144 4.922844367615075 0.024781577820054093 -0.7954226992276495 -0.648319088737206
Ni 7.835775995101547 8.592465418029466 9.79049711839066 -0.7729031779688947 0.12062253348077935 0.1205050340663086
Ni 1.863271624371252 6.006016054641338 12.265314809547103 0.05499306840642787 1.7767968350508754 2.1163757992983423
Ni 4.176430272275854 0.0021192290263220125 4.188724917141796 -2.6134500016832214 1.7540628837884695 -1.476104520566277
P 5.0299699283011705 7.512346080768622 12.465771693195626 -0.30754584707132193 -0.2255924480259663 0.08855084975721525
Ni 9.253477883445493 4.365538464499251 9.067230467083322 -1.8822377756952102 0.691797471635815 -0.0548269751422088
P 4.9636981901510495 2.4730632775074897 11.426324687403625 0.7795044853354962 -0.3584130662348344 -0.04609216637237223
Ni 3.9386861405469875 1.634372890611246 5.650993861925536 -1.4363442099492036 0.01927196085573455 3.6235914394471274
P 0.38843854798552413 4.583877717989694 11.762884288835613 -0.2824498233346426 0.15882629824401034 0.1078300097018014
P 3.721886811262523 6.038959433190652 4.174423787700327 1.013947955994189 -0.6547794996505691 -0.7530048963830709
P 2.8126440635721592 2.7463814916375493 1.9124593700505303 0.45653381906867174 0.06745597676012899 -0.4527581540763234
Ni 6.649475217352321 4.594290538811069 9.136415228523084 -0.18182841556613846 -0.44879145611909155 0.6698165964893497
Ni 7.569011625062406 0.9854781621017829 7.112445180285625 1.093354420247975 -0.43297171547801566 0.5131844776831807
Ni 9.0195285649385 6.341976185578858 0.7346721732686389 0.1801687684755284 0.2302643995803389 -0.6151333460138567
Ni 2.8969640800649628 6.452832395978246 6.214734448330623 0.1015691163937541 -0.44768048244309994 0.4169514287903594
Ni 6.152162194761055 6.639254887056693 0.9137341932911324 -0.5236568379694143 0.4362128481231326 0.5670719717302557
Ni 3.8803248463835263 8.404475504098505 6.984634221054111 -2.091346110023224 1.9432482539403113 0.6232670308645847
Ni 5.3117027282710385 6.8480246115528445 6.3156471481428405 1.4704349809853259 -1.3104074633443628 -1.5844225256480906
Ni 2.524100765477044 3.826784981579258 5.79824453101442 0.3398831257514469 -0.3684185141869784 -1.1398942156807272
Ni 2.3707224813185395 0.27159038250609024 2.2500648366724127 1.0642428475939993 0.09172976170582911 -0.5486587593303905
Ni 4.28743314212343 6.19126527013428 8.220339067168693 -0.056534187641302636 0.9351942948330538 2.2781622086119406
Ni 2.2206440347442737 7.510311180925009 8.380361024330131 -0.536818829272669 -1.4093214015034567 0.6706025827257548
Ni 5.989599362659753 8.362870051890566 8.093668385146843 1.0738978541852602 -0.3025545645043176 0.9088998799128992
Ni 1.3575806808022244 5.664363703871008 4.725553494804317 -0.9592551924369996 -1.6094419305105638 -0.4487788577136013
Ni 3.8872178404483795 6.062085794926857 10.941173399553378 0.45513539605924846 2.2926143794815292 -0.23917584313735582
Ni 6.404040630809075 2.726316645882277 5.972662029637098 0.1548094637751334 1.2047994009945446 -0.8780116749744751
Ni 0.3294805331922464 0.11265462188279757 3.21815377132681 -0.2251489327306445 1.7453527576089813 1.2164256723795632
Ni 5.024827681399065 2.4850526873968897 1.8822337744004574 -0.24066605452963713 -0.8286781188466696 -1.5202279932480527
Ni 0.07480273492692927 7.15699023780819 3.0338220940065983 0.4917723305559918 -1.6727023811321062 -0.09077691087425657
Ni 1.9696730540319174 3.1406662518764827 9.344130838235381 1.5157830701028217 -2.3252108253603114 0.36592608678242783
Ni 7.290468668090636 5.082959820174733 7.053764901822355 -0.7032967305246661 -1.3368885403540267 -1.4051094203046381
Ni 7.627473747596496 8.609450415372782 4.853699937523563 0.24054804089453416 0.18198371019708015 -1.4276564523672186
Ni 3.023054540644918 8.628030334215147 13.30221269080528 0.2942897533923641 -0.6062033905140786 -0.35247613192510907
Ni 2.1083487285095375 2.0425902984280753 4.15478333772325 -0.424120949955605 -0.6861716408086053 -0.6186932954509732
Ni 8.548495082219489 3.356118147480717 13.596526121565057 -0.04595692634608859 0.044430719509549285 0.5110946850336875
Ni 1.9854847757897267 5.266082473668941 10.168564093524612 -0.5809739265233285 0.2350854751180661 -1.0597038220730655
P 7.513684348233341 7.217624753418572 6.509209204483408 -0.345723643692624 0.7027349444839252 0.65443342916506
Ni 0.4330065210468689 8.50772375562312 12.438310628143904 1.5772401489670385 -1.356064341951529 0.39293758237426524
P 6.226316878251301 0.8937188450996241 3.8626972973328346 0.31364373243894367 0.909805165335988 -0.8355671326570191
Ni 5.9050043597015955 -0.009861014647565836 11.107273474220673 -1.5619276869796843 0.10541137295797977 -0.9145835605612378
P 0.660558737748195 9.349264835543526 10.303579698148381 1.8705091744043723 -1.5989271470221689 0.0016097676892810986
P 3.1657266850856707 2.6126739059673105 7.469462858118342 0.31032315270614297 0.3713135763465863 1.56525855112513
P 1.8853255388925787 7.23710296138109 1.1492326022196149 -0.731722847075843 0.13913987555867652 -0.06942081379598367
Ni 7.286362203541361 7.6987502394160465 12.39893531616998 0.2781987613677725 0.6604467252386754 0.09478937446775934
