# total energy = -340856.8504651016 ev
CRYSTAL
PRIMVEC
9.41086528948670 0.00000000000000 0.00000000000000

0.00000000000000 9.41086528948670 0.00000000000000

0.00000000000000 0.00000000000000 13.77375261600766

PRIMCOORD
 96 1
Ni 6.600300930761079 6.643430926192281 6.098796862786126 -1.0246789692584484 -0.6334941079092317 0.3561993464129672
Ni 5.3818009201913295 6.800582964967241 9.596296936761576 -0.3053023024527839 -0.15122328908577184 0.03289006585980142
Ni 4.430145993726256 7.569732981679466 11.609262191560449 0.5892500504891917 -1.7740336704834416 0.8392697783195869
Ni 3.1287833146486017 0.8852396271509511 0.8454297849792142 0.12791238227397328 -1.946130460584113 -1.218786973522888
Ni 1.4445207612289626 3.6440940630287724 10.408591065202875 -0.6422515423868874 0.05245693224813546 0.7872008255384895
Ni 0.07706275225561489 0.7264416280441307 5.598727010674957 0.002263342112879973 0.33141031239374535 -0.2145449319625531
Ni 8.893408822259932 5.562386013433602 13.1878717841013 0.1598197725055312 0.1403074135042164 0.33584392268506674
Ni 6.664614783865341 4.6077384318196914 0.5842801565225774 0.6266647436922239 -3.349197653647742 2.730126148921743
Ni 8.622724105134106 0.03880570284978421 12.097514820179807 0.5383134115403245 1.2899548519169655 -1.314374932632543
Ni 3.0528564538284098 8.680469174295322 4.7616277236131985 0.19170916501496016 0.4440241166374353 0.0817533672194076
Ni 6.331761890911777 4.223709253647957 9.602550456718816 -1.1304289565027694 -0.366464218674085 0.28450593453272294
Ni 6.8091280306123485 7.246610923392248 2.0240390199360943 0.5408719162961202 -0.41011409415355177 -1.6789823006035471
Ni 0.3321141400316017 5.344204513525903 5.563728002817955 1.455151315353378 0.5126206347599107 -1.5380503661414544
Ni 6.942912890976731 8.838072934602183 10.104369788679575 -0.16320231582451894 -0.9206279669831048 0.06640439556716306
Ni 5.174592489162701 1.6327662987830391 6.666014179527706 -1.3517682856793365 0.4555897099878476 -0.10373295681429233
Ni 7.632644615861789 2.984684145972502 3.49725256821943 -2.9016364703913253 0.47335089062601055 -1.5389764775001495
Ni 4.05791804057541 9.328981309394505 10.165043519105943 -0.8342108757394407 0.14707147170092735 -1.5517589739767985
Ni 2.9181681504002275 7.451494870704641 13.730764837436588 1.0363229812552797 0.643606256642569 -1.924400267995873
Ni 1.3240805077861255 3.69193890194918 0.8988872639334797 -0.9125909556112413 0.37852192116956745 -0.7162383782869987
Ni 0.3365965351491844 7.701042784483646 3.2241323191674427 0.5930992490319528 0.31297061763131906 -0.42610789847864683
Ni 5.250622869500619 2.0013804796786854 9.461921074059623 0.5222123922134039 -2.0841529347088943 0.2733455470405292
Ni 2.800014737212634 1.3654224388202234 3.134258556049839 0.042061705056740464 -0.08890849020695012 1.05413481262572
Ni 4.4167919759394625 6.587718603924614 1.616391393251664 0.1148825456732086 -0.2614410822934594 1.0547598478042286
Ni 4.116519498474187 0.17180569705249074 12.370206874863015 -0.5583276498787223 2.3270555918785343 1.903638352858173
P 1.9052108477102252 7.263145813632838 5.964186669539501 -1.1858696539695772 -0.21824860606638538 -0.5160731120848855
P 5.999652456312799 9.27308076982188 2.33937546940371 0.2613246113202532 0.12246267201331167 -0.7220300452681113
P 6.918585804310867 7.051947175739094 8.219927779484976 1.6735989248044465 1.1821808922640804 -0.32298043645883734
P 6.981111593018024 7.508788218333957 11.883773366496076 -0.3690543479987644 0.2896710236734301 -0.7881932713587457
P 2.455313564911944 7.52097528883001 8.590620820513887 0.24125329449167482 0.17226956823310974 -0.6523073839609927
P 2.4912818918894812 8.351427681767165 1.9845632634806585 0.08016571101731354 -0.13848013048749055 0.8378423018444409
P 1.3047035362406654 5.451187229664218 11.809904661905604 0.7853599156750087 0.0710560354065615 0.5592406486112949
P 1.1809130147695701 4.8138457916143125 3.3010313223677445 0.10560497702602457 -0.6963292980678976 0.9670402356990571
Ni 3.524801935146181 2.9823878948520104 1.441272130545382 -0.4100377323896615 0.47860982503210475 0.45844183472466205
Ni 6.693139116431776 4.215992344144666 7.283353764579689 -1.305437778043913 -0.27680908010909744 -0.9393304284886145
Ni 3.279441856402499 0.44721937396539474 7.797417573314512 0.07941572022516646 0.17347798671891412 0.05640408982134157
Ni 0.7036438069810527 7.870438358946146 12.631757406179213 0.3913393846492099 -0.8196437765585433 0.35478472545362766
Ni 1.1903427017479824 9.036312811049546 7.417923491105749 -0.3960141644170599 0.01946762180630841 -0.8570381580466013
Ni 7.757649138949865 3.1077970851457475 5.616825986719749 0.12691967934340076 -1.7389471111929535 0.30499814094880373
Ni 2.3781350590137795 2.6200978154029637 12.549941225886874 1.8159614210654789 0.06753876628192239 0.7670516042841241
Ni 8.050138830855113 1.217351885009503 1.582480281417321 -1.057985553830378 0.0128179777002747 0.20875095098859534
Ni 4.306581333021112 7.208675725577897 7.318848725035257 -0.6289118878551879 -0.008621423120423861 -0.8702909092914495
Ni 3.177475131441322 3.623352516022364 6.301587833667383 1.5669498227846241 -0.4159803231263416 -1.0011196938812692
Ni 4.942558195610069 5.205366018523389 11.471497476282721 -0.5230395161003896 -0.8307802527913369 -0.687120892095752
Ni 7.126942360899741 8.868592370601176 13.605726435233622 0.05562581689442033 -0.2240914380004076 1.4952440696092055
Ni 5.270969160166615 7.361338781629601 3.9563729223773403 -1.2231125974814354 1.239931468810987 0.14258643934638024
Ni 6.017307239517891 6.252767088020765 13.466088016685033 -0.6388391742712287 4.3196140049078835 -2.394298167076277
Ni 9.28061887288546 0.3758868975592363 9.34295644428766 1.2123275910507894 -1.7416457410710393 0.4011034060145092
Ni 1.9280227850711753 7.725501623262982 10.611174997048678 -0.3003886672012504 -0.17619332876754815 0.5975631983405774
Ni 2.5442838849657474 3.40862480366065 8.3763420064245 -0.4877866064353664 -1.4628206589731776 1.3732670789830608
Ni 5.361548738177812 9.096871728919888 8.17025911487952 2.1448692787523447 -0.17014172325682958 -0.12615811858702788
Ni 6.980057576110258 0.7165555141011942 5.481099664854721 4.051215517459984 2.9359465565271052 -1.1868806117325945
Ni 1.2114795050948033 6.691322819438928 1.0513094018348366 -0.39983945170042107 -1.4133194669192561 1.5627350133723281
Ni 2.2663339798685302 5.615755030254537 7.359549776145971 -0.6449753690759538 0.7066867300428217 0.0013151192669977351
Ni 7.84575365940086 9.202273419696555 7.495690176081908 0.4447010880998019 -0.7460199804248054 0.5998219124677671
Ni 1.6987364641709346 2.9924481098020332 4.68295194905409 -3.447227903650302 -1.6853522086856327 1.1441133959683973
Ni 2.781757658631676 6.323179181805678 3.9229304716323434 -0.21042319648469565 1.000063227592297 0.9588931811118905
P 8.938543331988939 4.079308937283924 6.916668811059866 0.8469612334265737 0.5945287823896277 1.65278301650036
P 5.486939106741054 2.9351641730379643 2.1735117926687537 0.9577230720631892 0.45467156904895245 0.9824177465963919
P 4.164223174415876 3.659669045014074 9.86524346707611 -1.4244526007179403 2.5771354835229032 0.6292381608463551
P 8.389541686021227 3.547867965868825 0.900435351266762 2.072882504001398 -1.725569661444783 -0.8142382892722558
P 6.8056083670096275 1.628700804995939 7.994643899574674 1.1024589536524045 -0.0436115660423636 0.4155535200015682
P 8.805483108248646 7.562430150247082 0.731802056889344 -1.674699099847161 0.35214188851414197 0.08020864844010703
P 5.612018916751114 8.82579175545365 5.577488569983458 -3.383483571413805 -3.63254170666188 1.1325627150163204
P 1.8584482582933275 1.2330492082430282 9.157713913834195 -0.40109003627807055 0.9706840030992314 0.8274645581545426
Ni 4.976136162814636 0.9106856656947928 4.055336640237907 -0.21059083241081153 -0.4334309145026212 -0.39058939385706276
Ni 8.919514562457652 7.477017137256992 6.083922049175269 1.0952644927864943 0.9131622547336788 -0.4030741565876349
Ni 3.0535810904524996 5.796133084461355 9.916330349074427 0.0965274402047886 -1.3208183742650412 0.134813994489813
Ni 0.22323137019973116 2.738580608874234 2.7760857301467565 1.4489356734609693 0.12645996609816285 -0.11360727850521078
Ni 7.571615154729049 7.649753568882502 4.202083085308245 0.694820574732855 0.8001758976419187 0.1356200353308761
Ni 4.466613096561933 4.870837991555696 8.017948966274616 0.5427488216038588 0.18999501053733087 -0.19206269169963697
Ni 4.956307469737275 3.2486683270418113 13.395635456179555 -0.4247053617041654 1.3164636968407715 -1.927797723713196
Ni 7.288875119220642 2.0776273099173057 12.978400981067072 0.3491478388828245 0.27326944238695516 -0.6335637848049024
Ni 0.1626216336570489 3.0512189632752724 12.62347866802062 -1.4161309682261223 0.2300348000680361 -0.4582893683071978
Ni 9.388213295264892 7.316561884780013 8.32809250029843 -0.29524029023109155 -0.28127971428594134 0.9707269405220249
Ni 5.442839792189317 3.1065548509330223 4.87881464093983 0.8838059130587489 0.16150718751028315 -0.5321162815906771
Ni 8.85230216285703 2.530242874015856 8.456711736728233 0.6545082482670534 0.6155861172805591 -1.9126690956018737
Ni 5.095625918867433 5.1854902711197886 3.4332728008314684 0.8320326371411993 -0.8213862131709466 -1.211848594531842
Ni 7.103358732588462 4.397433826124498 11.81059353724175 1.2771445875261747 -0.4629489785663963 0.8760375819672398
Ni 8.7508153920235 5.3467078036818485 2.3132603183407414 1.434775065689871 -0.0904588654132055 -2.306948022495382
Ni 5.592472549631191 1.3355429416580882 0.5878779303068559 -0.48667897519348435 -1.340544391939059 1.3776739498015047
Ni 8.142130038653498 5.2614359536704765 8.727077425522154 0.6903481407837981 0.03242521040824093 -2.062669825134454
Ni 0.965432433188023 0.6744842410103831 1.8093753014580665 0.07546239200437327 -1.026871863144709 -0.9816145339688063
Ni 2.797539679652432 5.103267541448742 1.9741783736795824 0.27127478055442955 -0.1797082838993421 -1.4658640737851916
Ni 9.345092710698937 6.022680843574451 10.35445976829686 0.2661755116546513 0.7409675056025626 1.672596194571545
Ni 1.7981434337846778 0.5373594645695147 11.350949938976058 -0.39936379761558316 0.0927368628141048 -0.6592298221124389
Ni 3.4160123328802645 3.7694279664005257 3.835811268772805 1.0629215576794147 0.17992554211647077 -1.2599673044159398
Ni 7.787378062268034 1.6779008085120473 10.314942604034332 -2.045100705902439 0.40964641048851386 1.8662645401954052
Ni 4.978187731438681 8.344774200036888 0.4661794441803724 0.3962134249120596 1.713219624519862 -0.258313078187439
P 3.999937699782996 5.462706128727668 13.351229347420736 -0.7084278811036444 -0.14848609266026686 0.8801076382715552
P 9.106207307245823 0.48296278126350695 3.5152546123521695 -0.9565503919113267 0.0538404428592234 0.27570890506638324
P 7.186635479167276 5.545757014540532 3.507678865827597 -1.4370242667353639 0.8625367192673274 1.9235518039526485
P 1.1725467555641722 0.9798122352868396 13.379644513950295 -0.7496040982316381 0.10086823367198758 -0.31085305706768396
P 8.54157421410132 3.680457646346722 10.199380943136017 0.3740047500255043 1.2815432308145027 2.2664611181249286
P 5.438482561579532 1.744736773502751 11.731104663925223 0.43526899615262454 -0.16615342803304287 0.05462848597815753
P 2.7935024184610757 1.331703308636938 5.85049777082552 -0.326008938872516 0.4658797790599461 -1.0415266369434064
P 4.732855885290743 5.010786968657464 5.552309800012658 -0.046080339297830314 0.6128813167548864 1.4809286814277978
