# total energy = -340851.251844234 ev
CRYSTAL
PRIMVEC
9.49665072128849 0.00000000000000 0.00000000000000
0.00000000000000 9.49665072128849 0.00000000000000
0.00000000000000 0.00000000000000 13.89930826677070
PRIMCOORD
 96 1
Ni 2.3418455712721684 7.225061344904589 8.089911826987441 2.1944776858080917 1.0335916983670457 -1.5230582636079961
Ni 4.5062557209712875 0.6841805012833108 7.211586547234389 0.28686157924909306 1.2580328063973882 -1.2697377535391423
Ni 8.775266114296572 0.06533790644212883 11.185259650951323 -1.303856292489406 1.4029427516706225 0.820788688796264
Ni 9.165046645395064 6.439640849229197 1.9482103496568435 1.7369539920223247 -2.56658676147278 -3.760662605402233
Ni 0.8288220886786649 0.38871405722551783 9.706290208082654 2.5257057069877016 2.1211076575563723 -1.824589786164438
Ni 6.778025506769921 7.304500827962744 1.12915081789196 -0.6643661148977398 0.04355577310376369 0.29009319881251333
Ni 0.16983430235729935 5.534315641887067 13.107811949762201 0.17655893963708302 -1.0614863678947848 0.20346836243341732
Ni 0.20788643202445042 4.771354725103789 3.996509699641614 -0.7627802306022798 0.6953147407604541 -0.006434956992066337
Ni 9.474343061859024 0.2654190412609012 6.245779070950149 3.0525460848914205 -0.4373135373864791 2.058929384255415
Ni 4.360672065827055 6.044048367905768 5.9093877603901666 -2.6323182993426344 -3.180006210119323 2.262731732989484
Ni 4.945504305536597 8.04481223284002 5.348550707990013 1.2156150035528097 2.1000392669218475 -0.4255515117545446
Ni 8.70652935657094 5.777031040333009 10.327255304354022 0.9548316094480073 0.012996412259667939 1.2985263956360604
Ni 4.627347513974817 1.2844315030601834 0.01292494159499678 -2.002921501431228 1.4007200329876908 1.3855551523217946
Ni 2.5187491804063344 4.145345007983589 4.4412321536671415 1.7551193500774416 -0.5416759002546543 2.013466881047242
Ni 7.87229607632664 3.7974542030978307 9.021457286896643 -2.937492046637354 1.3123067372496044 0.7694437586653846
Ni 0.3064046863275339 3.803095213610269 8.094512004583779 3.324275693595082 2.2908102363932548 -0.918964977458385
Ni 5.42390758091467 8.940165956953093 13.006250018911581 1.1876655695277352 -0.4976197904757042 -1.8882852674408708
Ni 4.3507480658514694 5.385560105410925 10.469876004481621 0.9448374743497728 1.3753321890422054 -0.6310641583115002
Ni 4.37339757775747 4.088099197598107 12.738410281388692 0.3263943472363927 0.016991649461990093 -0.6135947978821432
Ni 7.728963127396965 4.117101968818622 13.100376072268531 -0.15545223956545487 -1.2054066955612401 0.9448829828757277
Ni 7.994404010954463 3.069393477616252 4.896587057810051 0.18710946145941967 0.04701519240727387 0.6940919240969465
Ni 0.7833350311829151 2.752642190357235 5.1865406961397795 0.23482862191225362 -1.0269536242252377 1.937547089790476
Ni 8.27896165235967 8.001773411893272 6.759706467580538 -0.5805239834701035 -0.8232080968710339 1.2667241635237991
Ni 2.939298859754488 8.387802765967498 13.387368654911766 -1.0183429997380913 0.019194827760895976 -0.5541292955266586
P 8.232494540512262 7.111908751881528 3.41176577878353 -0.7004446057878517 -0.8650106347291168 2.2083387600609
P 6.617551103336963 1.0980977197865376 8.077791251706255 1.0588473876100408 0.024801889535028255 0.43914673394047593
P 2.1441917803708694 0.1586947310928385 6.816610398541024 0.5511424449841927 0.42385792610220546 0.10073582185918133
P 1.7936514099413903 6.169423150372446 0.3681082245489388 1.1286518099976885 0.09624539018799554 0.08338061841018543
P 5.062408075583923 0.14132250797768228 3.972547750609656 -0.4584274365469589 2.2277346480890086 1.107988625221382
P 4.860870154548638 8.146929717756258 7.484819432686594 -1.01757603966508 -2.0585115799917064 -1.2385867818576346
P 8.879558332221814 1.0513647017196903 4.575304918504765 -1.009442611924668 1.0728971808348877 -3.3084035024495155
P 2.0572024600107146 2.3104686373780687 9.030143873286756 -1.4239908305901734 0.4487361774011239 -0.16639588306115213
Ni 1.27814472030053 8.557308484210774 3.548146229739877 -1.7065239576672415 0.6200009585188032 0.1764995471540573
Ni 6.061047372648637 2.860210752772024 7.303947173227263 0.0007206802161084363 1.9055491967276408 -0.6145036828496578
Ni 8.07575232080218 4.215363813552958 2.0197505186674456 1.4521693499069184 -0.9410085875219858 -0.7484208765568142
Ni 2.9154527698610004 6.172053722614778 12.201632993522649 -1.7050522582177214 0.03717326661618759 -0.21326940768423913
Ni 2.7912650687311156 2.647751683438249 0.9974883030005605 -0.8366387684546429 -0.5334555692273909 1.0377021209909933
Ni 1.0492564452655468 8.074470272958445 1.2412654269941303 0.937261718885044 -0.31671645782699653 -1.3162420677482685
Ni 2.503972391925941 1.03784147113095 4.491394412299715 0.4635169352547243 -0.1380121897121365 0.25668736965855793
Ni 8.535200281394351 9.040213172017966 2.361144664813206 0.6812086403763752 -0.47514063553658176 -0.9174626818812457
Ni 6.491568535225848 6.555803880522364 6.4425097874039565 0.31523858772988933 -0.09837966292217895 0.21228158984967313
Ni 8.737982263670593 1.9537839339493517 7.8575705697599965 -1.2749488654264365 -2.369376464133932 -0.28844640723770965
Ni 3.236373086774833 9.43496994808029 9.005501014400012 -1.2266182966418488 -0.8257056664819069 -0.7462218120229664
Ni 7.58118574594234 1.5942122487095551 2.7895775139027315 -0.10779170026469823 1.4562041820979243 1.0564426348232903
Ni 2.3503640669449912 1.2926081193080103 12.889023362740646 0.05914977088727878 -0.3210253696149955 1.237603849119075
Ni 0.23426432899304928 6.598994647880223 8.08261460059391 -0.9634818289238375 -0.28797409558698145 1.0020131522298164
Ni 7.120218321239075 0.4899483536271825 6.007225104838465 -0.8070661970038487 1.2289194339711995 0.43411714193636847
Ni 0.18266807610563046 7.035204304223344 5.054330224503317 -0.48854251076478433 0.30569619545709287 0.274976654886049
Ni 9.440060152852457 7.6028191162240475 11.999008655647932 1.142651209600574 -1.38176328937953 -0.38312188183542406
Ni 2.916772804307514 3.792943294018019 10.75123992225832 -1.9114974438912755 0.4120573339228516 0.08690045863798582
Ni 2.572424250130744 3.221206935615972 7.087854685337834 -0.7314220280059727 -3.3850054073749702 -2.746569124969115
Ni 7.001206294737606 6.198720317764484 8.880449118056944 -0.6699659775830203 0.3311830268742877 -0.9118031696026233
Ni 3.451538701556495 8.343994716314509 3.0076434058064447 1.8797651457850013 -0.04759137662571804 -0.6683814067047199
Ni 8.797003947735917 1.777279184144348 12.99408765836734 2.5613882479909758 -0.5423204758171886 -0.7556323067035889
Ni 4.5806524825107475 7.5076531796160655 9.442800886242845 -1.151764741866068 -1.507181958697372 2.082303540204981
Ni 3.698366149753087 5.895577730950456 1.6000052056331024 1.5257571505963983 1.9504905373250212 -1.3214896893004533
P 9.016224632364063 8.406815060657568 9.251170820876965 -1.5740347546558633 -1.9686330125620033 -0.6491863218335078
P 5.44009937034852 4.719351065901583 8.70408017035687 0.07090768275415531 -0.423940972734315 -0.1971105385361896
P 1.4083153113678493 5.558437134650691 9.908886056005288 0.7638328402365104 -1.6939373792514827 -0.20968606120835498
P 7.016258486088135 4.566008647140075 3.8276193643633323 -1.373751474818647 0.7814122438811703 -0.5836108499255434
P 0.12516965481167933 3.3306368415668524 0.3035300501623571 0.7337077387163558 0.9296952193916956 0.644548051730548
P 8.46476362319443 2.339575871756221 10.38281071091591 0.6550620638879945 -1.3044165358682502 0.8030550189619267
P 8.388714444434155 5.452122130127554 6.92940306850277 -0.2585079678070645 -0.3172301642386214 -0.3355456747183576
P 0.7036894708046936 9.310943690012211 13.21098641190072 0.15549054900255802 0.07382382795968576 0.052529951577915984
Ni 4.225012410658407 2.6032028950311 8.975645443947148 1.3945632693576757 0.9308059359573712 -1.8642074005560605
Ni 7.988440114318418 8.494716059484379 13.465301969169797 -0.6415809986824241 1.1568624681039494 0.3358570353111893
Ni 1.0015452721771825 2.6864030517642132 2.95325513761489 -0.15146574411388108 -0.2698336772325289 -1.1806395159188892
Ni 5.149492362451021 6.638567191323537 12.627855022330534 1.0829203693988447 -0.8163779613230777 0.12381970026183838
Ni 2.165103405199806 3.998906654276866 13.191236227451698 -1.9610199761014355 0.20787009104553877 -0.2779894735704438
Ni 4.269646668921806 2.618312066285795 2.929307433558973 -0.3331923439948326 0.11683272742104395 -0.35737819721241676
Ni 2.798748429478256 4.9510408528913965 8.13647390534179 0.9739906988749614 2.527731993389111 2.8875188000430208
Ni 1.5610214545328367 5.6003458541648135 6.174183821365518 0.2522177639229785 -0.6642162195834368 0.1542013978774893
Ni 7.021187247798498 7.712799827915198 10.991767292384285 0.04953795882912759 -0.7206871580869717 0.27498719640901026
Ni 1.583680463089532 7.573493458879924 10.22185672662289 0.3759762719295783 1.3956978971827512 1.013799603341783
Ni 6.629326950197944 1.7800901927498725 13.128313319281142 -2.0574126905005725 1.321879211429388 -1.5252580994727925
Ni 7.190028200493169 8.533519374221452 4.220789250094635 -2.2159931912823643 1.2569241467142418 1.5513195724465347
Ni 6.013383682813744 5.234553862720225 1.7922326103276556 -0.6177396732884523 -1.268939168897247 -0.108141113184317
Ni 4.994165143694395 6.171237010655065 3.799139858596076 0.7165924191923079 -0.4769388650875851 -1.0160763151911016
Ni 1.1567395378240872 2.231295060539356 11.188721180129413 -2.7505900732030497 1.0726706666463786 0.11928453139564617
Ni 0.9507856742159351 0.8174014165536516 1.3986182813438583 0.0008911443557016909 1.3623931123830344 -0.6309554006477779
Ni 6.090781385972615 4.15554441082931 11.318540395121039 2.4168104892461795 0.7940957528861097 -0.8970841182248938
Ni 2.6383974825043244 7.962808654094394 5.613193872889186 -0.8304542369104859 -0.7171642325353778 -0.3736651072978984
Ni 5.773308353260829 2.2673063599722934 4.725528637178251 -0.9390910587842988 -0.3406099766151424 0.4077561354443364
Ni 6.279755238139288 8.763091408106428 8.901186954178174 2.7351053473038895 0.25118675155530285 0.364234815122934
Ni 3.1923940974093443 1.4826930796059201 10.644854642520045 1.0863026556075162 -2.1865895413092664 2.4832786481717424
Ni 5.809946431639593 9.445102874371152 2.0780295646484714 0.40857323202899315 0.1277897406531799 -1.6402658578699558
Ni 2.0828434168854324 4.738277890735403 2.4024123604054606 -1.8897865345767453 -0.71042254293617 -1.6730057713051378
Ni 6.420058755497468 0.5598437027375252 11.089034837790924 -0.37826352530185825 0.6119318083574236 -0.6046879823108167
P 2.2868694604026336 6.530077453791397 3.538735998566856 0.2813311363491671 0.08697064975428892 1.2230493483436677
P 4.695020646822685 3.642259937450926 0.8066407616518949 0.35946670431032934 -0.32460948742182805 1.9886235967513168
P 4.430377481923511 3.628328350882329 6.057248712370901 -0.26406489306955166 0.7439546132553445 -1.1760331274951294
P 5.146026084947587 2.370515959718381 10.942355269156565 -0.0871313437018693 -0.7687991831028501 0.7133867677708166
P 7.605582641576099 0.9105274725924889 0.7706513045155545 0.38573797930203246 -1.064674021594147 1.208711334454441
P 3.700939742091253 8.746101900014255 11.321403635305384 0.07949542442316632 -0.21144495288099066 -0.544222577935908
P 4.547746587854859 8.163292446902608 0.8134527091949451 0.6408960568002575 -1.4887180955652297 2.3250943543871054
P 7.658630932354683 6.1160234835181715 12.514645449403305 -0.9073281645504051 1.7505918945207335 -0.812651147290794
