# total energy = -340874.20754222403 ev
CRYSTAL
PRIMVEC
9.15934092766970 0.00000000000000 0.00000000000000
0.00000000000000 9.15934092766970 0.00000000000000
0.00000000000000 0.00000000000000 13.40562128801331
PRIMCOORD
 96 1
Ni 5.651148510759557 5.442846778404814 1.635030292936073 0.3039514448518443 -0.09756642299226423 -0.5560684215309004
Ni 1.7599582081712886 5.679350121608218 0.3197800713086417 0.2641039738376032 -0.41823775170195066 1.116122052961794
Ni 6.561605321925072 0.5986810879311323 6.059850212013654 0.040847887254297395 1.6662483979766465 0.8050123997986136
Ni 2.757611945377483 5.689553627449533 6.013681637916947 -0.6613288707333127 0.3488128241409089 1.956276033658547
Ni 0.008640922271720352 7.269448351478622 0.8642497678367305 0.7429215440051399 -0.7862376902942718 -0.12121620120072026
Ni 8.0362225808374 5.152779609204993 2.1726085013178373 -0.7038608305582523 -0.003988809444418937 1.3443725074358976
Ni 6.658923319738331 6.59450567469168 9.333664295815575 -0.8666839086664815 0.7088230596595341 -0.40619213339132626
Ni 7.684192469971064 4.346611054331409 5.854744173723574 0.31594564109924295 1.5050880522828207 -1.029245762693524
Ni 0.07727552790126167 7.422940587464938 9.566438871309826 1.1617743035832702 0.8633453312115518 -0.6707221390227546
Ni 8.185565635364004 6.052813090345896 11.103876386203519 0.002211405829021998 1.0805644675721582 1.7325774602211839
Ni 0.38626955928285456 0.34069451048104604 0.08103910110610574 0.2164994845857626 0.1134761522439852 -0.22927298220134706
Ni 2.7890193255658753 3.0212910532408346 7.807380110421855 -0.09972126455173795 0.19292066882455808 -0.573011220032826
Ni 8.046398608655801 3.0512787355787747 3.7123917234341173 -0.8100849292255146 -0.6105976629270323 -0.41003541839681645
Ni 5.863086501479652 6.2010570239560225 11.999653521595357 0.5376318120922676 -1.0088494584253593 0.06766063657176735
Ni 0.6235496146005703 3.7658080840409074 1.9476761535626679 0.8629267556168944 -1.1111809069064347 -0.8479140842581462
Ni 8.728476412058887 8.652710343549591 6.390660877653262 -0.48257857987186564 -0.06280073737630475 -2.027145149865283
Ni 1.099194191206928 2.30841038615342 3.805708005177295 -0.12667362477086572 -1.1368636563845196 0.40192693035706906
Ni 2.8122840516313508 7.615799670943148 12.819849607165505 0.3537783956763004 -0.01812062086011073 1.0613439287796493
Ni 4.291261156845713 5.414260475235385 3.659346316136639 -0.8446384988306679 0.9926515085092582 -0.13028756737436917
Ni 5.077379914334522 8.209041026271805 6.916309044420741 2.0100362580991384 1.0184054775449105 -0.18526469494119707
Ni 5.087427711379336 8.587679022657905 9.517414414698466 -1.1214318952104816 -0.08942296794952341 -0.14532594976473034
Ni 2.541854509472624 2.7699129403010794 0.2575725752382123 -0.2012199327188728 2.231459662349079 2.222858808053946
Ni 8.411480780405325 0.6345087660719647 10.327208236728238 -0.7303321373759035 -0.2524890153064942 0.24289700074268492
Ni 2.3928320318799905 0.7008141512926672 8.182255449537209 -0.1929162979491839 -0.8345461475916723 0.3871855103818364
P 4.1453070584782505 6.809686072115389 0.9054961120958052 -0.6859947489111088 0.6766868412466217 -0.554074016808691
P 5.239143035217342 1.3046473685197957 7.923915321525655 2.073995534559918 -0.8504185958475547 2.515123046375849
P 7.80450957296165 2.8002028808910513 10.906384508062349 0.7607580579659284 -1.1594973346236352 0.09906871856940358
P 4.922413024451931 4.195573521725231 11.154925057169393 -0.34618515671007477 0.5944732465613439 -0.3243662610627704
P 3.9255744685921243 0.6141970115354298 11.09238782482402 -0.2802139920255884 0.39184306375850586 -0.31960483511838506
P 1.5881472902436542 0.7000273639032876 2.007464667682746 0.3391179654506482 1.5622539599708514 -0.1506879854075921
P 0.975497291398169 7.305352968083609 5.65238685365879 -0.0706405451356977 -1.1550866071504495 0.2971557620862495
P 8.466949749323641 2.3856785865819052 0.6329690808547968 1.5866989803870932 1.2188263114012556 -0.40137542872897325
Ni 8.207731240513002 0.6312187307953037 1.9170573926318497 0.6230034927905529 0.022133084453613495 1.8129902542522969
Ni 7.237015125101517 1.3655478266337118 12.482643889660185 0.1319616126426824 -0.1545454114804693 0.40296565603422857
Ni 6.4237938776805255 4.846463769123221 7.792526407169736 -0.01950695968467608 -0.8114946650888476 -1.0763134056052883
Ni 0.4956256789338518 5.381671540061778 6.822389162107597 0.2164334072345176 1.3490287752609864 -0.2774238308749609
Ni 4.127263156766051 0.969333054924915 1.2152622759212246 0.9382647062282616 -0.23742260789167494 -0.13004845478036958
Ni 5.795582158525889 3.0676922745981963 5.964616880205317 0.1800605250324383 -0.17196874916323932 0.44209193261172897
Ni 5.890729392529102 1.5563552177344944 10.494095092950044 0.16950049012840487 -0.6117554306805593 -0.26263124594681864
Ni 8.725746928449631 2.2005225088600198 6.052329477142645 -0.6361348879661883 -1.620791808305744 -1.1731100403110637
Ni 5.127545624830825 3.2170444884657736 9.110017919532687 -2.4709314394602995 -0.09536015936956481 -1.5500533041396014
Ni 6.415697020262463 3.810368277863167 12.841526103506668 1.6841602452600608 1.4991464899874054 -0.14096124503813143
Ni 7.104854994235868 6.838858573106941 6.700223704109131 2.433987001025466 0.2249563571038642 1.646868450788138
Ni 8.975998442449995 4.603026804805028 12.953141832575128 -0.5063728540779859 -1.391954370979919 0.5315375262690717
Ni 0.6519444875437124 2.2238605096532607 12.044682673675313 -0.3899057375264769 0.4552513528118224 -0.09217173433925416
Ni 2.1134080168880756 7.828736029829045 1.8389428690976755 1.2505038450101946 -0.9813540812185679 0.262971917115689
Ni 1.962617786488105 6.399796404337397 11.099935121783844 -1.7646242042440836 -1.6199824250305712 -1.0048508787889274
Ni 3.992868146703561 6.552033810610731 7.892680136947511 -0.6148242994138703 -0.012404544311939927 2.103751425666112
Ni 4.024971636805724 1.371977683995115 6.39003071499448 -1.9725328618370415 -0.7663769468146028 -2.030590685211722
Ni 6.474371758520508 2.2118526136407257 1.340004256534736 -0.3513304483564401 -0.7993158636344685 -0.1078598344984723
Ni 1.6981509753012773 0.863439166160827 5.786415490082454 -0.11196845735020716 1.1768484243075732 0.755142254441048
Ni 2.5136254206010507 6.953469406672805 4.2602256459007295 0.16932848332691483 1.0116972122867998 -2.7716795468834974
Ni 2.6043944896202884 0.8312743084741615 12.769497962047497 0.3558345068743807 -1.6142288103762459 -0.7327818844679768
Ni 5.398194991172848 5.832567577365413 5.8776947343937564 -1.6947444485338103 -0.6519811109698256 -1.7828625816289811
Ni 0.29168379288114316 6.798191099197211 3.288425980452416 -1.019661975659831 0.5281920068356065 -0.0860936464659743
Ni 4.019585944314976 6.176116138492917 10.28947083599502 1.3642715603526698 -0.1028487544371261 -0.12445887650773405
P 6.228736552369357 -0.00311967153460669 0.664074202791157 -2.1786797995438865 1.483693902877761 2.313395835003255
P 4.6383360642469205 3.317192722638967 1.232596328708198 -1.1587627704504562 0.200652490251177 -0.2532071244194413
P 8.541845680440726 5.525775451553167 8.766914502376357 0.40922037869468875 -0.7016301414555207 -0.11320772907394697
P 2.008451128705286 4.087584891681153 12.069818653101095 -0.3909483198583783 0.7568522951536192 -0.5374271522806292
P 4.513164510541885 2.158426177758868 4.418318618856606 0.8546321197082701 -1.0004990295781349 -1.4404314926447
P 4.414426814878174 7.916152780053021 4.715105996526601 0.6433712578136275 -0.17717960394021742 1.242350619775441
P 4.304762025436465 4.582729705214045 7.38553200707257 -0.09191513824375783 -1.5990497886429622 -0.18223876363067967
P 9.156162679342872 0.6677470985203916 7.983101151009864 0.8212332325328502 2.01120302471373 1.7315027390997664
Ni 1.707951470139883 0.07207851783450936 10.578201657347224 0.5974940356655387 -0.6766017377319832 0.2558219363344691
Ni 2.0439618936485338 4.823299795808422 9.100620435696792 0.2473884608551352 0.6192388835417981 -0.5169457444978258
Ni 7.184660332113226 7.6525927436222885 2.0924029002400615 0.08702284314846304 -0.8744764081277069 0.1823675758990601
Ni 0.8605558056232635 2.0700202187100607 9.477948646324087 0.2207960550785875 0.6630309410260838 -0.41290991173113406
Ni 2.9222968960299442 8.114113616451888 6.47604150637946 -1.756901638788845 0.36203806458193133 -0.42222450426384056
Ni 7.348465986032504 8.602672863826877 8.369558476782617 -0.6510406014334271 1.0802608202888104 -0.3930144583587877
Ni 3.0355246691092397 3.2800790730258536 3.0882531632091337 0.8723331365324588 0.08814332990615142 -1.655782465448316
Ni 3.988902152063266 4.9847972958030935 13.191506353863769 0.048488177408374564 -1.0033393272404074 -1.0494795732418958
Ni 0.3217731439038573 4.219882412661361 10.622346017089415 0.16191290758913404 -0.3096171277780539 -1.0782093370764205
Ni 9.040727505089647 3.4631559803473997 7.8752663978940936 1.0439524727760796 1.549648612502015 1.1572404202686586
Ni 3.0468547738899456 2.5156771129784783 10.367653138652377 -0.13868144786501924 0.3736581653193629 0.5950825980105687
Ni 4.839346961189018 8.223466988300595 12.337528786925635 2.1136072354142694 1.2723957599872797 -0.06483370864593349
Ni 0.5573797876262335 4.789355278171158 4.415329009963783 0.2237577088100727 -1.079884153675682 0.4719565813816453
Ni 6.940344071061849 7.88407676797377 4.683052882799778 -0.6312791025357838 0.2155810865365513 -1.261675031135666
Ni 6.117551312326519 0.5470031702405732 3.2193737088746124 -0.7686713992757342 1.4253242046896164 -0.2162904538987501
Ni 4.94767448684901 7.741868840063308 2.6555063600388604 -1.2389588204850726 -0.4399584312084939 -0.2278935853553172
Ni 4.65846829570043 2.459292209963097 12.526104962565965 -0.9276095405072605 -1.3714871042645025 -0.7475089062655061
Ni 7.26565638431677 2.143762072864842 8.286309226700292 -0.6535065464754164 -0.8127889584202389 0.07204770989586946
Ni 5.6904146055007745 3.565007851941135 3.1193408823976494 0.08110570633307967 -0.4810150920394877 1.5898138718669912
Ni 3.441897149954498 0.441216445765842 3.421248331670243 -0.47303078828243045 0.23561743636213614 1.2469089285700847
Ni 7.420504202766742 7.999154727929139 12.945795125182562 0.5858412819179588 -0.8352094922072842 -2.5102983712936964
Ni 0.8519084718128637 8.97704260732065 3.930501278100242 -0.858584933708431 0.3908930411404106 -0.3459918097523461
Ni 6.792750450660638 4.375398863002193 9.91456985072495 1.724530164436675 -0.20292020323943116 2.276748101873234
Ni 3.5362475212932636 3.815790607717797 5.335356416509541 0.3276091934801003 -1.5243301883418843 0.7845729009973391
P 7.424506834770921 5.916851832977423 4.145219128804932 0.4155380933826005 -1.429657027737015 0.30532364260902256
P 1.4883562703683169 3.26405938566817 5.9239036095907345 -0.5382542761676149 -0.0832453783839018 0.3713706548367669
P 6.888245739620737 8.22771692251098 10.707538879325716 0.3097292278758859 0.16050291461548488 0.8392769774084384
P 1.8551054421745015 5.349238313684672 2.678174813007146 1.3148598426887614 0.6615029344173318 -0.293583728464275
P 2.3261153922497053 7.7453402302911885 8.922339359307482 0.3851358269416593 -0.8271899643369173 0.30336369066917435
P 7.431733554796771 5.870780347895005 0.31274936117956337 -1.0679202964455867 0.7947997209316698 -1.5173822962691415
P 7.948961539409924 0.771426258637774 4.365500363215201 1.010596008802821 0.5380208200005702 -0.29295689351355353
P 0.8581102615840973 7.82700491438559 12.175293959982824 -2.288874709933439 0.35357836385035235 0.012149233768024237
