# total energy = -340866.54632607906 ev
CRYSTAL
PRIMVEC
9.28248548308044 0.00000000000000 0.00000000000000

0.00000000000000 9.28248548308044 0.00000000000000

0.00000000000000 0.00000000000000 13.58585579250252

PRIMCOORD
 96 1
Ni 7.211386438761976 8.360112555850272 6.606787540949035 1.031315243628043 -1.5452324857121904 0.24528118470414534
Ni 5.139628551431374 0.03171732391782756 6.2178244889439025 0.08684800813349558 1.1394784682995474 0.006992886378065376
Ni 1.4141402184030674 4.712680641454354 10.676648651492712 -1.5718660291393187 -1.5465370634562268 0.46612583363248106
Ni 4.595962671673921 7.1464647367861245 1.784964365942799 0.7848361819610549 0.34587713855135266 0.11281486451090247
Ni 4.29225831862189 4.8090699684942795 1.8800922032345806 -1.3067302716030915 -0.8985787004925492 1.2022177563102974
Ni 7.094844836201665 3.914897444955279 13.237255630069445 -0.2604270392066483 -1.787371268132612 4.480332377968284
Ni 4.07994931553472 7.776634096771339 9.521157459139904 -2.5685911934973182 0.644056199695794 0.6809281330214789
Ni 2.514096157884682 0.558747133575035 8.703112453794262 0.5975783678492289 0.1534454935480712 -1.6891327587739875
Ni 1.4177789526287656 8.30597710175774 10.248761354006405 0.3553765934013557 -1.1353999273547994 -0.3124180875619587
Ni 0.23825633416139058 0.7939161131357438 8.834827206776323 -1.1785913751406087 1.2469564939785687 -0.01976458422143693
Ni 1.9132037564399078 7.6854893739087595 5.364035417570465 -0.49439279889797444 -1.054477026456487 -0.7206313651483718
Ni 8.68517590750774 6.373846357853039 10.178387120183169 0.7114630683855425 -0.3396219016702603 0.7467735707613784
Ni 6.320202875479799 5.532444763071934 1.1539048156202267 0.4360773509865329 0.9883868196956331 -0.32655041319828276
Ni 4.137584266573905 1.9475675169081095 7.629489996774084 -0.1092122347613087 0.11883947343842759 -1.8724547281665171
Ni 8.549530950262513 6.125716244110334 7.591422524683297 -0.06875618362879125 1.6397652640844533 0.573662737573896
Ni 6.034905690717462 6.7622348240199806 9.703262183408198 1.670629814873794 -1.3963818106236532 0.744419468706905
Ni 1.1322125757936086 4.443191529106211 0.0772831876094287 -0.4982785071056257 -0.05963673782602632 -0.35532568555876226
Ni 8.862406398760946 2.5986503162058185 7.079019127065459 -0.9887478025794777 0.23103624474935694 -0.2582667983305359
Ni 4.342736473518184 1.4402889794076386 12.170589467510334 -1.790620628307845 -0.47856894449184034 1.527380545132434
Ni 2.563376872181193 0.6321353903653234 3.7256080770882853 -1.5952440417436269 0.017290411649331514 -2.419327085020446
Ni 2.661743368583551 2.5218934455111786 0.759150421055367 -0.08316593129621805 0.44411693346155773 -0.056333898705038465
Ni 6.077354495855518 6.077846467574809 3.6814680031341003 -0.8766713588964965 0.5411274839503519 -0.7564275489113746
Ni 8.096629211471585 2.6759641360166375 11.798948461266875 0.9106705986600768 -1.2032983909689856 -2.9248121371768403
Ni 4.95898210559894 1.5983140086379635 9.675398019125797 0.9746550719318376 -0.668191659291417 0.4129510493817146
P 5.03369682953426 3.678333307858544 3.8594290259780277 -0.012326125665520707 0.8134116796059023 0.6379230902148627
P 0.4101577506212978 0.14050805127799001 4.159717424450831 0.5666153438088113 0.675577667342843 0.635740223630931
P 5.640158722140817 8.249706676053192 8.17786952255146 1.1406532053339387 1.0078654972455352 -0.9117658886067846
P 0.8021979464933152 8.583523411319929 13.143527591556325 -0.8274059370024653 0.2754749346787062 0.2906837812086606
P 3.374387610189503 0.32293209303955933 10.57647949645099 0.347337268036647 -0.20649686484709598 1.0617650754774681
P 2.1283253525637784 2.9852658276862596 12.160997875481216 -0.6512144080071302 -0.5212996505911475 1.1076163294836279
P 3.7214318869654748 6.660211028421385 12.967346021138587 0.5985206771578402 -0.046653695302797074 1.7611136199876638
P 0.2546575573843147 4.3378538862663545 5.281541970979187 -0.060554621654605394 -0.47295185541537904 -0.3611104105613394
Ni 8.437352115778934 4.6122905632632145 1.723175502745451 -0.15625982306841477 -0.3979160094254631 0.24812816723463718
Ni 2.9376930906793626 4.139264396407709 5.580159522103456 0.9012518764493381 -0.5329549754418886 1.0873892038034756
Ni 2.28823472630384 6.16614146745961 8.636188519745751 -0.976013899952577 1.421114537483643 -0.2974882057250038
Ni 6.67059812943811 7.648953511887462 13.433870735311238 -0.8668422886212169 -0.20891421603933696 -0.2542759320035879
Ni 8.063008049824955 8.44050816077061 8.921681564947276 -0.9470079996385302 -1.882963598117641 0.7107565292368211
Ni 4.905756335062834 8.61454547709106 3.9080525403174478 -0.6951635598945705 0.39792552250715985 -0.7155999733720514
Ni 8.873675335878287 0.08252872003530139 11.33561692202698 -0.8525603247809058 -0.5066662169486887 0.40782298412652995
Ni 2.8753240721526616 0.39428748555579696 5.833616854142406 0.16001980433147925 0.8074024972973449 2.6215700596871945
Ni 0.24760843807055127 1.7696965341712978 13.238804876860947 1.367289264133071 1.154833867709695 -0.19221515811710121
Ni 1.2894021813496659 1.6592256769773306 10.626461966633885 -0.12074080422619851 0.352374059129606 1.4801902605998767
Ni 6.07270397073543 2.738769431351011 6.256218704516182 -0.09664751072242064 -0.1311753692959612 -0.6386671674697388
Ni 2.2043117769810388 6.881635432043341 1.3493076282858045 -0.7159306172385929 -0.9005988162463715 -0.4701017875610936
Ni 4.505291355560092 1.562604287805664 2.05553952906749 0.37109606101914155 0.18472193506384962 0.10257056107507496
Ni 5.706008672643633 3.153603698051153 11.534187846915085 -1.0355351952466616 0.5034927043167134 -0.5054637120001553
Ni 1.0389792937453604 5.674373962844705 3.3154512547155144 0.9033514392908442 1.6183142932995291 1.9574713395182286
Ni 6.343715410667793 3.2352988509092406 2.2854945366522426 0.9388483466458735 0.6495244218992169 -2.376317157117824
Ni 6.395836565456813 5.541931463017503 12.08661546451855 -1.2110826629000948 3.3659257650357 -0.7643905125121933
Ni 6.513027941985999 9.265591146447692 2.028911791823005 -0.21506378058050057 -1.0178586039025053 1.4688810062346445
Ni 6.4461290706477135 0.6729031374210485 11.68083347745336 1.578045161366837 -0.7247718696793066 -2.738381189841684
Ni 8.800055945204784 6.493079881141544 5.179471762954242 -0.3548847413666017 -0.37420503896176843 -0.028063333895119412
Ni 3.4901030715608155 4.176682094529622 8.015043591939678 -0.6213217342127557 -0.8051864634826327 -0.2104530212813666
Ni 8.186808555866122 9.261896717310375 0.410176315591837 1.2056465794861881 -1.2354613488547754 -0.6006971159838687
Ni 0.2647420493812499 0.3149992811281263 6.6048048020954395 0.4446270403287569 -1.2168519612837043 -2.1202044290158133
Ni 8.877731781941119 6.866978387802582 0.468506524777718 0.3732768707205443 -0.9402678527012194 0.3049480044371587
P 4.834930972455493 4.61446266481631 9.822274783547288 0.34988086039410715 -0.0787318067842644 0.2401361501680961
P 1.5597545648278852 2.7213183590440906 8.524404190886129 0.07553901087857959 0.06499851635857193 -0.3818738683609359
P 2.8555895084694107 5.911133032132103 6.503617358419638 0.4498492079596446 1.5748991595386879 1.026891917749367
P 1.0510836545369688 3.977489243128451 2.3144048370245316 1.4978352273751494 -3.2556382949323415 -1.78672720679071
P 7.741852624466003 6.6064283087691 2.3936373465405842 -1.6546547796017763 -0.7930472570169375 -0.12324248760212969
P 4.740955091585673 3.5407297462214236 0.2061677108327775 1.4227191629666014 -1.678602034445993 0.5914516861262007
P 7.17766316977738 7.699329559445791 11.146610669960708 1.3729348924546225 1.4050438571740254 1.3564633771621606
P 3.1579850310984217 6.7293469787096525 3.4797317507690484 0.22681192225536426 0.7673082003796204 -0.42299197855748444
Ni 7.0766418825879045 4.562425052394716 10.099711559783294 -0.9238973817629961 -0.18575294743152523 0.25437311970308446
Ni 8.94552177186529 3.735541264575325 9.232241033370935 1.3641121519566701 -0.8145223961715778 0.24337085505530986
Ni 7.525765649874091 8.367538544065983 4.244085004818048 -0.9627750326647999 0.8698623063944633 -0.03629163534218266
Ni 0.935238238371881 0.5307957139310997 1.4292595304102542 0.7842088327897011 -0.20701134258966927 1.7065296140941966
Ni 4.306098504158921 1.8104652094755496 4.564602723438974 -0.2593255786123534 0.19227275082791404 1.568439262845957
Ni 8.958786443315603 2.278432421859102 3.640085755553525 0.504885213788866 0.38814993117763474 0.13783092693926585
Ni 2.808675827916658 8.52395770334466 12.457590916568176 0.30507167449921657 1.1625194092794109 0.3869870212177851
Ni 2.7747854741972082 3.4209299913314695 3.5926030586537436 -0.6567204254270238 -0.7878466866526045 -2.895290987789272
Ni 5.135822732470823 5.8453480590261755 7.898721056031731 -0.2577440930578464 0.0021209029977447345 -1.9557001065504187
Ni 1.0214446790710132 4.649791803752553 7.351985458395609 0.3513826417506142 -1.2768728219220267 -0.6768061404333053
Ni 7.180615000093124 4.2433303387656265 7.810426984395457 -1.1858866232504415 -0.6069333267015676 -0.5282231171838581
Ni 5.081176741688461 8.007340985662932 11.622237789188768 -0.9065452636377935 0.03372747415943223 1.104347171814053
Ni 1.3644232272988839 6.546909013220178 12.320033767357405 -0.28220119765894625 0.25795235241391057 0.14542545145707214
Ni 3.570257331864143 7.89390901566795 7.3027780757327285 -0.9588754405000776 -0.18128051348246843 -0.7166114453557013
Ni 9.261980259677802 7.78944392644344 2.846453686467033 2.732546842548094 0.9871879142915256 -0.6147430525539735
Ni 3.706487085681357 4.659807605358494 12.299383950626567 -0.7493644714170062 -0.41712497825374617 -1.5392983796159425
Ni 7.348767220752625 4.38161152182743 4.4428870635893665 0.6496997711348166 -1.118001529372694 0.8166240158956128
Ni 3.086574871919093 3.0668960031474604 10.121597803552048 1.4633071116912926 0.3280249408612802 0.3887657103847627
Ni 6.4831661868735715 1.3449949856295305 0.10878608611752763 -1.6658905004165954 3.215241379172534 1.5648032087552664
Ni 3.1154990960192865 8.978790199071673 1.6100869847054458 0.12363149551043225 0.73703140377295 -0.4919903601040688
Ni 6.462197052649458 1.6372447518588271 3.8760715938179624 1.4428696697725472 -1.2381162699791193 0.9511701014360199
Ni 1.480147971155466 2.345656180181823 5.807341851338167 0.4801923390278763 0.018788079240780547 -1.0117072395891287
Ni 7.009520231603148 1.1258912033249848 7.9910511522632435 -0.9308977243402291 0.15972464168856362 0.6789437556015985
Ni 4.724942804495547 6.781598088292447 5.457655779254456 -0.20519331554432402 -0.49483528575203173 0.39910848707166746
P 7.144069855586558 2.28721365292418 9.866672910591967 0.05707309086390816 -0.2874359636953243 -0.3263475531588573
P 0.937475317321864 7.975260716571062 8.013046001109652 -0.42775417583281816 -0.017004247867480393 0.4108787402337182
P 2.7716944066024185 6.234562666382115 10.678333422569152 1.0833134910722053 1.2854811324163282 0.33622341751167256
P 8.569980265311527 4.845086011340476 12.088259392659802 1.7031185315301187 1.3508311185770476 -0.823872212817594
P 6.734099611167707 5.647074173666698 6.257414288618911 0.1814311801277198 0.7927973457896604 -0.9834294756903581
P 7.5323933443566125 1.1157268819547308 5.826742245551712 -0.49578890791455266 0.26080730536420244 -0.6296713917290317
P 4.9720796923144 8.975856933726467 0.4601420773012468 -0.28683381133495117 0.9897574747909147 -0.47154520487583945
P 8.148397631820357 1.7591330659344493 1.6720382913950127 -0.460245206481988 0.0923851359016409 -0.08021224798453282
