# total energy = -381167.07211790717 ev
CRYSTAL
PRIMVEC
9.27315750176364 0.00000000000000 0.00000000000000
0.00000000000000 9.27315750176364 0.00000000000000
0.00000000000000 0.00000000000000 13.57220334895565
PRIMCOORD
 96 1
Ni 1.9639249264561192 3.816711060718341 11.964073824331665 -0.5333208434217397 -1.1685679294663358 -1.2851733713679223
Ni 4.621259475364538 0.6756552351736653 11.050379419030367 -0.28494147940824477 -2.352124361921704 1.323591051914172
Ni 4.618542440227883 5.193478202933063 11.735463600712396 0.0156526189355924 -0.3448957484746899 0.4209160698650622
Ni 6.079268750112487 3.2451878199595403 12.394665472599485 0.41363187749882313 0.7091377626864754 0.023809957935404157
Ni 6.806822138343504 2.5368484139918315 10.24366108553783 2.398245838870115 0.3449535982958188 2.4389947386527027
Ni 3.0216769056291692 4.785987844537035 0.11937521065252146 0.21538028337965484 2.128590081976347 0.7353437316578819
Ni 5.824766943540815 4.692894616766111 9.486128506544725 -0.9979155851216748 -0.6851185169537426 -0.473689762022668
Ni 2.282634075301512 8.378566689374987 11.381879961280204 -1.27776319494678 0.8673696218795964 -0.913364600552472
Ni 2.6995645079948605 1.8427433047298079 3.523371416060188 0.157280036802813 1.299887023429013 0.38545207263049747
Ni 7.901332913699834 1.5827703352549733 8.348221208893108 0.7409430801225304 -0.0981850304128696 -2.0222430845779753
Ni 5.844426037362347 0.94796706796875 12.998478774960153 1.031090786322063 0.36971666417311166 -0.1343851344825105
Ni 3.43749455942696 2.8340716569954836 7.504573453119974 0.8029742863226623 -0.7968123804863244 0.3845521865240474
Ni 2.362800521569033 3.115558351784448 9.496456949327 -0.639826992105795 -3.15345005689735 2.0579860465055395
Ni 5.1937656708144155 4.199126801334454 6.945086770748129 1.300028948323516 0.7505512926362558 0.6017232432555378
Ni 5.507995884605187 6.031363618658697 5.5870922085014785 -0.4698523905544489 0.7758000399007156 -1.1636668926202927
Ni 7.774874865377083 5.808307089044014 8.839386049024904 1.2482574721781792 -0.8329345801301784 0.37567159620496593
Ni 5.936462125182491 8.675057352939062 6.940064428666176 -0.030408951309160527 -0.0988846275830555 -0.7821910310287239
Ni 4.0470748384138595 7.773075872829264 8.09056652878402 -1.2435019597710648 0.700339447668555 0.7223879428281623
Ni 7.457788519087713 9.130972139606808 0.7449322126324007 1.391521140097242 -0.3163603600391584 0.05148942612854359
Ni 7.000084013029611 2.510030442608874 2.0129344909637505 -0.3746179581294709 -0.16891145039415426 0.1314263089645027
Ni 1.2430760310708415 8.137010210621645 13.452577877396644 0.07191015587674067 1.0877489011357397 -1.0346149974252374
Ni 5.256739683145559 7.406647055679341 2.907179375802179 -2.4010946211728195 -2.0206176331594103 -0.4005357064364973
Ni 5.7570914403759375 0.86784049627832 9.044339520640348 -2.045127959595949 -1.411913330600349 -2.9713424195278955
Ni 3.3865849249551627 6.158702616940432 3.8640876221967413 0.3119743151563208 -0.5489428662297127 -0.5960609027634379
P 0.46059309460782205 0.6507976092783829 1.2984024704422596 -0.7268871162500966 -0.22779459788360765 -1.4179893615910997
Ni 6.3808503771237435 0.19409738617352268 2.623140708079401 -0.9774485755165747 1.4376971244326724 1.566482653340218
P 6.480499727221 9.016300274419514 10.511983605992338 1.8829047198552473 -2.2721843937619512 2.5212592411805743
Ni 0.7992729153655032 1.5010738180060597 12.59832997532757 0.6694389014349567 -0.7248937399691516 0.03403240699436075
P 1.8604179428542607 7.0813446918777645 9.65033850621504 1.060007469356413 -0.5159422429339758 -0.4079808498606328
P 5.750173664908549 6.599427971683805 8.011372836734367 1.0044225330022571 -1.363950172457509 -1.0579966095739715
P 1.451786986090285 5.392739810497724 2.3238328592780695 0.38543921711469104 0.39919950412357696 -0.33602621389920195
Ni 8.985021914296858 7.3338156769650436 10.297746776440702 -0.541453499831203 0.15503134997795234 -0.7107555007955566
Ni 3.6400759573633694 3.9761537301369367 2.909717438999799 -0.4816491260790608 0.20723734255754633 -0.6118701018815527
Ni 0.1380902970443214 7.4677571633604245 1.6233441084185256 -0.39831915840115273 -1.3134961295720153 0.31793104696038793
Ni 2.115568870448342 2.8410914371949647 1.0092153456960313 -0.8024844911704372 0.5571968787083889 0.671150999030057
Ni 7.672795948024525 1.2101285026048494 4.490648907129862 0.10947448728375986 0.683565827754642 0.3114834915628313
Ni 3.935203466780387 7.9704643025864 5.25309440494686 0.08955846508612318 -0.34163404700428257 1.1020822870392764
Ni 2.0002757037110275 8.801988332292426 6.9913811547505995 0.9027752550724 -0.7256740697786018 -1.5064029144395026
Ni 6.179502309129911 6.821353176088004 10.165498568598062 1.6825497062398314 1.0564097247028257 1.0461481948758176
Ni 8.648146649981475 4.311554562415705 2.5193805672788034 -0.414867292567821 -0.6627558329878264 -1.198622582759871
Ni 3.4351669969037504 5.804319631334929 6.846973055526745 -0.665166499311848 0.8241370364432065 0.8386578557672008
Ni 1.1069646258291215 0.985133883080401 4.976044916003934 -0.22872096635261902 -0.5504359058354713 0.5262847625105646
Ni 4.15872365426822 7.347929422623709 10.694285535872943 -1.0863939297697418 0.17597349944725824 0.2869636520445961
Ni 1.0340405155401933 4.142820189219198 4.222556360980436 2.1204383994034903 -1.158159332538502 -2.0120723146925608
Ni 2.717869720826797 7.294284206700331 1.4876759601035363 0.5601567326676611 -0.9325663702919036 1.804520269108073
Ni 3.8567061888562035 2.4898427788119517 12.991150198617154 0.7036050057937043 2.2649541945620992 -0.7783240918741499
Ni 6.254058495132325 2.1254262368314967 6.273139871243913 0.040656597179097725 -0.07493351608409675 0.8392877760417159
Ni 7.0103123057112855 7.772454571279244 4.0541660219258056 0.01432361571152372 -0.4288666921707065 1.8690824692601744
Ni 1.2775629036756893 4.166633657584148 7.8767228811088135 -1.0801872867383977 1.2879398783694658 -0.9944445958539391
Ni 8.830419833073943 2.6483766787991736 5.920398234509358 2.635583086136835 -3.023897310806476 -0.23926583174800084
Ni 7.018667420585437 6.6768310170273555 1.7719872586557261 1.4956019671692564 -0.3401839448213173 0.4749334046217821
Ni 7.576994958274408 4.769778365291735 0.2813420335325412 -2.4727864903911674 0.6845356478670791 0.3623059735313373
Ni 8.930616299461516 8.030925289245076 5.104193460932188 1.6539204725389132 0.4145831856684989 2.0824837745365876
Ni 5.20045161734523 6.188821832380213 0.522023126221378 -1.5744623291115853 -0.3917561604716543 0.7432568158573716
Ni 1.1651629620668265 6.118818766692126 11.674998904790737 0.39366751856175425 -0.4856685316510991 0.22073177749955533
Ni 8.896092334226816 2.828331572525895 0.6644653160630791 -0.06274700132023388 -1.4336869748320147 -0.45043927613515977
P 5.773783123809314 0.47421999949968113 5.008658610801259 -1.8260257472800165 -1.3886559027343053 -0.8645540068076722
Ni 1.815164934434885 7.902696067846893 3.4740771656184433 -0.8834271895630914 1.320643539250074 0.9727840801613697
P 5.966599886937197 2.790255987982871 8.363951265897573 -0.3821636316872128 1.8544644622366835 -1.2499101772902539
Ni 5.475641838216825 2.7692801058015957 4.1225843050034685 -0.505413061267878 -0.1994229887194501 -0.4168131034402821
P 2.617107591833982 1.5962905988360079 11.236440686946466 -0.8389669023671874 0.4654002683203662 -0.753605248971231
P 0.6893535433779894 4.37385163425205 9.993946082848554 -0.38904801751187196 0.001220502670662414 0.7502427602569014
P 7.99386975202298 2.110199712277273 12.337214552853297 -0.6607043497754362 -0.38342321512592675 -0.7168163622776559
Ni 1.5958362141203217 6.4397534733286355 5.299008589493346 0.32443413818622835 0.7789972066817745 0.7296453957215241
Ni 3.0823233554371035 0.4817090014667893 9.229682118853063 -0.28509394582570896 0.5608702137949179 -0.32301257524835336
Ni 3.299463610590402 5.048677849148525 9.66533598377993 0.19720515513252487 2.4023603752591205 -0.1281491808751277
Ni 4.51595349921486 2.7264566646375226 10.327537722106293 -0.7407515329370146 2.3476365013536795 -0.3344858659952756
Ni 8.44703968408168 8.74068348830462 12.265186229575292 -0.32033682818840314 0.061723702262042095 -0.9278658794924407
Ni 8.698360797643549 9.12799545606119 3.043091408158445 0.774359450799447 -1.0439504158935504 -0.7761468817171729
Ni 4.0033519009758765 9.173063001331306 3.2542476948008785 -0.25057020101722655 0.8748119370902547 1.0257619179099817
Ni 8.845089968180389 6.250701612130724 3.5626358193899663 0.4908097095324063 0.6644990409311782 1.2114295047165524
Ni 3.524346952225294 4.157777792206995 5.342521026256919 -0.11909041310696909 -0.8519841405624616 -1.4963229044956812
Ni 7.578339566106542 4.108203492409868 4.81277150523738 -1.9220919315776703 0.8034021178887002 -1.6847575125244274
Ni 0.042019458412032015 2.170846162085206 10.080727072334422 0.4205162633234822 0.36956188376280225 1.4900380999282339
Ni 3.623801566015828 1.0077511141326259 5.6847580302174014 0.1966690801233968 0.7019062779350428 0.011591818602657455
Ni 8.472568686577283 4.342934927270452 11.75230643661242 0.4883725608458234 -0.8879135074692192 -1.6950941185637451
Ni 1.095382452157851 1.6485448411399384 7.87767337974877 0.42993035754853054 0.8724961444728845 -0.689577838276677
Ni 0.10971999910205964 4.890301592838173 5.945018467573589 0.0993800791622353 2.050934538975397 1.9852505665140263
Ni 0.1291064620941798 2.0171528502936633 2.9393859789868784 0.6020641715347245 1.3039244267231802 0.3170458161419572
Ni 7.594567591666769 6.272428620066502 6.614685097657657 -0.547539815234599 1.1728920107629863 -0.84907339467357
Ni 4.555679705786296 1.8830908128512633 1.7699239811202114 0.021887286991394566 0.17550633000285257 0.33353892870097396
Ni 2.553512277952819 0.6711141699640406 1.5616581376589913 -0.8350310576478909 -1.687084103775075 0.7282639419929652
Ni 0.8572329314564094 8.869051807064746 8.946769212446293 -0.46536632975863723 0.29085013158319584 1.0033354705856656
Ni 7.840296991278455 8.434845482017852 8.470669543928864 -0.8934892017847839 -0.40862825363664457 -0.0962351057753504
Ni 0.40756825291871734 6.643048904389694 7.766897168011677 1.511229132183552 0.3523275221623868 -0.03995777133986021
Ni 0.5148503389237578 4.887974030314964 0.19364114682634373 2.0660030032727454 1.0591111827943889 1.159402975137616
Ni 4.823061928074056 8.953242803671204 1.057163133674151 -0.2309488272418732 -2.1985282017283816 -1.074640902998872
Ni 3.243175544790072 0.44384948149265313 13.035449926449333 -0.07201839931983081 -2.09141013049194 -0.3193464392506758
P 3.4330898096320412 7.225329007805561 13.176953672755781 0.9961939744448779 -0.0009579930378951243 -2.8181152126382174
Ni 5.033024759351004 3.9235934736367275 0.9011941890411909 1.621689123309033 0.46109624162837365 0.36442713363939816
P 1.9129225604096918 2.953519198276217 6.084649036072512 -1.3002783453301607 -0.814356560017675 -1.3639707412827993
Ni 6.097017573496644 7.58767763567177 12.662499297655692 0.9801844863904992 1.053191217765528 -1.4747094399909635
P 9.091125381988354 0.14641666513033721 6.818200302550589 -0.15609038737008601 0.07237681110051407 0.44933601576865195
P 6.405210961779009 4.431929419442737 2.9194347807052625 -0.3372670282848385 0.48496302094364224 -0.7385768938831989
P 8.113113283839526 6.47727266842388 12.030957399849202 -0.7260821038502979 0.29669167796563745 1.2828534649854937
Ni 7.752990213764435 3.9472956641121217 7.154098176069374 -2.2246017588869815 0.8860993370786159 3.2438245901268647
