# total energy = -340855.7796644929 ev
CRYSTAL
PRIMVEC
9.45322153582623 0.00000000000000 0.00000000000000
0.00000000000000 9.45322153582623 0.00000000000000
0.00000000000000 0.00000000000000 13.83574526395828
PRIMCOORD
 96 1
Ni 0.463045265438975 2.618362785846312 3.134737455901753 -1.8647915551943046 0.8781294314992618 1.1680046007636982
Ni 8.19092350987782 4.496245266624308 8.951935267047832 0.4036395421728016 1.1754471730846725 1.060437100694664
Ni 4.324990703212406 7.010679333650216 11.033909967283428 -1.7650448367212699 -2.670207875299556 -2.155186858628269
Ni 8.029197793889146 2.242001672293761 9.554218924814394 -2.478954823985408 -0.2541473768455236 -1.3319535649462544
Ni 1.8649693800040574 1.5266385771495674 6.9900817089969705 1.1464325310198773 -0.4440020051502482 -0.22717136247731196
Ni 7.190441796547142 0.7884762020298374 3.5201453025733813 1.023970630337514 0.6540739889431123 0.25079928630889714
Ni 5.659492550325162 6.724946256056479 4.5328396329537295 0.4127152792218247 1.4274823886831995 0.5941963387508734
Ni 4.077703878069332 9.083515604516732 10.549548632345806 0.03946591930510622 1.86414235164608 -0.2594657037346435
Ni 5.685158047104987 8.008712662573537 12.292589414185642 1.780510793567353 0.906106119217846 -0.1491509799377754
Ni 8.97407565747436 0.8519337883221431 1.2943606320202428 -0.20739675095354604 0.8242915597431997 1.1494060118259042
Ni 7.5254072524942215 9.430685169613996 10.52727306084968 0.9437069602897553 0.12508314035529425 1.3166148777066549
Ni 3.2131405856227526 3.9076782334719353 2.6758884755532253 0.9154813897851589 -2.6372422190068128 1.802727181763392
Ni -0.03263063049156549 6.169966519426656 10.013191742366537 0.6631764654650127 0.15740319264423858 -0.012466250787810787
Ni 1.712422742237561 4.59289500477419 12.707758838578052 -0.2983688085577442 0.3803643736949449 -0.7860330304826333
Ni 5.382475343092751 1.9387612282041733 -0.20406764108131217 -0.14185213228351698 0.7391003704868367 -1.1400171144118367
Ni 8.550032493919069 6.192001979092869 4.080272318391645 -1.00078493624967 1.2650819999346858 1.1378095652375566
Ni 1.7703709909522307 3.812720621997407 9.895767604318554 -0.9193830388324102 -0.09953717356538985 0.2826331429900422
Ni 2.807162528640665 7.544635105330378 8.919268714313995 -0.8769194703515608 0.8230193778989955 0.9065421783140001
Ni 7.445253386123637 3.3517531746771083 7.202390668712776 -0.41861390409444676 -0.1656453780483728 -1.027520038251669
Ni 1.9539052892875175 9.2953906613588 11.171783314404752 0.6400961866067815 0.46279934036240944 0.1819070913228738
Ni 7.636019399021195 6.990997726174857 11.204463101648896 -0.3328640141211364 -0.42854736115807485 -0.45133479136623567
Ni 7.035229350275337 7.959631535766593 2.5648840203277756 0.8951534768610842 0.4389335894884054 0.2022946538402903
Ni 8.466428201646226 4.865535370382639 13.261382037901097 0.4930373133113444 0.21958120883487992 -0.2752815877209775
Ni 0.11256140083120938 7.287290052351675 7.614530335566352 0.31341361870600865 -0.7829662186318516 0.1457923478781876
P 3.5305797686306817 9.408347206854982 1.2132841312166154 -0.307911972161489 0.24215857991476358 -0.7509238454843261
P 1.867521749849565 5.970342837843021 7.060795588227837 -0.7784781009535109 -1.3115909421295024 2.296456378935438
P 2.742029831471974 -0.09582919851066043 8.003438710214985 0.149786042418613 1.0184836390810137 1.0298679696585555
P 0.26061964895827266 3.0774395888366053 13.639180986466616 -0.4779323393491059 -2.0927216502145116 -2.7128979579689148
P 6.665787994970606 1.5998915917156318 1.3322595429373685 0.7487870016469813 -1.135607158269599 1.7931410807368537
P 3.675261325984355 5.930280084490204 4.415428729416056 -0.11996535951275468 -0.2259932830088108 0.3242870710854028
P 4.574338330675186 2.8973462631819284 5.100519772870365 0.6381280071368172 0.08572212205916849 -2.21585203771881
P 5.074536647843099 4.3465440485744695 8.6592115320439 2.814595372410417 1.127077266421717 0.1766918656705215
Ni 3.354664766945317 9.239673372953538 6.010566295963889 0.8485537747246742 -0.6959981399807239 -1.4975192387966274
Ni 4.444923726286307 4.340531799605052 6.681447256633877 -0.6104997038965874 0.6677072634558306 -0.6338556050137084
Ni 1.7471822382447126 4.95487776819705 5.095843264120097 -0.2518853202842243 -1.061736793342694 -0.03656622915980799
Ni 2.4329283899593697 1.5806259259928752 3.0791033558470104 0.8946150878591108 -1.7920833288963005 -1.3551446583507372
Ni 0.8046081247756095 6.498626676533167 0.42395052198312055 -0.04448059891087823 -0.8758339505968659 1.285954986728953
Ni 6.336040717374341 5.75139677120673 7.5844653094306045 -0.040471734861801265 -0.29457026074726045 0.10826015526068451
Ni 4.4213946575993885 8.217657220704098 2.966882270995202 -2.0182391056249047 -2.7931914528133444 -0.7546632579221002
Ni 4.778178149114733 4.353199116616088 1.2009344424530193 0.6104513671571551 1.7894440915012408 -2.5361798670461484
Ni 2.57654173326659 1.4890620210907073 9.653241421598434 -0.2895681795469787 0.030431834127295977 -1.2514590098346123
Ni 1.4905461768897619 7.2447978210348 5.523326455033833 -0.7081712850081481 2.138453090813356 -2.009975580064532
Ni 4.142297741603971 1.8872600766548226 6.902280186311514 1.475450431922046 -0.210571806247418 0.9456689691121327
Ni 2.3707923640537376 3.771788172252787 7.479907951370473 -1.9549138632036978 -0.37550781693359203 -0.2550701457701091
Ni 9.04591068879292 5.164389519626612 6.311618319241495 0.34467514782345154 -0.05814241266868696 0.7938818371030908
Ni 0.2896107891145775 1.520995003824501 10.636561756345651 1.7718819142477613 0.05714071087704998 0.6527732678538176
Ni 7.853727093621332 2.4135020194685626 11.991177223163168 0.19764275689057573 0.2636738282787201 0.6416792148231852
Ni 3.374384187307274 5.427226894383982 8.756325423376799 -1.5336661210308296 1.1305603398743111 -2.316678105298952
Ni 4.925487702087113 0.8715303168026504 2.7365857211237232 0.4001045324363497 2.9895622849700323 -0.7381683455908706
Ni 0.27248249680689235 0.9703826555969897 5.031603896397335 1.694821838738965 -0.14970016757302607 -1.6191108210588956
Ni 8.69360802433969 8.699175971891556 5.900627218818396 -0.5513705018345988 -2.482063544817719 0.2868932038179769
Ni 5.511266034852727 8.093129931908283 6.956862142796608 1.1774541762123722 0.7602320102591293 -0.8185178904842161
Ni 4.60984463119269 2.660779391389986 9.498198187994165 0.4267892408163875 -3.7130995109112894 1.0644619055833409
Ni 1.8019731109282733 8.337013597257346 13.286065344951485 0.254194170923059 0.196819489658332 0.6870422163390167
Ni 2.4605412503991 2.725590679022576 5.019567109270354 0.573460905975735 -0.014866889809503429 0.06147096282128769
Ni 2.2675348239704856 5.760717647753658 2.8792603595210955 -3.2810978726560265 2.0913437960303787 0.2486022786575783
P 6.610874230405595 6.973632158003757 9.347014704789602 -0.38102026211138895 1.7370321535584279 -0.5031854574889398
P 9.553709396167456 8.498087040952168 11.638476578078471 -1.7612228918720183 -1.1571496603270652 0.19496829538220614
P 6.303134052810595 1.5017955106532948 7.664380009293444 -0.7646401666291541 -0.5784707004855005 1.5715019609316805
P 4.028509312602588 6.125687629217926 12.903271314066089 -0.10495757325001279 -1.235242290865434 0.7603209704285099
P 9.314060774117605 4.791299220764971 2.847631770524433 1.1238327913424904 -1.4084063458883551 -1.7716939666066716
P 5.609371569136714 6.394887022145763 2.3453802136141335 -0.5867758779170863 -1.326615954783425 -1.2832352738049448
P 8.847950774219692 8.231213140550237 1.2851068733470306 0.8765456319519098 -1.0417032717305865 1.466832351235732
P 2.021259493543965 9.111620032482264 4.197709690949939 -0.607004032038503 0.0368963588057171 -0.26949814826998103
Ni 7.574535645409416 1.239790019401128 6.036286621429284 -0.2815198553212055 0.22893179681184445 -1.310416462205427
Ni 9.711956326588918 0.7974624345303536 12.913814492172365 -0.4409495914771696 0.5703665833211273 -0.4919746763747849
Ni 8.265641773799638 7.416326527874553 13.296870377297465 -0.31160330497014727 0.3341577932318955 0.1848916278724945
Ni 9.396842636106898 0.8858689634014123 7.716762201100577 -1.3935086028409163 -0.48039571328793396 -0.08803765756622257
Ni 6.169550577674054 4.586712597815072 5.1433825704759215 1.6188783933331152 -0.8549056850846309 0.07064543023170414
Ni 3.881133587078657 3.6329959719870812 13.06032146662666 -0.7212746551593255 0.3952199506505387 -0.865419183021445
Ni 7.739362018099298 8.782335962746851 8.06639149447118 -0.9892172860167284 -0.6095147142754986 0.26170230637464603
Ni 5.985241115163465 3.9382215926231745 11.711515949835247 -0.8061423996379987 -0.7936998029992718 0.6500741237550998
Ni 3.774189290551895 6.714812402447649 6.463271627562063 0.08713802857008864 -0.1656042403977922 -0.18573597815066076
Ni 7.5675402613883955 5.7126763753282175 1.5300672606420322 0.5049793161645689 0.01553537663143776 0.49165020315583075
Ni 5.543775664107173 8.476448616595254 0.5921157725597926 -1.0677238641640643 0.2228218272593646 1.7065231863362933
Ni 1.8249160798728903 8.224690417611717 2.032263043544597 -0.15170074294282263 0.46434740157581966 0.06577678928549317
Ni 7.222384232502585 0.31547574887121815 13.329910332286477 0.30622738537021454 -0.06962470227667364 -0.4088393412061862
Ni 9.3977501453853 8.459810946491206 3.725329369131561 -0.03838399909483712 -0.030841925081521077 -1.8490193799617123
Ni 5.704678949812293 9.251886935325373 9.123595373668518 -0.052481871948799934 0.5935854446397519 -1.1090407206349802
Ni 0.3611650597501319 2.8921280848311133 6.041171101055853 -2.015320389316213 2.1989184951882645 0.4243310090838821
Ni 0.3627021535904264 8.856921881565569 9.430859108892358 0.07378371875036971 -0.9750690195408045 0.28527855103268934
Ni 3.8134579732861096 0.36886565410624444 12.754288540861653 -0.13748562778470516 0.015651847604644012 0.7958402463810423
Ni 1.351158423660104 3.8549008969998306 1.2797894361688902 0.6052058024874996 1.6394752436478606 1.1130832661354702
Ni 5.661647884861368 3.576569691958066 2.9507768172700497 1.4997964648665782 -1.8826666357025124 2.1752743734067637
Ni 3.4689920295807513 6.481790488774467 1.1942604679680997 1.298035572042571 0.7596206019273757 -1.7150075696582208
Ni 4.048975537474899 4.610799406579343 10.644433454013628 -0.49954271853003 -0.3670761412264711 2.8506386391872196
Ni 8.11591219608485 3.1751480878112917 1.1811715372714713 -0.4950075496638378 1.0730571034515197 1.1905202653677107
Ni 2.020654487358363 1.4924935405496673 0.4386625708370587 0.686118933193799 0.25931632264097276 0.4542599354328306
P 7.56934582672355 6.666827849352109 6.109021599448926 -0.1385078984016324 1.4325903993337263 -0.6130399538199378
P 5.819110197885879 1.216242044270909 11.252487358275369 -0.10347996026322177 0.040452451588091624 0.8779263143495202
P 5.549107281117788 9.046581867530072 4.502760426985507 1.0218047330344466 0.5298897062530036 1.698778766504184
P 7.859994579575301 4.651618417664162 11.267747693985008 0.8109123102228163 0.528739137588328 -1.776937474393798
P 2.0499405680301486 6.028981171738142 10.448422793744635 0.7264561993602651 -0.4772800504770877 0.821060968621044
P 0.23441909983305595 2.872626088567106 8.330627000710589 0.7301274775642651 1.3934684936316 0.15113895690208162
P 2.49116023532354 2.5206731933149262 11.663464278865991 0.08213954691423273 -0.24229973347831818 0.0921737912217832
P 7.627993613840322 3.0384072366436414 4.371016548782061 0.37892275615241194 -0.9377833957164688 0.6077537657203339
