# total energy = -340867.5778387557 ev
CRYSTAL
PRIMVEC
9.22389924558583 0.00000000000000 0.00000000000000

0.00000000000000 9.22389924558583 0.00000000000000

0.00000000000000 0.00000000000000 13.50010891193847

PRIMCOORD
 96 1
Ni 4.481200732912491 8.503853774711354 4.315755346063403 1.6699096488783176 1.658381079413428 0.9524006314090113
Ni 2.964330541943605 7.5893318603058075 11.416542473309399 -0.5848732615777347 0.6244587371798407 -0.2911020996930019
Ni 8.52114858534113 7.4502170155493905 4.878439934525889 -1.062846738577421 -0.43344891222475024 1.7245394204080557
Ni 8.039153742963027 3.5372638045878215 11.588884569442689 1.550786325650884 2.122628207965957 -1.1755281628342529
Ni 4.30882450835289 4.424492201844831 12.626853613758927 -0.22227341095506237 -1.0950824586826753 0.9087528128120735
Ni 0.4541764853763216 1.937018790534911 2.4185847216093963 -2.6042315684087467 -0.0325409100504988 -0.019497703713295452
Ni 4.290588860024854 5.755546947407405 10.55643695106938 0.28155816475830864 -0.9727691677630342 -1.442185242111013
Ni 1.5788455683670009 1.0656923951582928 7.605542862802784 -0.15094046773803035 0.0004674265547217756 -0.7120047998216253
Ni 2.1831308637208755 3.2311318205922825 4.846309404740417 3.0438195036517 0.950984467787775 -0.7158177458098123
Ni 5.59996744293144 4.192511141930769 6.814935729987356 -0.4267735570871037 1.1279936075883994 -0.14216426420729708
Ni 6.79257146446578 3.907566453944081 13.5099635401113 -2.054770110671403 -1.9238503090296737 0.7266603449512712
Ni 4.389856461090266 4.397549192858391 4.464202009440697 0.7504016544322689 -0.980540327068021 1.62910161372302
Ni 6.186026313856282 5.562020322434962 12.173101427736723 0.2993049472187684 1.4011776893503998 -2.184066774887413
Ni 9.285606886874238 8.812762152306659 3.2339377306688575 0.08041742201680344 0.40845110462883205 -1.3235810246118431
Ni 5.842214702435338 2.394597972253272 4.386104178976031 0.0242303333022744 -0.28279460826857106 0.10704633745824145
Ni 5.696744591266166 5.860311992278335 1.125808234517494 -0.5163592758667365 -0.7427845042066433 -0.33439690582589504
Ni 3.4123537642953274 0.7249154465091866 9.181828799196577 -0.37038000878872346 0.7343492289550966 -0.4540994985955663
Ni 7.752963828610994 3.2981895663408007 5.559925574971483 -2.111948616764924 0.2318129750143814 0.30428183160806954
Ni 0.4112622952669708 3.5927547809871454 6.97670723786373 0.25654724453626787 0.2918430916240845 1.2886451319666066
Ni 6.494141436137369 6.18920855901216 5.648094058367131 4.234858617637358 -3.033789115998891 -0.39824845306421736
Ni 2.557067729284139 2.5361940458413743 2.2191880073117325 2.4418615186775363 1.3067840076591624 -0.0873491161396302
Ni 3.3472607090343516 9.218973440479836 13.27302278970357 -0.7471702919791648 -0.21296473195962679 0.7307319439174834
Ni 0.7761366800602315 6.366602584629148 3.4702835395909246 0.2685326990329182 -0.6093511921144409 -1.8884755290748056
Ni 4.78581077357261 3.641447743821592 9.093659393411029 -0.05050726472093237 1.1573527774768069 -0.1109965803552411
P 2.1181484952479304 0.4554549177780746 1.825673416115563 0.3047752263047203 -0.6929724657805227 -0.7118608180445934
P 5.0207896006625 7.35106932517101 11.74194871666066 1.3144106709664847 1.2427679098185176 0.3262547363347349
P 3.2401896894127837 2.1909711778730405 12.572083946261603 -1.5503800913514008 -0.00024014103526410257 -1.6219480333973744
P 6.667089542435128 4.705286135280373 3.904960702475862 -0.3633148744118259 -1.8148902994884872 0.7198705757229473
P 5.947487061751409 0.4974061328315596 9.17723898705291 -0.7146106128755886 0.540531759347882 -0.9525813799612498
P 3.787166900263833 1.3041394082731406 5.339320349697262 0.7914441741958756 0.9358800080461689 -0.9990139603921764
P 8.870817372628691 0.4484715038432462 11.245010235508529 0.7216564639787766 1.1162097275795937 0.8938938934223704
P 2.9867630643178 5.971367736269003 4.943875196439859 -0.5394853203612386 -1.9629732431730644 1.086700405266567
Ni 0.3621819286744171 2.1782606450475304 9.631814867256042 1.3358194756595638 0.10559135017926977 -1.393334024936265
Ni 3.6754193638479737 2.602200267103602 7.154179666622239 1.0065328944770406 -2.827093761987744 0.05170591301472385
Ni 0.7054908375997225 8.212719850493956 12.417075401133896 0.21742688149603845 -1.0742482955461432 0.5806743930050386
Ni 7.470214428586913 1.6330451989059682 12.7223541744717 1.1992278204440379 -0.8993302339465932 0.6730255903449506
Ni 7.460381752250197 1.8452686671565741 10.085242372033356 -2.4175345118963976 -0.8784364212167194 0.01405570676211773
Ni 2.7376163283599975 7.427729149781181 3.623456528817124 -0.7239650575072951 0.6699240686014913 -1.6372126728659286
Ni 0.9003798324548414 2.4709718559943634 11.76686984698574 -0.8302279798322927 1.9939990021306173 1.72803509226614
Ni 6.658271494988693 8.397299293433928 2.888766516534938 -0.007914626861386368 0.7735750072249388 0.12370708594337405
Ni 1.2746598270609997 6.148531164410928 6.447961985781116 0.03742086385061942 1.0362481621532864 -0.323557649118546
Ni 9.353587022523008 8.361805730072128 7.574600371208839 0.09038610319374112 -0.5154010257185253 -0.47747519720702936
Ni 4.479586550587046 0.19741265362221583 7.037430932167198 0.7163221962500567 -0.12016667689028337 0.45974152737269214
Ni 0.4543286797098636 2.1584753816870665 5.045179434405036 -1.2670326959031535 -2.1545242853436055 -0.25170611439388263
Ni 6.691191590528785 8.30785514480623 7.5037110178146635 -0.08970501796631648 0.7282680557580231 -0.45437486374414005
Ni 4.387209202076535 1.0006177876953222 2.6763152179789693 0.26553659251907175 -0.08433372635207412 -0.5193643812416474
Ni 7.515660578972463 4.0509704117366825 9.080456304378783 0.35247767458700585 -0.5084451632259824 -0.1527276415454402
Ni 1.8143132621040259 5.6687869533894455 12.32931184690446 -1.0203217207310171 1.1502282506168837 -2.031718371058262
Ni 0.6927074359720924 1.108306808550061 0.1093779167621049 1.5849138634622122 1.0746097926506204 0.274476832431495
Ni 6.193968090897475 9.33809087219873 11.49994589048033 -0.6883550216131694 -1.2439519028242898 -0.2641458828191322
Ni 0.1436714508636751 5.949442528339949 8.617213648672859 -2.4883586337978114 -0.14657936255585724 -0.4820257926921892
Ni 4.732275263761826 8.013345273553899 9.491224198659218 0.4209944885114814 -1.6169230693789571 0.029511379195555628
Ni 6.814736493768902 1.769042365799524 1.7258403900412937 0.3227950599209086 0.7347271811198056 0.9831129728912037
Ni 8.344261874169282 5.606212022556165 12.87205621050324 1.1972956364183316 0.37601278159446855 1.735541170835198
Ni 2.1884438295463426 0.8157477919367702 11.234708985102484 0.8796589807699108 -1.8250227599367987 -0.21650411257145294
Ni 1.8266179433734238 7.509286864761702 1.4407582659594678 0.5008686364303051 0.8743946470471778 -0.8213067660832629
P 4.703524370570887 6.013207342144558 7.971206813350663 0.6296613644267027 -2.4629314519739585 4.371036325243917
P 6.0026920972816535 3.6369188094113416 11.03516468842078 -0.44021374175240957 1.2318306940807238 -0.5859675230831779
P 8.3986459826883 5.637711637649863 6.728818641729875 -1.0227987215166 -0.2830113522650674 0.11561376741227833
P 6.3640567885044454 8.206945689718362 5.279406513726217 0.5619729599407935 1.7461233172264188 -0.3045034607005724
P 3.137573813009446 6.0312216168965325 0.406323819741007 1.096739534670124 0.15200336178490595 1.013603685280893
P 0.798021302833675 9.01446115179536 5.444202538085526 -0.26445698630164777 -0.3669257316915358 0.7976868126714778
P 2.609274997638556 8.044798769152585 8.496482034628519 0.12171756631717102 1.689890977096251 -1.4832447311554842
P 8.008041531627434 1.4639065628962602 3.729526755396915 -1.3015178741642166 0.07159570996011541 -0.7023917022118935
Ni 8.026203388763449 0.7146427901900498 5.809596228392629 -1.2943414110204352 -1.0670160394637624 1.1075931895551765
Ni 7.985470650768201 4.153678527130046 1.878782781792429 0.5274430444847239 -0.989090273520561 2.420037995044542
Ni 7.665078518914725 6.174671694184147 2.710915907917324 0.6392410376953378 2.063177618008808 0.08239485745814842
Ni 6.881840359012432 7.622667031301013 13.085547042476795 -0.5327207479438955 -0.3966127172330073 -0.03378583820119343
Ni 0.88621561314653 5.256995206319728 0.9397953976725262 -0.9493124794019909 1.5320468402598517 2.787130848441561
Ni 2.212121578285881 3.7683316985006314 0.10189087794173733 0.624859315052369 -2.2664071249585422 -0.10311820604842886
Ni 5.257520968562873 6.302690188440499 3.4016761788099785 -0.022687157184870608 1.059387576384227 0.3645556887974624
Ni 4.600484194813432 6.792543792768773 6.1957529153544675 -1.8464549616686456 1.4330282582020935 -1.5915827908419558
Ni 8.619650602789331 6.671148057996249 10.924301723919266 -0.17287352036569584 -0.7539862864597338 -0.7661242073738482
Ni 5.066835304483216 1.657885158919828 13.307961074345418 1.7715348153209878 1.0560590262316265 0.6420733649378104
Ni 3.321157074857143 4.93442623430165 2.51401702546955 -1.0559014176078396 0.593699601620113 -1.3336160402503419
Ni 2.888297942465609 4.4834052447741 6.710633724846353 -0.22328334027681548 2.734544846814729 0.5683670363925954
Ni 2.785377677395187 8.046818803034144 6.149582688897218 -2.442054865635265 1.2749352385796817 0.531666081427136
Ni 0.9924915326740783 8.083373114781237 9.94859492026012 -0.5942912124575248 1.9847589715895881 0.28224799173648163
Ni 4.865034842105487 1.9124647713901304 10.639894789244426 -0.5430205872080067 -0.4645749442055935 1.2786800503340945
Ni 2.0997560406368514 6.253379224372881 9.389460610523717 3.163618255679603 -2.388688791309299 0.9634964842118567
Ni 2.692972657187669 3.903092862927846 10.968838397863163 -0.4696724133331589 -0.8591539188380235 -1.738889518482141
Ni 8.284979875279912 -0.2135286499594663 0.7894495334906078 -1.8197329722927693 2.6350238711992553 1.1453953480046144
Ni 9.36926765082734 4.75441262136794 4.875901517520389 -0.04946545371997933 -0.039583932940209246 -0.25876790633667046
Ni 2.19433790100897 0.5614633442345491 4.0216826876237945 0.7416547614775744 0.9189603494726949 0.038695359687668844
Ni 6.255030302294338 2.021740302873307 7.111141876266254 -0.6720567986737781 -1.2829701930690163 0.6283670710953113
Ni 4.320483516692109 7.814311980876935 1.7383009552038347 0.22565646849468235 0.29405064079836457 -0.5675201150112678
Ni 6.909004741574933 6.26767626782683 8.639624033689447 -0.7362482457500223 0.19425532847558158 -0.3362840955462789
Ni 7.875401863970806 8.631586328098628 9.730473690987287 -0.8792617453314922 -0.8852017649650109 -1.2080868134965643
P 1.9341224862481114 3.068108629621263 8.496212696777643 2.447621303979449 0.26142668411575626 -0.32164680524907835
P 9.010614785911297 3.424400176392654 0.26180745972869857 1.015839259479631 -1.4470112027447468 -2.0232054484912445
P 4.864158571700246 3.6547486061832655 1.2798962345247458 -0.008524492531243384 -0.3592743857938651 0.2649784060227566
P 8.214481615203443 2.0039935211924065 7.922943684209734 0.4097112022881783 0.45991456261544666 -0.8503406914217677
P 1.1167005566423787 4.039302179498461 2.9841047366252655 -0.031791690589300085 0.5183871049300427 -0.12254520442478893
P 0.5369019459705664 4.687115054245354 10.391411251624906 -0.43956479531450104 0.10437984636967186 1.1730884430445085
P 5.984244299276559 -0.004265130898777824 0.8258774778213674 -0.7744178148412082 -1.0185612863964846 0.18269590577275632
P 8.9668104895482 7.2118530175255655 1.0050572502852482 0.05148351259127263 -3.3626825755080545 0.11012137683913938
