# total energy = -340867.842118437 ev
CRYSTAL
PRIMVEC
9.31624337849973 0.00000000000000 0.00000000000000
0.00000000000000 9.31624337849973 0.00000000000000
0.00000000000000 0.00000000000000 13.63526388474617
PRIMCOORD
 96 1
Ni 3.991916993617451 3.5250241558566344 11.199037163512687 -2.1699496187597402 1.6897369680168899 -0.7920440125634037
Ni 3.7456234755417324 1.295908043702711 0.17112634247931457 -0.34301575784315763 0.2540843848180721 -0.1290683502552874
Ni 3.7295250075145416 2.843121744253495 2.572251976955711 2.6545388013037314 -0.7651929538088306 0.5740175498101533
Ni 2.023283037736822 8.334981821078 5.166060808754082 -3.541863011928384 -0.03033438931748324 0.8851079196996241
Ni 1.6780323857578512 1.7782658449618702 12.13588881462908 2.089009491470247 0.15249829914345348 0.602625186244517
Ni 6.962820327836772 6.818623517579331 7.0361233231946105 1.2690237581912531 1.198642123143897 0.5033682629237073
Ni 4.530377210651924 0.4772879017797627 2.1783966216252013 1.468741909553619 0.8105726674952105 1.1022226692718824
Ni 1.8909178561799203 3.9329638074623214 2.9045837946677224 -1.3542717688274803 3.1153617346660605 1.4767632371961987
Ni 1.2760271809885761 5.295986066250612 8.792509039679247 -1.7845913913946296 0.6571189464170232 -0.5250195226448957
Ni 6.177470353170017 2.9555315331516914 5.173737393044825 -1.3654046455158484 0.6435440359460658 -0.9636162976191727
Ni 0.0035140868864909393 4.179741770177747 12.755911808128399 -0.6735004730988401 -0.33568220029622187 0.16200572441325647
Ni 6.521388782389794 5.564349764162219 9.929334779945208 -1.5001687606043324 -0.1977826249025497 -1.26707409066405
Ni 4.152007314554514 5.659161169898747 2.3041547235959436 -0.33147484708309366 0.07216186687623057 -0.46504031387778616
Ni 6.710881166459852 5.539810779912439 12.319351726183397 1.798702119764399 -0.5952461201716265 0.31749601630549834
Ni 8.53257933662008 7.268094980796834 11.7182407061188 -0.1426987965545284 1.5293556665809338 -1.9272508500707903
Ni 2.4157763583303082 0.8035893153517275 6.537031686130798 1.1441365358968487 1.8166443060651165 0.6215436204155748
Ni 5.042677417142213 6.762418623130233 8.299689097451028 -0.9319405637824466 0.8056968274601479 1.1894542859970416
Ni 1.7932556800635773 8.125860112856731 8.157364852050916 0.5796678061173952 0.2925722564806252 -0.36465339071759134
Ni 1.9156524815341975 6.2766044956916245 6.319330649665178 -0.09208817348651237 -0.43676794929565427 1.3222661624551615
Ni 8.969958316331047 5.816559096588207 2.2656898192031973 0.8579478143450644 0.2947350684598989 -0.5012748707297883
Ni 0.1875285200306294 0.8378190556442646 0.11277684887520524 0.2686473702339115 -0.44490266258764666 0.08086839351129299
Ni 1.6074618444928224 5.419035004736223 0.48522813574942397 0.5809878104803994 -0.35321892362840457 0.46851001759394156
Ni 8.690396494247748 9.113037177419931 2.2450869476510373 -0.27004450769175425 -0.17068602579607378 0.9573299503898285
Ni 1.5171595004027993 5.913979050384697 11.77125478731598 0.3239302019666163 -1.2651419066383436 0.3898476305950318
P 8.770246013611784 6.51175578705408 8.471807619817435 -0.4111155388348726 -0.10153749182487029 0.8928060596748301
P 5.6235079076649175 4.2412755556636235 3.2220813585373174 1.2402335734324381 -1.3216861215819753 -2.248713821443837
P 0.1008986389593093 2.9752353872474715 8.98831131518149 -0.33571639596826697 -0.36366300177986405 -1.6634564370538063
P 3.600318032358808 0.03555078356004619 8.460626264883272 -0.26631563677694137 0.5893842620742108 -0.27462544219421736
P 7.577319720819122 0.5041298613167662 7.299501899438769 1.895254242559536 0.8047588890269107 -0.8954974904640642
P 1.9029078610126715 6.3750306037398135 2.4122827671785747 -0.12598662600617014 -0.523678435235969 0.8644336791797241
P 2.4794901446948674 3.88986686701453 12.682226846804635 -0.7662399070161061 -0.08033694648785518 0.5760070694363564
P 8.772379433275109 2.851478414288443 0.8889792044702588 0.11201807964121999 0.6450666432381793 0.9735083599219041
Ni 6.776346406521813 1.1080273696839869 3.6530917544847497 0.2093919270067039 0.5970381790750428 -2.968454042236507
Ni 7.901953526881326 3.347149126896477 2.9223917932984955 -0.6843212178634279 0.6411976472010764 0.3322940005502793
Ni 3.0774811549548895 8.191399882863264 2.666675826980473 -0.47599938399245123 -0.9132440158142079 -0.7622912067810033
Ni 1.2660029034438673 2.5972195083867704 4.977198202715645 -0.0021795241498220527 0.049681940606159596 0.243968893650625
Ni 5.670722627550219 8.078272743248577 3.7988387875892533 -1.116715977792051 -0.4017089008089921 0.7409829322215302
Ni 8.639874508072138 5.311078380026104 10.485176311677789 2.093059493169905 -0.9327296353426453 -0.4099688268249391
Ni 2.60385267345353 0.8283621373025973 4.076780515002454 1.4269306299447877 1.9222947916170958 -1.8758359859339242
Ni 6.847177802592838 5.343098307462131 1.4355883393191902 -1.0857750652388205 -0.5710679802635262 0.05861780964320872
Ni 3.403065217810365 5.186697218781299 7.831399754853825 0.498548987158193 -0.5280953333567422 -0.13677266087808057
Ni 8.661954004151097 8.899061706558522 9.046888125116539 -0.14064859889371906 -2.0205351007479333 0.7337015680687687
Ni 4.401151603010048 4.884077695096556 4.763724877355776 0.09816009071220515 -1.479625646345658 -0.14539691221198184
Ni 0.6250332690230584 1.9840150731913306 2.562638545730446 -0.8174778792554761 -1.4381342119700908 0.9556988425443088
Ni 5.022004673767017 3.5751455435801796 13.133158165311409 0.32232686203523847 0.4840659630506696 0.1182090389432803
Ni 4.859892728083484 6.5101720257319595 11.213449391543973 -2.686540036800676 -0.5693615390953808 0.48594492524093735
Ni 1.6915595706973656 3.378815037095795 7.3298952108345485 -0.8349256424182782 -0.3759582742074493 -0.13830323858999408
Ni 3.9951776786924027 3.139965197234038 6.740674511801839 0.01745290536912478 -0.8176321454451532 -1.5220028257602882
Ni 6.266617483119201 0.30495137932548744 5.520168413020929 -0.8659367460878119 -0.594141574253538 3.254826340554007
Ni 1.98336293617634 2.8615399568054367 0.9836899947816167 -0.06641339442822755 -0.3878840791107578 -3.211789158957875
Ni 7.46898113014308 2.1131288859163515 13.022331206111026 -0.4497206528015803 1.2783483780262888 0.2629716600053729
Ni 3.5772323820281486 7.058833528929497 0.15194978774136933 -1.2968227826813923 -0.7455124446607677 0.8603042303923828
Ni 1.250277085139528 0.9485798695188425 9.846951242465783 0.6993757982037051 -0.4884298964463201 -0.6008159009499201
Ni 5.928912988027976 8.955788310619614 8.126112583043964 -0.9450171944607467 0.054018363197984386 0.33802987459279205
Ni 2.452463723545052 8.637331173713676 12.413352618772723 0.8125688719896327 1.315450939305541 0.9655610800503694
Ni 0.4673567866657666 6.332958450029864 4.45993150704405 0.6795451366310232 -0.10346684763709922 -0.7605914504810771
P 4.130579955490545 1.0220104974067576 11.719004638050645 -0.3806749629568283 0.09692236165036211 -0.12438868539143093
P 4.4841500125321785 1.5904038034292887 4.812007238697049 0.1479649300494742 -0.35606796304142546 0.25903170152101845
P 7.320815600337268 3.5977653817572746 11.139519413027434 -0.6620654917890211 -0.10471331844969063 0.4590522146151513
P 1.9440018092001359 0.45562856826331843 1.6106386833801327 0.687498330039829 0.42308968047761325 -0.7236022748512376
P 0.40476653921560557 9.115608460507609 11.645510659709847 0.4955672788220497 0.8939741118410022 -0.3415610276745021
P 3.0197763453713136 5.266584003117619 9.913763611275852 0.9140809098932065 0.5330783883936303 2.0302425578436845
P 5.201612523938436 6.86372345028745 5.650767234891514 0.06364611609573555 0.8195663863533884 -0.5207100966362646
P 7.481427630886325 7.312915426212814 2.854256517972302 0.1328707547205131 -0.7591426338496926 -1.8273809757563302
Ni 6.860434816483285 0.5189678416564112 11.607126806631818 0.2599956080961845 -1.4312382561812058 -0.9184435577372763
Ni 1.8573421161509875 7.6775345475369985 10.523764190479076 -0.36399313142577316 0.24569667497500908 -2.0975298702364324
Ni 7.143890828170383 5.954392912827957 4.738854234852658 -0.5743278819617206 -0.836384743462308 -0.8115172907966669
Ni 9.128641884564345 7.822253067406432 6.842679920438018 0.7957158049880361 1.291645352245511 -0.7480380392960988
Ni 3.3033068870029814 6.80569257219638 4.505514021143263 0.9338696624843594 -0.8726776643560713 -1.1848424982566432
Ni 4.818109377908744 8.825761506073606 10.248400267523701 -1.1007517411533105 0.7468851566385781 -0.037002031145645944
Ni 5.811835761351063 7.598150840326529 1.4891073608908352 -0.9412973224069983 0.04639658498666849 -0.5393050860296325
Ni 0.43806558682532076 1.057663759640588 7.483264794019983 -1.0552095337471377 0.819187405747415 0.3390986821769386
Ni 5.564331131676077 5.090963504980713 6.693892065595046 0.8467935975004577 -2.572906018822588 0.7568746637511223
Ni 5.094131027624952 8.423700403845903 12.782746314670945 0.6903591965273917 1.2129834794672336 -0.4622912903777393
Ni 5.95073162930094 2.5340087991480615 1.2455798353829832 0.46815314847515505 -0.24923322737335787 2.2558404051862895
Ni 3.9618441609833233 8.403297831519776 6.428794642504233 0.8605762531068469 -0.3234910575466687 0.7201001752352502
Ni 5.574551050325283 2.1925498580991065 10.436866933231611 2.1142407552332103 -0.6567181114341786 0.5011450300201433
Ni 7.593073487852675 4.441705209099378 8.11844904149352 0.45316438837580664 -0.3481173407357811 0.46757027938849155
Ni 1.0223179334281103 7.810784772185672 0.7903546604446516 0.7875422680383082 0.36417387997801154 0.7915218215113466
Ni 7.705576439181584 8.311262666218493 0.12088198034722834 -0.09970892325656376 0.7215675038093959 -0.09402421416696065
Ni 8.978436097525922 2.18874883092602 11.126225134164704 -0.8571903673537494 -0.4674715490270981 0.89926801325009
Ni 8.124388146451468 8.086172917373032 4.63022218251987 1.0281712986824227 2.2895349692252567 0.87674617799849
Ni 8.35258952048274 1.9261239387463285 5.461781654444535 0.14113042362614406 -1.8021921351955283 0.01125011899252256
Ni 7.627450424785738 1.6503538275930458 9.377202044579308 -0.3955698777907897 0.44352198019003614 -1.0339938189014708
Ni 1.5119144555536623 3.4688006289213935 10.413428197288548 1.7321714830320165 1.0388663165024237 0.5496684315418275
Ni 3.7797488739118714 2.390929938059176 9.124186857127654 -1.649355993096682 -1.0481495415765625 -1.4811698509043265
Ni 9.00159627780115 5.411852181328258 6.476245994963547 0.9311463500159253 -0.03436099397837308 0.37554278393658547
Ni 6.296215187356692 2.4405016674415143 7.4839458113884945 -0.07449899964983944 -0.8934272381985968 -0.22623573803692004
P 6.101542972138996 0.4434233582156202 0.6598117360324947 0.0671646707719553 0.2429373670623171 -0.5185380286856102
P 5.295715895201545 3.9562450988974778 8.660928285788948 0.054646483700286526 0.4902299257695364 0.16740864059638266
P 6.55794572020154 7.749250986699796 10.839461856187297 0.5578283416448007 -0.5502654416958782 -0.13614479748609457
P 2.2863737420700776 4.50263343878562 5.038720808709835 -0.548003642244895 0.17819159014449956 0.9447647121303084
P 0.5094522309833946 0.3744654586262318 4.214182989188003 -1.9946626038565454 0.05217025424565208 0.4369492120685249
P 8.926293085055907 6.441828066560969 13.541616731656168 -0.15461046039044987 -2.5522137805805594 1.3801985159955714
P 7.99781766808491 3.995708704547466 5.311821816223193 0.8548704609713212 0.09100805304845618 0.028742362240015015
P 5.117151464254112 5.64056594872845 0.04754265164141187 -0.4325672809507453 0.45649653807283314 0.81396703788874
