# total energy = -340853.10088892473 ev
CRYSTAL
PRIMVEC
9.38710065412183 0.00000000000000 0.00000000000000
0.00000000000000 9.38710065412183 0.00000000000000
0.00000000000000 0.00000000000000 13.73897066998143
PRIMCOORD
 96 1
Ni 3.859365534739875 4.53070279609683 12.54762262037352 -2.3495373179208183 -3.2821890488376764 1.087069615680528
Ni 2.0422951176624373 4.95193015363239 8.490394844088165 -0.6239108350961706 -1.2789479592835007 0.5168830095806906
Ni 5.284008218396902 3.572936939359969 4.5305075444079135 -1.0621078035288676 0.8803799180963354 -0.51149963378159
Ni 7.906116368236795 2.381347798045449 0.46814971773829317 0.05755851514075893 2.5857851887781016 -1.5789494183486612
Ni 4.765239500307067 6.31382007092378 12.313606900237074 2.3824860049326966 4.2050147948030485 -0.8717263561863955
Ni 3.4965916515736226 6.250166142916992 3.2639398771294617 -0.5963257263890503 0.2919675330170907 0.18565138885665447
Ni 9.03422993645267 6.374235449282679 11.093929677019899 0.3947080440111267 -0.9630018039636252 -4.319277704614387
Ni 6.586900209494123 8.29745519800748 0.019957914221388227 -0.15724429846887114 0.14610756512576126 -0.2824716777115135
Ni 2.7511150710310583 7.105086927357381 5.449163924628821 -0.8454882484254729 -1.5946195207857503 0.12319106553890395
Ni 7.700623352752852 3.9525137322935344 2.6338701866770116 0.12320289261344589 0.39746066705559935 0.6011079782690423
Ni 7.302413165468383 6.71027487042809 5.7829110158495505 1.564862344127976 -0.22551557204144387 -0.626015025923367
Ni 3.7866155064177085 7.423825922412758 8.179605784385826 0.3614713934451839 1.196882974360945 0.09363109249360003
Ni 7.560079685134855 6.530840445734126 1.3062610214410688 0.9905264917464555 -1.0612616534784884 -0.7191951469224774
Ni 4.91172520249641 5.752311884582226 5.399841282846478 0.03536269577001007 0.08515673647400172 -0.2954804312663556
Ni 6.7676488282481 7.153693333377017 11.095537687323327 -1.1874660519224196 -0.8552669250787914 0.13918718385684414
Ni 7.958674743536899 0.5032058442891488 12.845030368414797 0.11248524908562561 -0.3135537438282987 0.5161556444963626
Ni 6.749428466316058 3.2998004781870542 8.990122767668494 -0.11996433107149015 0.24338422479174857 1.0648113185029595
Ni 9.007232635619825 4.402972520563963 5.321790358912243 1.0008623264548246 1.1998723960065723 0.6247682980004595
Ni 9.048798716317961 3.9182038802267583 9.075840136522821 1.0168137075777586 -0.05468350758580905 1.1076551531413634
Ni 0.3505603267985143 8.722165169802075 11.785439817198059 -0.09980225430131845 0.13461807642892298 -0.9364531069408195
Ni 0.09916251279830621 2.0737888396006143 1.9791678059896969 1.3601117725480252 -0.4092067518479339 0.587457220254827
Ni 4.796920964253817 3.2422951009610426 10.470277008420485 0.4164852877872182 0.9241740324631504 1.2554125951657218
Ni 1.0677732866604062 0.30290107921213066 0.0813551832851255 0.9996266542755106 1.526780963875222 0.5402342827121213
Ni 1.3812367312748726 0.1380204150227719 4.187542320566234 -1.7306265071424 0.06697158092454272 -0.16315397908508678
P 1.9365400442330787 5.6553149758528125 10.623370290601565 0.13877040803439972 -0.9139261294828969 0.6913272168676158
P 7.74323140159857 7.16810253253502 9.162299086311013 -0.0865091367368381 -0.05091015658630586 0.4357683043865463
P 6.708472547145784 4.40235297193567 0.7255045856705331 1.280282361824208 2.9580495590737312 4.849378241326616
P 1.8176148689023004 9.207271745754712 7.705102877077413 -1.7479470006987188 -1.3632266640279231 1.0676287333470968
P 5.64618132713572 6.3762724500756995 3.513700580814911 -1.3187172687616386 -2.5146826164043206 1.4656974663003401
P 5.797989515268117 3.3386630739617345 7.088525266071085 1.8508949997178705 0.9308768984046226 -1.9320127902358082
P 3.7292415485976975 6.399477362335364 0.4216694899657501 1.0241575495373396 2.058596426396029 -0.39876935856469387
P 9.147982819447254 1.987615257665454 4.060593990499075 -0.6426477493840416 -0.6260703046413346 0.9085005875919515
Ni 5.71644377384429 1.4026768686539473 12.503877793665891 -1.063146272095711 -3.0927794784901703 -0.4011537996364704
Ni 1.9734595102190247 3.276886566040679 0.37447490385058546 -0.08704135509122428 -3.6250163448191115 -1.3951962749559843
Ni 2.5441952162819588 1.6728563931918317 1.9949259314792998 -0.17441798203468026 -0.8528452030111764 -0.016872864495938687
Ni 9.210425811498745 4.323707844544301 0.8454482613978216 0.47349744350620393 1.2031027300184118 -0.6972122148934831
Ni 7.1991832220543355 7.56771139778336 3.2668526943924774 2.1630672898176107 1.0449518605748713 2.2099752672230584
Ni 1.125532115597992 4.89434029250252 12.476345428108612 0.6706030969463871 0.231712187770459 -0.2084488463671442
Ni 7.419789469228432 8.562988107833174 7.58170005484216 0.6328706153926198 0.6134361608170918 -0.8790943665156925
Ni 9.285409969722933 6.76807124776739 7.714473080725307 0.33732796342976096 -0.3456933046753208 0.2844632542202456
Ni 7.737308141228082 1.6829475261526483 6.788081729751178 3.122533055603519 1.0737279042662993 0.13809677900614284
Ni 3.7288754516809792 3.1621480375010864 7.094487952263373 0.8047897422648461 -0.8482897224300099 2.470822424686261
Ni 2.1888465295547817 5.249904882539556 0.9848645382543363 -1.6025701430913948 1.9994219729184015 1.9801505262832995
Ni 7.346354182574972 3.1391120930491385 4.892790482221747 0.4235049136381609 -0.9159035649242419 1.350709248287203
Ni 6.917119628373759 1.444364981657656 3.446242061004383 0.34832045788552274 -1.085626198365782 0.19664568308462907
Ni 8.58449395491525 9.005308280031947 2.224517511183715 0.415287153714059 1.0608680175844956 -0.8253439122671141
Ni 8.175544924740386 9.204305422019253 4.759289017345336 -0.776882474331617 0.6665111862652005 -0.846484036679839
Ni 5.677712597475612 2.664528456677037 1.8330810555685717 -0.6900051556220826 2.7427615782975665 0.12182503842931279
Ni 8.595420539814217 3.733700421301314 11.664151908689385 -0.39751028934661214 -0.5427069126223298 -0.031073838586669063
Ni 7.425684568297633 5.50135714172225 12.754449542828377 -0.06129355670315896 0.9290843252805742 -0.2542651333703105
Ni 3.1667007812089896 0.56188648648883 11.977441691945922 1.1813278002351655 -1.149485201803272 1.6584260737187504
Ni 1.2774529489355337 5.1115765706227245 4.0198849520700755 0.8880947702420898 1.2092078144748852 -0.6554505575756647
Ni 5.689690537622591 8.591121247817888 9.26866619868832 -0.010787834644123357 -3.294817022014332 -1.2464101345567953
Ni 6.163213431646252 3.427108334200632 12.97714441984785 -2.3071015173541105 0.10784466498982072 -4.815778808104616
Ni 4.149783647801965 8.542007938375104 0.04235178100401546 -0.40791348695780716 -0.6404288873558518 -0.7978634474586581
Ni 4.862452312346339 1.1162013377718976 9.545012109497796 0.23073285457632522 2.8518807391244367 2.281509270707303
P 5.14251645363561 8.919463246611791 11.425877261088452 1.9104188661151162 -0.6227330127379855 1.387023509337205
P 2.152499676694984 8.883764103681571 2.4304104171459184 -1.0532776068317473 -0.7111447658141753 -3.427358161309568
P 9.364909323253311 6.769460538630833 12.950078593181876 -1.2300466055971073 -0.14866992653629882 1.232171365249594
P 5.031729894376485 0.5394006261220019 5.465623266520446 -2.170313172746746 -1.010354582215976 -6.712691412203182
P 3.370297602406341 8.16707776015373 10.395152043689865 -0.7022173814175583 -0.15052214925368915 -0.4812842865404744
P 6.837817403952384 0.990076256412332 1.3486982250589852 -0.1399420597449977 -4.665025516676727 0.0739644673026081
P 3.0705956470203004 2.6885124982722806 9.35215788603101 1.6587814001756398 0.36575767952536364 1.8193663329819698
P 3.804798319948036 2.2714154649253335 13.136626562580682 0.45532771457571264 0.8494747438770468 0.9198417236363835
Ni 9.019933382499811 1.5804873249737514 10.486378701785776 0.20634696953279305 1.361305021525178 1.0062320754071703
Ni 3.0151272705873087 9.278651257414293 5.840408883395219 -1.0169767155181841 0.005802979835022264 -0.8727046609392647
Ni 9.247448535589404 9.207271745754712 9.098220861364847 0.9989409410623956 -1.163771793629273 -1.157999152811554
Ni 7.419254404503998 9.264542445470008 10.711780818568878 0.22915471145592795 0.526289647606571 0.3398594716023631
Ni 1.460473245993248 1.9042671929593227 5.595182149216817 -2.651996494497852 1.2953449125842853 1.2297630129184176
Ni 2.779623695032919 4.244321136219067 5.538756288540102 -0.8491962934046795 2.3042218818134703 -1.5078555877256288
Ni 1.8485923003169005 2.01510068772059 7.968850360401574 -3.29476534284079 -0.08952735473787163 -1.2656579270428139
Ni 3.524124017130902 2.16407397152353 4.975032746497382 1.2000544301103913 -2.1095567194939795 -0.9892257706571608
Ni 1.9060225807394833 0.8622962292471926 10.261938762796612 -0.6717261548072367 -0.5383769177884082 -2.539462651562478
Ni 4.575544974844571 5.657736847763409 9.887112781389996 -0.8638531240859059 0.5187745701764485 -0.13746685873162778
Ni 0.24320005919585347 8.753452375530822 6.3044151350043 1.2878537464135627 -0.5484646410417134 0.8975245481964219
Ni 3.7350521637630427 0.5634391128997315 7.784472688621875 -0.21008869596341237 0.32974346621428374 1.1128220420542836
Ni 5.774897248213598 0.9994164213388554 7.0670654157811095 1.2896612319359466 1.1798676707498712 5.6023057475045315
Ni 5.543186061232389 8.040136001056869 6.276264159528771 -1.761215949893483 0.044930027743471004 0.19945152796454035
Ni 2.5484851211778596 2.8276199395246917 11.495135288051156 -1.734307298428097 0.7655819617171331 -0.41109728400242745
Ni 2.3423162344630533 7.482476525891067 12.33492969886079 0.26153826999295604 -0.7815104600219315 -0.23360760502095892
Ni 3.771699403836557 8.775202287224042 3.6389310715036243 1.4130944953926439 -0.07268945724492643 0.7524019726917494
Ni 4.605442889709874 4.895138196038957 1.6668392618170562 0.9219428291397864 -0.5997982583186832 0.3613469520521777
Ni 5.743319042371563 5.924649661352118 7.604726612193679 -0.8426620918305874 0.49141109056183113 0.9498914918339125
Ni 7.717247907612021 4.916719139924461 7.44723641217181 0.2766805249510332 -0.8368783952692748 -0.880722903258051
Ni 5.374931673148968 7.61692796533086 1.9335127043448337 -1.8651407110036071 0.3122725631230299 -1.850072246706259
Ni 0.8461795165212147 7.544938292143415 0.7805974780863779 1.2620766374494587 -0.08992793261039997 3.24287919549446
Ni 4.784398572281975 0.6011179953103567 1.6929982945816218 -0.8623307739041084 -0.954575270462827 0.34446097493011646
Ni 1.7055047284827343 7.270065217391198 9.270864657608714 -1.3311513807599333 1.067944979035935 0.29878584149050474
P 0.34757147402202676 6.587397725816842 5.587652755962983 -0.03861822659283027 -0.11240888732173544 -0.44743057121582297
P 3.705182410199025 3.101751433343045 3.0391150670227236 0.7015761482891337 1.1183799957580352 -0.6862634291914632
P 9.310895947386763 5.745909882089875 2.563046391362807 -0.447590750942771 -0.051190406830886034 -1.3208458850688671
P 6.430595600256394 4.920999657719933 10.661193734358791 0.4120097685143679 -1.0144040696950016 1.082877174865735
P 7.204346127290102 1.1910259152887994 9.046494183162723 0.5664111982178052 -0.5092015817760327 -0.5675784790530289
P 0.10338201444099188 1.945373305736454 12.728936342573304 1.1338624076643504 1.1400903908519333 -0.9249214521521362
P 3.4920107465644334 5.63906590501079 7.147960631145231 0.6895788667179414 -0.22331393640443478 -1.2352173511647695
P 0.2502309974169248 3.4455727607438194 7.111112507122542 0.20644518567355413 -0.3390829984476547 -0.051992333906891106
