# total energy = -340872.7159035499 ev
CRYSTAL
PRIMVEC
9.23161726285346 0.00000000000000 0.00000000000000

0.00000000000000 9.23161726285346 0.00000000000000

0.00000000000000 0.00000000000000 13.51140501035771

PRIMCOORD
 96 1
Ni 8.139212111501212 7.739861589443076 6.747284586129883 0.7059269690586616 1.0958607316095965 1.2314023482940535
Ni 1.7379903843194489 7.168895306385823 11.191523509281545 0.8286225830183858 1.223715264062441 1.05992133740051
Ni 2.002199264351439 1.6292419354453456 6.506457545767531 0.8599738436361576 0.22842631793033563 -1.188868845807217
Ni 4.4533597607991675 2.454825448417424 2.221450169339551 0.21269759434116917 -0.2676983760570809 -0.4279151268907146
Ni 0.6396809014230844 8.242846244528435 2.830085142616319 0.9471455536576591 -1.6565334846817277 -0.7376939770576134
Ni 0.23237087914260068 3.8272253342383795 9.680124088668357 -0.38478410002919533 -0.1206731842130567 -1.0029148381084794
Ni 2.503245279855851 6.294310370101034 1.5327604593101136 0.10395741412027257 0.7185847670319883 1.518426935483572
Ni 6.848825911571388 6.752281660440202 5.006637342422831 -0.632325541522427 -0.6793625883065719 0.4061887909572166
Ni 7.797402258529008 8.918489833339802 1.9413730627566532 -1.2073370798147336 0.9892563667847802 -2.2844045899772274
Ni 0.6411875013259922 1.2664301536795437 3.6181107447735075 0.28085342538180014 0.8927433247576948 -0.19687733947946093
Ni 6.40081553603147 9.044953755336945 5.818943020588829 -0.8099257779398308 0.4765858526235404 0.6000538259729149
Ni 3.645565573886545 3.295945772888239 0.06441083849612865 0.8203163771455355 -0.3456267131034435 2.5368308703665856
Ni 4.776004776771146 5.2348069126450065 5.299956280505306 -0.9022224678927236 -0.7864734604541617 0.636628025552523
Ni 3.543103856224943 4.4662194033527856 3.44965035048281 -1.1833425166723492 -0.18540559139443552 -0.5994575871498127
Ni 3.4609886225462376 6.266467813071806 12.928522417929594 -1.0142112369579048 -0.6445321108909481 -0.9504193393129244
Ni 8.500685308794454 5.521882508115126 13.00426783584233 -0.6233199955897072 1.7442888351208414 -0.1747242004211894
Ni 8.496438764950476 3.228471883854213 2.975670513013541 -0.44785865989217705 0.7565368207957294 0.3146487766646903
Ni 5.1262338644948935 0.7231254879572968 3.919847994445821 0.007264394871897167 -0.09986781743193124 0.08238945814150972
Ni 7.443886715134703 2.203254652129801 5.126227402362957 0.982887744254275 -0.355401018881388 0.04781737659359507
Ni 4.949531482500054 7.826195672114605 11.998424998825225 1.0652705175275654 0.41250624853481216 -0.26727183004262356
Ni 3.0082331958415227 8.367196126220641 7.390873231051135 -0.316153643344991 0.27294779738147834 -1.1380674468846337
Ni 5.267551458328915 8.930075512740226 1.6634700019895319 -1.0252662092204858 0.5859466971475715 0.2638967429228036
Ni 5.416577452401467 4.761621917403927 12.89124514827309 -0.31593792778975915 0.11143701032676936 -0.7307823375394447
Ni 1.7825329365959814 5.634499004534073 9.627430018534794 0.16379804042698887 -0.4092764287436048 -1.5996547692168128
P 7.248582624779818 7.530608525722422 13.092659645954779 -0.6206794726430666 0.69325888667269 -0.26564432174152963
P 5.681118670647334 6.178278175372798 7.02421463445971 0.388876267820698 0.8109596185209841 0.6030499324867613
P 3.380008877764944 8.360660141347731 0.34876679958268963 0.9824753393072049 -0.6626288204916588 0.9923856564423812
P 5.00059155641539 0.5221402604685312 10.97516579307757 0.13393262032612419 1.2607018685891191 -0.7848675494196224
P 0.46926709696415597 0.35942562463108013 1.1831932785290042 0.14474050957490556 1.063860010333284 -0.7610802171920376
P 1.9471326686354775 2.8732761861564193 2.1879421689254315 0.2931834077020628 -0.3834890353668557 0.7746047340410337
P 6.063879976862791 8.149800776260006 3.3665011756942658 1.1373776199064605 -0.48301978117434236 2.2759942544263447
P 2.3633031969625966 4.344795944266106 12.474890910766632 -2.046183140333341 0.7825862095846136 -1.4509614456417461
Ni 6.667738511476786 4.318790479030253 6.436901003926544 0.9493505317287779 -0.6651613571055254 0.5372057802984426
Ni 3.0200681289023548 2.034020648330135 4.114209536699682 -1.2730735027805946 0.8023767619479795 0.9348271413016223
Ni 2.5118122204802287 1.3030981366106082 0.4629462087685619 -1.3940811875149346 0.4099577710813455 2.2154175212845524
Ni 6.207616254364471 4.733382400841458 3.469066287466852 0.012563695597623523 -0.6286750892540334 1.0262105754116262
Ni 2.342328963020155 5.859122710646525 5.530636850565662 0.7343356021083418 0.057809197698984315 0.5544686811439482
Ni 0.9074097970370522 0.8382299051717926 8.366235114885512 0.04971587916788857 -0.12011371216516088 0.6598232327220637
Ni 0.09683043125980241 2.507390275912258 0.780238733173716 -0.8596604261607969 -1.266558327369896 0.00016994991896099765
Ni 0.20294048398040695 3.651104544117824 12.003099889700426 -0.9748070241286695 0.12376776397798041 0.8067149843120173
Ni 5.45007899068365 6.795190216498507 0.7693214228478659 1.0253518269557567 0.16927834681526976 -0.7817076636344021
Ni 8.771531721486927 7.913914497343954 11.460643609585269 0.5434587031866898 0.5044026177254926 1.6240360262746547
Ni 4.18431351343186 3.3785225874195506 7.3644043386392655 -0.8932935408342099 1.7578118093079402 0.1902050696656079
Ni 8.095214224630755 8.856296429259594 4.2134909622868255 -0.20703628229033375 -0.47723017107575877 0.8031066981354685
Ni 1.2470252946359643 7.812689816367337 0.048453988421520156 -0.4802427326498374 0.24534443384191293 0.12643965438318872
Ni 7.376089719503852 6.694676370034904 2.5883663280467304 1.0056731175799067 -1.446872363174037 -0.30654928748600757
Ni 5.79534146843335 1.8854931615783987 6.974506069280805 1.4126926319685347 -1.1685234493816457 0.650808430817963
Ni 0.9990271341475162 5.261670918266708 3.3996583746604045 0.2985801532376019 -0.017634939472943822 -1.3278660251404422
Ni 6.643643990970724 1.9993928527675913 1.0043011569693987 0.6890458770326069 0.6799943083532999 0.4427035980537989
Ni 5.636982309521095 2.377676824712765 9.404288910120915 -0.26941201631407796 -0.6440865387130972 -0.2700483643464962
Ni 0.12075693633551562 7.610249686031156 8.951805816119236 2.6467660993368485 2.8229198331157126 0.9555510041125349
Ni 1.8393166130836394 2.2401164990189604 11.494206076539996 1.700434556940052 0.13674360741235805 -1.3512736054311052
Ni 4.506044599315679 2.7200682695592526 11.638007898522746 0.6398362480771754 -1.4519379506224026 -1.0191855502440448
Ni 0.37534739456089045 6.886324740037145 5.063101604960486 -2.824564824918303 -1.6308175679728623 -0.2818232454942372
Ni 4.430945394596593 7.506541700067516 5.568955446625647 -0.0828748824183605 1.1662575361656042 -0.2875994858563821
Ni 7.511046729188956 6.623325201838984 8.870291560710626 -2.401479515316064 -0.547979988095811 -0.5655115692216713
P 0.9753018783235395 0.23761720711332673 10.422791986763311 0.271303576909836 -0.4101706584231001 1.4991248927208505
P 6.74495175650081 9.186382128575591 8.098330818547554 0.7384753353083282 0.24455999026740466 -0.33672555395907167
P 6.46592613110015 2.4009681945352916 3.162938480724545 0.4025748483537131 0.6189846014391468 -0.5137850873816571
P 7.347628644132132 3.6010137899929604 12.918875378110117 0.5288334970743473 -1.1940712159437628 -0.5119701456601053
P 2.2990234474286084 2.7167356558034332 9.158354016043617 -0.3265177601881345 -0.07126969407926435 -0.4984885662339028
P 2.3690729576201788 7.258525076344963 3.7276475737438632 0.8394988636112576 -0.672494400431829 0.07551329984696672
P 4.156203239508121 0.7408981971060595 5.9379782603441225 -0.6123683816742099 -0.3522028236590644 0.6997010427536078
P -0.0003055665244255372 6.305249836307809 1.4064830159774235 0.7981367557247029 0.5690846312849103 0.27225848462393754
Ni 6.758051421097784 6.257688545255229 11.182970416082746 0.34177957144321136 0.6318216053028152 0.7362891262902868
Ni 3.036288080062949 0.17685008786767423 2.813195899219445 -0.7180142392404989 -1.7419984964247677 -0.9562539437168305
Ni 3.7012506879449996 4.242075741327044 9.987157517043478 0.18286251325760766 -0.46682774479551215 -0.15748289684223843
Ni 4.459138753073801 6.729451871470282 2.9782239782901603 -0.11893614691729192 0.36820382707301097 1.1586036191647724
Ni 4.960194000195266 0.8383166823720827 13.366373398903644 -0.8452985010121699 1.5513547965598444 -1.3651645044805845
Ni 1.8202440922539365 4.222541639644734 7.561968328848511 0.5835987657406853 0.10899343388228325 0.025995138512181038
Ni 0.7038960296377078 3.3683216505769464 5.050779242519301 0.1903840184456334 0.5630600223573852 -0.5189339785724482
Ni 0.04740250723928243 1.0385753815988457 12.43638306655708 1.8411595175976614 -0.849327419665905 -0.6649898645246677
Ni 7.874384713126728 1.8785602171722484 10.293312095475235 0.9717111588121652 0.39181221052057036 -0.00810026050963121
Ni 3.7837444179228426 1.2339994829754075 8.348615650579816 -0.35707120749495924 -0.10313003312297077 -0.07119976007327738
Ni 3.0799997868047893 0.30586470565632107 12.114176552395076 -0.9426070423573573 -1.2479561388876765 -3.2212659881000594
Ni 3.6740820389605777 6.02285467068312 7.922074323656333 -0.7227741225229874 0.0005977814849989705 -0.41985986068640596
Ni 1.5263463317822932 8.657428934722589 5.2970113946656765 1.7358221924107267 2.387973510409829 0.4258340759919698
Ni 7.075240551391954 8.889271765369806 10.368192510870188 -2.3006346786828447 0.0723385016634109 -1.2545723586526134
Ni 6.80919457956659 4.507549352895176 1.2869289593438005 1.363268315899136 0.11176045510445913 -0.015868077380508157
Ni 3.156631439954529 8.547849640313792 9.675355035299226 -0.6102050554743039 0.038830085493320225 1.807103970674849
Ni 9.162841505092658 2.842978018991325 7.14431704914623 -1.4769257309159918 -0.9627842886361806 0.7395649688280811
Ni 1.0978146682223704 4.493120335442695 0.9616095439118187 0.6057074247142665 0.21789456516107633 -0.36930863010141557
Ni 5.210195421584026 7.889986145944831 8.753863329610853 0.19591523267650773 -0.6196127219414489 -0.03295794298325937
Ni 7.175699008153244 0.6448801481468447 12.709192121034835 -1.001418970289243 -1.6351493625789968 -0.41859744903421453
Ni 5.1940216285086915 2.84824004071104 4.886075193207115 -0.9909525235402804 1.1309907425435102 0.463502279966705
Ni 8.832728110925503 5.311512418731164 7.15278890411497 0.5330827592690045 0.29325951235563685 -0.15245844704445355
Ni 5.656414863415831 5.406154956749612 9.189674123216381 -1.0787269001427873 -0.888028950001161 -0.21625240157196307
Ni 6.503969624971982 3.914685674190269 10.865912374750717 1.031714535948991 -0.10437804659745895 0.30287440973758156
P 3.9196061260790547 6.373379170152536 10.65856656311303 -0.2233998112500217 0.035220256654874826 -1.0694886693739711
P 8.99221352711812 0.7925158606913449 5.779895126781726 1.1099871437086497 0.7171696318520164 0.7983434724188703
P 1.2294944538539674 7.114641092970449 7.286065759496586 0.45239768541311115 -1.0818752159637819 -1.6981046232552948
P 8.291238381115706 5.126289254197207 4.434456178561518 -0.1544212271977792 -0.772767680832295 0.36418930659697923
P 7.510465137314672 3.3613979377878476 8.480446834731069 -0.5995010387932386 0.167963227548272 0.46385786353391084
P 2.8637214625074634 3.7270530576057057 5.573994986374406 0.5008712075334665 0.008879304767500838 0.3427393642533194
P 8.952397562772278 6.0635107121807055 10.445532229047824 0.08291319185546364 -2.1712058597643447 0.2964602786811217
P 4.704256649041984 4.9380842773554114 1.5858736448578443 -0.7992564711514428 -0.7367897200757891 -0.11888343930248559
