# total energy = -340893.12495764904 ev
CRYSTAL
PRIMVEC
9.06809686442306 0.00000000000000 0.00000000000000
0.00000000000000 9.06809686442306 0.00000000000000
0.00000000000000 0.00000000000000 13.27207637836329
PRIMCOORD
 96 1
Ni 6.264241449968231 2.008057549455508 11.094447682989458 -0.09825702130138562 -0.26892916314038845 2.162761071431101
Ni 4.642629924878452 0.41575230044854294 6.155310027209273 -1.1505779206468185 -1.0855763189644532 -0.43649464102960955
Ni 2.7041156117863006 1.6994067297789464 4.7933698091386825 0.5825847226538741 -0.9926579362671614 0.5486266205408745
Ni 3.3748011385394854 4.1629910670134125 5.02138438931676 -0.2966258577247085 0.7585337966211001 -0.45437923461951424
Ni 5.227875841119767 4.410386891040675 2.831623938185104 -0.0385079262672111 -0.4945246964901483 -0.3189245212219088
Ni 7.311724545813888 6.042707838759887 2.45164437383381 -1.3402392019938145 0.1343951617848395 -0.02088867052355112
Ni 5.131082973087107 4.4466955516742495 11.60750610576433 1.5179260845877536 0.40620010381112626 -0.1741099638759582
Ni 5.525817238166895 7.934956720645122 12.486024255875892 0.8795864756607626 -0.4153956542674652 0.21874817141062328
Ni 1.7658305407532042 6.592089431123632 0.39317183195611977 0.64527181727045 -0.38735263208732 -0.020567539738706515
Ni 2.667281001523169 1.8321999431450942 0.30391727301054616 0.67746331440133 -1.6388532937931453 0.61845906795298
Ni 0.77507292607471 -0.1651255134383273 4.777018216517689 -1.1044664710007366 0.4095489656787011 -0.09354341787580019
Ni 8.378994229447374 2.2142932809213844 1.331375290115664 1.767072665784576 0.9927229851771419 0.3668478272657489
Ni 6.642743821308233 0.6766260371380639 4.885544295338005 1.6967730489280648 -0.34578277906533356 -0.7598769409125558
Ni 0.57510415648792 7.251866037112035 2.410275715040013 0.9334675419499343 0.12985459360200863 -0.054423054835570785
Ni 7.679082225865514 3.7001916653912663 3.76239518399318 0.02215005373447798 -0.058384096365847835 -0.04655213672792628
Ni 7.884411147625257 3.7191893287347573 12.627704204362146 -0.8603530813524473 -0.16328741933915747 0.09274560456485317
Ni 7.953310549097258 9.033030729995952 6.902156687561174 -0.22308202289928677 -0.7080604704618967 -0.20746334252542334
Ni 6.863960049119431 0.7781905378443958 0.290553618371261 -0.9663298398955938 -0.2734141954949356 -1.0404881683765628
Ni 2.0551300413008833 6.519272611721135 9.355884910099677 -0.4923978799551326 0.25771632514370457 -1.1667535019654165
Ni -0.09030555139498209 4.879352598664528 1.5251079293533756 1.4027314069907648 -1.512226463099815 -0.8198538356868202
Ni 6.315603151723615 1.9891233627914464 7.015208653624802 0.9588075633766197 -0.20386559787183597 0.8608266785547563
Ni 3.3272843099381055 4.375384036383934 0.49524505290759263 0.7304907744409549 0.2239240591846079 -0.6335565857160508
Ni 6.325206266511566 5.640746300322218 4.779965348062621 -0.23558761156546523 -1.0448981245188005 0.4988842590104246
Ni 5.281876359119999 2.9317792566081047 9.221717880028738 -0.04077923879989106 0.5476228618667085 -0.5392685763647422
P 0.1931776716975582 5.542810852059831 12.62681462404043 -0.0958700091264478 0.13845493367650993 0.35407767208427404
P 4.171197694853918 6.067382130863772 12.622580729522491 -1.8696879640546575 1.204208818598397 -0.11872583067869875
P 2.3004583391981623 8.472685808285055 1.4620919092547666 0.3253466226981687 0.39961730838728593 0.16052656876456872
P 6.5187375939945165 7.634648550264987 5.7343199938981035 -0.7061660816526613 0.8170690738528315 0.30240981139633727
P 4.885274066045577 1.0530146350530702 12.573846055485776 -0.9548683762232136 -0.5801560586077235 -0.037065023173097456
P 4.080861311928928 6.3585224551149 8.15508024276043 0.3539622295523323 -0.6143131641054066 0.19349531038110546
P 4.768567656866233 1.140739406024397 3.936086421915642 -1.3526226632598317 -1.0545371902704612 -0.8703459308991011
P 9.237398433467193 5.538158918267367 3.7667877702096892 0.06662910998345944 0.07232230371349481 -0.769306718866888
Ni 1.4002411396285384 1.0475647087192095 2.7327871210748205 -0.4464926327825859 1.068904514735727 -1.4651696188213283
Ni 2.0859706394064736 6.478547787818693 4.625729712385248 -0.9715412088932042 0.18327903196973597 0.9979590367651006
Ni 5.866940913420086 5.4605632117135485 9.154096173432679 1.3974976693956513 1.0349826651773013 0.654003540716493
Ni 8.373716596957676 2.4037530328237966 10.218278170016779 2.2849877161742067 -0.10602689505479157 0.4398800125620747
Ni 2.418398009577848 5.6012366014259936 7.102591557336916 -0.9529300215499201 -1.1970580664862287 -0.6545648125366016
Ni 0.6528413253558958 9.25399305108943 9.326540548009206 0.014428259610188055 -0.24441600849037265 -0.19409052076294314
Ni 1.6402918050361224 1.1823347672447275 11.3704796507267 -0.5451738861055837 0.09948086640615772 0.34948542472790134
Ni 4.014410296663486 6.934119916082958 1.6020189945790642 -0.2924107912020964 0.24452605170567565 -0.01970056375272091
Ni 5.658828085862514 8.070742406041509 8.035579046066783 0.49395956801529767 -0.8642164209625954 -0.3285450750308084
Ni 5.384218902554194 2.898608157557752 4.89654661750252 0.22672116231377082 0.9477937287646193 -0.3773014184989051
Ni 0.65442098786398 7.483365486990783 6.832756727131387 0.685409051610968 -0.6048023964014939 0.360295885079844
Ni 5.10006101304029 4.610900653260852 7.008174530734326 0.11085696945358328 0.4780022733550929 -0.1564086899414532
Ni 8.318383068689428 7.2344099502689705 9.178516558818846 -0.38002293119512615 0.7129072570312367 0.11364893037642362
Ni 4.606294059953695 0.20694485665607265 10.422694841212152 -0.04839201815014246 -0.032355276402253955 0.07400971871824673
Ni 7.9921310726168215 7.495299102723496 4.065077382183973 -0.13485770324355484 0.3082369596010756 2.040099396033106
Ni 7.415599597651449 6.072841125294693 6.964323026965136 -0.3248498855674083 0.1217543330923774 0.9054947108860922
Ni 2.2391126625782505 5.261237370208407 2.4766759489619115 -0.26091683435887325 -0.340461109742104 0.8246075483217218
Ni 2.167420287211359 5.395644704851472 11.52671933585463 3.139081189770187 -0.5519579989069526 1.022289385980349
Ni 1.0227181227711595 3.2758500634062298 3.998279058801082 0.20971640022565816 0.6340857187466434 -0.4943588603362455
Ni 3.4892314553564354 2.638571406226992 2.6620867955264385 0.24507832466471988 0.3618097506212091 -0.08215394509193594
Ni 1.0928870578317476 3.3154323070789444 8.331014927895865 -0.13960781633403052 0.6053137888202738 -0.2201244829328596
Ni 3.9492288149866304 2.613842705540739 6.880616329801685 -1.3934810920370906 -0.31455004630329697 0.9084807900976096
Ni 4.233957994615398 6.910162003646918 5.9001419371907415 0.5670210638876623 0.17562228675542657 -0.1517133413483129
Ni 0.7899056124379308 7.199225733671002 11.318334465385217 -0.7184695816103627 1.7442155586807444 0.14825315071385436
P 0.2091846766302217 5.651981672581209 8.232669601646306 0.997241698983102 -0.8591960849298688 -1.6896135550651483
P 8.379202795679783 1.7064798454867856 8.100997205076938 1.3179731915067625 0.6233675609981909 -0.4743199394074992
P 2.042044777241381 3.409622631255001 10.404498797648882 -0.9612506256004737 -0.18296047228805262 -0.1816607796400226
P 3.9701035744218167 5.900828392138284 3.74762325388027 0.17060477893617715 0.3861647824268059 0.014566327849949108
P 7.11432114088575 4.0442624721893905 10.576013692276627 -1.6405095984496456 0.9593433812754318 -1.1603154596495564
P 6.364897327349017 7.5171078761559995 10.09576364466965 -0.09414737000838624 0.3525761478380831 1.1059780225492564
P 2.509468908364806 8.444683524559663 5.912352129883825 0.12486716768974625 -0.009613868940680217 -0.04262374820779757
P 6.909536304949686 3.90334424385629 1.4129319414658728 -0.25597388853130115 -0.17434624825648037 0.938619775574835
Ni 5.110580005631435 2.7832075543552395 0.5631206662213696 0.45563573273443464 0.19016573178724022 -0.09532107860151326
Ni 1.2545530922411765 1.0767730493537604 7.070977450551994 0.996792270150509 -0.41520822084700754 0.03510789944672664
Ni 7.103403152023906 0.606458008887182 9.288170708913594 -1.7778000795044093 -1.0560405142888651 -0.24362153761353525
Ni 2.8828750091563404 1.7187943212960746 9.33593691018416 0.05798403271395175 -0.47818687856207315 -1.0549228557446542
Ni 6.296623624574248 1.8946881999947338 2.5577547115969876 0.3996224505936085 0.27735363975865784 0.43631852046306147
Ni 4.206935065372628 6.850929193642297 10.520815278654592 0.3549901565962144 0.24139856182028752 0.24316362414051026
Ni 7.89225505158331 7.317446515059589 0.19772622918352242 0.21389495708338002 0.06999314135968591 0.8269498233016532
Ni 7.597723259031243 3.8877199126196147 8.245264281654789 0.594749383040866 -0.10064557613822021 0.2120789869205638
Ni 3.153784408863638 8.409916440426514 12.610542830673573 0.11390192692749417 0.31226459270323 -0.234397447912106
Ni 9.394639236510693 4.921745952426255 10.312774995873509 -1.607192986575387 -1.2365509823745284 -0.7800737275754049
Ni 8.643229509717528 2.3737466996478482 5.928769012803661 -0.17877934432716952 0.28722384768451825 -0.2627950252181926
Ni 3.7472641572366414 2.698629413064195 11.522246043574274 -0.2506061964614845 -0.773925705696138 0.12751231862207715
Ni 1.2144358308418433 3.4186363197339653 12.550049555177429 -0.5298123160478488 -0.14544524895141403 -0.02651090180633499
Ni 3.2090725966465796 8.441464350102889 8.001137506618136 -0.6315007316282866 0.2835451132813504 0.7056919702297201
Ni 5.453054827346766 7.4649663180533405 3.5887828385151517 -0.0079490796437476 1.5940235390729645 -0.07750821878980846
Ni 2.9199725942342503 8.619516435902145 3.6105888915185376 1.5697363843908256 -0.9383508381841646 0.36416308134473413
Ni 3.6716090234539474 4.6473090629620994 9.60920945598564 -0.7043043458535742 -0.7215932148410088 -0.4531613030520131
Ni 7.388431578855697 5.985197967196918 11.632165888912917 -0.9976664452253463 -0.05619814445812257 -1.337149250214581
Ni 0.7048441415735172 8.886055012825882 0.03738050970622328 -0.43784729840276204 0.5405924373824883 0.1294226482709126
Ni 4.468613142271489 0.3590476759046209 1.8087054104688887 -0.07031864301990469 0.018524798277064873 -0.732642530676635
Ni 5.766892598542409 5.619690178945804 0.6382915636209884 1.1682653106242524 -0.23369965051413302 -0.6746304729382252
Ni 7.948921590119574 8.620613675646567 11.256114624208593 -0.25325057606286705 0.7582846567247715 1.1515878499685714
Ni 0.19883163021529882 5.007629899694131 5.84112041384765 0.33781878702325047 -0.9725069152405832 0.53907214408322
Ni 8.079103191532058 -0.0937106218415123 2.15979129715366 0.48450459324998496 0.7968170084720149 0.7724630051076825
P 8.588068275293447 1.46900451964462 3.751285858283342 -1.027217933630218 0.42732840114930914 -0.030152355213664203
P 1.7072869061252443 3.327801191470601 1.5333626181083062 -0.7594311116243889 -0.5563448151207386 0.8114303875098153
P 4.7816710571198575 1.0339625631272114 8.360280397541901 0.2112860587056232 0.28722461901546664 -0.6276381633490868
P 8.657965167442194 1.5838247646352075 12.413585576120852 0.3240785546190225 -0.6982365423929394 -0.5122897337830532
P 6.260514462076023 8.016333823673516 1.5509746762208256 -0.5032008841079075 -1.1680768487625304 -0.2899574445655974
P 1.8695877073289664 3.085773680903647 6.220463397785237 -0.6069657226013998 0.8426656913750132 0.1662418739817911
P 6.9826070310699 3.8722406709359207 6.061994774399634 0.2857650037508046 1.404593142789852 -0.5882432064912321
P 2.4919946853276196 8.397846803237883 10.32194646924134 -0.38344249839963634 1.0086298862153855 0.49898324648213416
