# total energy = -340871.52670471335 ev
CRYSTAL
PRIMVEC
9.17113476023657 0.00000000000000 0.00000000000000

0.00000000000000 9.17113476023657 0.00000000000000

0.00000000000000 0.00000000000000 13.42288275411365

PRIMCOORD
 96 1
Ni 3.078071269288441 8.562895915804981 10.217873952984975 -0.056787955523321554 -0.07904316737709613 -0.29998911776998655
Ni 0.6596421204188994 5.514410727197788 1.5274167240381844 0.23015152815155845 -0.0790267123168639 0.5007717058411247
Ni 1.7701665724398838 4.727527366239613 11.228067108029894 -0.5192399398486413 -0.010881679909510292 -2.0604453066793096
Ni 1.2619756540551013 8.656505688127826 11.856324688244424 0.24634407875102088 -0.24683644500640717 0.9540605356099376
Ni 0.6050922109669271 6.585113195050749 12.948357381282891 -1.490067924724905 -0.21696459714763922 -2.163016639085333
Ni 7.623936798536684 6.001627260425096 0.6235839699494442 -2.256945979545642 -1.9413312394232567 -0.5901311675425643
Ni 6.89644570617484 8.11196956275613 9.182137353453566 -0.12132213065096527 -0.6372654020262057 0.23192198978841994
Ni 8.340697663249099 9.009209188078053 11.178294442665605 -0.5002348595010482 0.021505735282259738 -1.1606851842841495
Ni 4.648499698158301 2.0854426715035106 4.876855450580702 -0.12015999202206401 1.0414312490161226 1.2064310230606963
Ni 4.293961971259454 8.44372619095311 13.442882391786977 0.30669249793209113 -0.8189482931534154 -1.1015099594755737
Ni 2.821178613999404 0.4679699898554335 4.7092703883065195 -0.03685882069956233 0.07234107276657219 -1.1048593355637812
Ni 7.769785354356239 6.12923442924062 3.356042860671025 0.47785443492331897 0.3323037707422922 -0.6349632362555903
Ni 7.296793251115484 6.902269376736711 11.465195967947547 -0.49930386304634644 -1.7463678291370566 -0.8337673604441189
Ni 3.42699626172451 1.2225948014682202 0.7709549341363545 -0.8569710522540919 0.2215938683895345 1.5866987232767769
Ni 8.560979148643673 3.816411814051375 2.6971270941237795 -0.5225659188980806 -0.286589556534629 0.3111798442794834
Ni 0.34743560015378905 8.790340057433918 6.164579982540537 -0.3002344010115732 -0.30194341328288 -1.570573021359508
Ni 5.012749656750094 1.4105296946238717 2.677717304553478 0.2391231355225495 -0.7249418195982675 0.1755955472825492
Ni 6.394005089273983 4.131825480136149 9.971000762402776 0.7708936037380336 0.32189903046920043 1.863654356266068
Ni 5.836262529872219 6.683556155383207 7.260839651582099 -0.6309065496877134 -0.9903287739133526 -0.046569363119106894
Ni 3.4855081013855025 7.473255054707514 2.7230869081276046 0.3121998009035655 2.0197563136003795 -0.5108020934939331
Ni 2.2453505768842414 1.0559461120513087 8.331045961045458 0.5148965752782809 -1.3687110841812622 -0.7543732374855073
Ni 6.857138222665904 7.5076009543204325 5.236938045545228 0.646433441678719 1.3274168534181656 -0.8422301464994915
Ni 7.487525340367782 8.855647707939548 2.8936920250726903 0.4190756742222137 0.4058406635891785 0.16950948898946935
Ni 4.741953561190512 4.863746230578911 5.421354891413426 -0.8831001452409758 -1.2753772112131068 3.7911242643261995
P 3.233998902190666 3.2867237558287608 12.158393436164507 -0.030018143628645078 -0.9831386839228166 -1.1413396898780022
P 5.15907511157629 0.4792541540433465 9.368661726085728 -0.47392758906508703 -0.24226785179911828 -0.7665039593107702
P 1.1447410386340249 2.897803444778023 8.023138868747914 0.16831444024010367 1.1099688888762045 0.2524887581961781
P 5.49925084146744 8.403987664111249 3.7695344759254823 -1.4921155512825528 0.39422313395490816 -0.37323187641522176
P 6.892282011001472 8.572929137213935 7.0737384145745965 0.04784565872836921 1.467498524064821 -0.11382582227392009
P 1.1693105086107958 0.8861223757863355 0.22858778213140107 0.5036418283000681 -0.4866339808881619 -0.6073470172002186
P 1.8009999274461936 6.609416702119969 10.136638792770997 1.0151718010989614 0.8820519064821197 0.6692609810961957
P 8.602597758107871 7.573486386314879 1.434973520054662 1.592632829373025 0.5748313039607003 0.4776230356388032
Ni 8.568692072962621 4.616877625564085 11.382403549054192 0.03847835858085631 0.8783227784569906 0.7542115150966624
Ni 7.392760005067306 4.414800842634569 7.93042695051642 1.1489678958472211 1.376024844233856 -0.12439948402470832
Ni 4.867708160787932 0.7670315226932553 6.973335582747535 1.0821603513043685 0.9357116007891045 -0.32297272314935344
Ni 8.603047143710283 0.4302656206995914 8.116414811766111 -0.08655593081437353 0.10475239921774217 1.5240946752923108
Ni 7.2916941001983195 5.281216284084927 5.6948858193533995 0.10667224194827434 -1.1635200826297831 -0.8101057551611208
Ni 1.7363067429683503 6.514669709088979 6.417640937733906 -0.31204219227977875 -0.9678830433153267 -0.6217773336929355
Ni 2.2944895168377837 4.841405346344715 13.313016372484226 -0.24312480048277482 1.0830180713189737 0.8019844116055672
Ni 1.6059298914604088 2.8867889119515575 1.1637078623962347 -0.7728916080046688 -0.2165272524999045 -0.8272439575033044
Ni 5.64502602820905 7.517716715942074 1.6109740155691148 1.1680835336307498 -0.23639159552399933 1.5363508669518444
Ni 0.9199748683500745 5.418288063955333 8.648457100277279 -1.2096860396628843 -0.33221841011733755 0.5279089283775489
Ni 4.795485474686001 5.798128951610399 0.12795108636839128 -0.0531434167921988 -0.6278212258941703 1.2617776181518012
Ni 1.3964611739279529 1.9674835364377292 6.041397886238558 -1.2460692062776089 -0.7100487045365191 -0.6611805180809065
Ni 4.052834496593809 8.185485378856836 8.149984833379762 -0.3598012048316126 -0.869853821754031 -0.3910442220062943
Ni 6.379184535529129 3.797473420806869 4.060301634501642 1.4433957174793464 -0.8386511708989816 -0.6534121869893973
Ni 1.953405844607067 7.849904387471982 0.8593830153293465 0.19757462265680167 1.1552820109907072 0.15053500476949558
Ni 8.330756153187577 6.709400413089269 7.214101714704301 0.7902666089480068 0.7496100117689091 1.1356094722624444
Ni 6.4694835282097145 4.160421078265141 12.435669855533565 -0.2331160100965211 -0.07390224660610498 0.5373978417045906
Ni 3.229881062691013 2.975473784917356 7.164906830828827 1.1829218841951628 -0.09885377434512009 0.5193882925010473
Ni 6.766087196936385 2.2543841446061976 8.529879830729813 -1.474456700550209 -1.8769839834954383 0.7658670970577197
Ni 4.031007195905225 7.559748026469712 5.717932880962816 0.5273378863654273 -0.18771958423959284 -0.8223881720728998
Ni 4.575864310992931 4.995865597688043 11.198711222830699 -1.5192615155697253 -1.3341464588325151 0.5568500368919312
Ni 2.6768524665472033 3.715749439111085 5.070010553632128 -0.016935342302757932 -0.5938096448354161 0.6945457238049135
Ni 2.870831137498559 6.938376134220304 12.011506707892034 0.24690689323302636 -0.873187257002638 0.24490657497354595
Ni 8.873384682532707 3.106116599332848 9.690704288362815 -0.4559144403171181 -0.6613466113451255 -0.949450804752068
P 2.890613275139431 2.3072740786696686 3.0975718530926994 0.6578961909026799 -1.270254802384877 0.03235681906415072
P 3.0199171038824297 5.653454301037961 1.6928942595484013 -0.29910414406187197 0.004166215562547663 0.9030670752812059
P 8.248867091066415 3.924695401963184 0.20359552284297308 1.3531283992516567 -0.5842788225268454 0.2233612447026024
P 0.18138028315475646 6.856156911248393 4.927848793979298 -1.1198900046446583 -0.6246862798096146 0.47133334597534954
P 2.4598083917169453 8.694409988021066 6.621843589696872 0.7003618162660583 1.2724039875173958 -0.11154448243891112
P 3.5349038331118514 5.685929289163286 7.233497747572489 1.7239550086594957 -0.6460490617561068 0.583906012568459
P 5.737672831383869 0.9574297826409042 0.6126849934207413 0.19761061810105968 -1.0101702341193117 -0.6329809157182388
P -0.01947031905960611 0.6884431519661377 4.210932937089726 1.0380134815838253 -0.3257153188914971 0.9204065950009181
Ni 1.2460270507368465 0.7996936019673397 2.4457967320564333 0.7304496367903742 -0.05559984875249134 0.34805280604643285
Ni 8.23876967171426 2.3219387231238886 6.739146071515047 1.6087670159307261 0.8996462225251152 1.652438745787064
Ni 2.0028474320071314 2.484882274104587 10.143578590431105 -0.26911145435452366 0.22403487373085934 0.7674218431393494
Ni 5.128104189548834 4.204864397230215 8.0772063765124 -0.7157007606159739 -0.003807289561232153 -1.6232986338879978
Ni 3.0449726440005853 0.979385479215891 11.940660609115044 -0.6444536922445289 0.9457360749046423 -0.3088612234486358
Ni 1.4159314929875588 7.8711447355370066 8.297126519198095 -0.7667171037628409 0.34667957984799 1.634497587927611
Ni 4.316917321521438 4.081356725644857 3.117746515300576 -1.4527082531295241 -0.02924115625330448 -0.5410338957952812
Ni 3.936865497767281 3.4909374131534188 0.7953712461629155 1.6498424458147973 0.042114155561230694 0.39822608446671415
Ni 3.051236529030124 4.266925466036788 9.170406555003664 -0.22765370143036923 2.204105438705843 -0.5483453418550298
Ni 6.026957934585544 9.059210214697446 11.287489641370877 -1.431910342547566 0.18516467902822303 0.4311765712508058
Ni 7.263566229941224 8.24778489716673 13.28383473884515 -0.33924857749124154 1.5786555412573262 1.1076502680453568
Ni 8.4791726267352 1.8293020492634073 1.2259551052380926 1.6309044712597136 -0.04114664944163881 1.479475493921039
Ni 5.23647031767333 6.224696770781572 3.9026498282677142 0.9663504087208843 1.3100351676066084 -1.4945719832428452
Ni 1.7406355185670945 4.144399105868942 3.105517724234123 -0.1049017803114129 0.5528396301809576 -1.4856767376357447
Ni 5.0763881607324794 2.059295766350926 12.24247439948927 1.1784005992860414 0.8588273887365403 -0.10387796703258884
Ni 4.9415999934131065 6.365152699372183 9.389386656378191 -0.0929849742691689 -0.06259273513055673 0.605200660281177
Ni 0.461825329577555 2.2683792962241713 11.939614182640856 1.3991490889561453 0.7192491400888645 0.42997612318480144
Ni 2.733429196777401 5.9315139353140784 4.151026167834307 -0.24062003178305014 0.3754965040796823 0.7859026755523562
Ni 0.941086820528696 7.623771718111309 3.040886903472533 -0.32738062240906196 -0.0804989259870162 0.6006318099635721
Ni 6.43168928193339 2.9831316824278464 1.3961814543182882 -0.9650442883149509 1.3502767887354745 -0.6072328602198575
Ni 4.286725945947146 2.3956471330542017 9.781240813433246 1.3482137355588586 -0.12994226821980845 0.0066732982551175385
Ni 7.739025368427875 1.4762592173276856 12.654905831567426 -3.170044213810605 -0.8933804441210614 0.8702487431996045
Ni 7.147854022887503 1.3270540261921548 5.200575413402302 -1.6708452733187094 -2.499772789172024 -1.708419889138374
Ni 0.151907924544323 4.344660004119323 6.678985261827245 1.6888792480022847 0.9350528841591832 -1.216397133134473
P 7.060654873750086 2.1172023111188736 10.856212444509122 -0.6477747861979618 1.0559158157855428 -1.8097694333221541
P 7.956546342264774 6.055039949168924 9.488045138377114 -0.35703726893323023 -0.8799279181605812 -0.2673530769025202
P 6.017612548282323 5.161230328240919 2.1820770840646304 0.5393691064983486 0.4152359887611493 -1.075957050707134
P 0.8265439331547202 0.6171174028420827 10.05039711010076 0.41099521120692445 -0.004353906093321534 -0.621180323538885
P 6.2929758689439685 3.1531553494302194 6.212969640785567 -1.251624331767883 0.7096635532829585 0.6756560859892622
P 0.39139101475052956 3.627440582669753 4.6822503911263915 -0.07163479072816695 -0.3164007263587906 0.25632047323744245
P 5.049168232814953 7.026098038038077 11.869707208061559 1.0449480039201293 1.039794484743648 -1.4122907685444257
P 7.337916619303554 1.9836705892593045 3.1161754999190823 -0.35112321744164043 0.056804153473237654 0.0432014750881385
