# total energy = -340869.003855681 ev
CRYSTAL
PRIMVEC
9.25081329904041 0.00000000000000 0.00000000000000
0.00000000000000 9.25081329904041 0.00000000000000
0.00000000000000 0.00000000000000 13.53950034968041
PRIMCOORD
 96 1
Ni 4.194374338771917 4.527033591676021 9.057113476232503 1.241930244408571 1.06093280938416 -0.5927169259918695
Ni 2.969566633418654 6.629114441395302 7.7854568761494765 0.8434833021803021 -0.8752533955030474 1.1727025204599997
Ni 8.768994115012418 8.577391266120602 1.8093508830585026 0.01865798142081948 0.24156002709881624 0.57242320873984
Ni 6.872438588479191 5.598814340368003 5.452939187611621 -1.3000744568494706 -1.7156107504598583 -1.4754236924491686
Ni 6.818700612947491 1.0619471339579147 2.792792838542555 1.0257356926577366 0.21564099324020924 -0.4822145116642276
Ni 1.0758603574386647 7.913506636402496 6.923816681490986 -0.6403399271864714 0.06635014529045993 -0.6421679815341457
Ni 4.0459727888529065 7.816696873286772 1.5337682242726698 -1.3099490356507053 0.29474946663760204 0.43288635485306093
Ni 7.7396560985875125 3.940800290347157 7.265999646877424 -0.08491633832842149 -0.11324629562136625 -1.196014969933695
Ni 6.191097673715758 0.7054096812875128 12.229946384184284 -0.445615115273639 -0.33786455265952137 -0.6591640018715099
Ni 8.126053327023316 8.426612257136062 10.717123851803313 1.7006970665728196 1.3202725290639004 0.13354798329319578
Ni 1.5497332781842912 1.466448204382966 1.4403729364140896 -3.085570876556873 -0.14265740179363173 0.004123278139754189
Ni 3.5949586282275816 1.1584886234825875 1.8334511023484295 1.7265523370730262 -1.4490927678641237 0.5857060418916751
Ni 5.603023460503469 2.495647458605605 10.758094779644999 -1.734263075453723 1.436582551212255 -0.5422405145088726
Ni 5.801157383715375 0.6019236060799951 5.995155268218341 -0.09719618413703905 -0.6378639548421531 -0.03449057757770189
Ni 2.0877605904452112 -0.3066117373756811 3.379892941094921 -0.07598046929137238 1.1544541157727732 -0.11748784450653961
Ni 6.873456177962491 5.949272158416365 7.750104892418302 -1.3916337544157065 1.0073481912894844 2.0367109391768476
Ni 7.1154852111585445 3.795534766199405 1.6777340091258435 0.23381303616354573 -0.6847189675224788 -0.019554525093159872
Ni 3.119503818376099 0.7942470933422595 9.7189379497876 0.48441434752902374 -1.0194148926460316 -0.09468858722383693
Ni 2.436349744169695 3.1275335244806803 9.339953398196958 -0.04463332243865861 -1.869579206390935 -1.533640667109533
Ni 2.85923218098853 1.9467781929408023 7.17066816375653 -0.5793150507636667 1.9004987787879273 1.0308313620130891
Ni 0.6053408565811845 3.463550822679673 5.138862968835264 -0.3148758050738319 0.5285815289645412 0.7686125210133409
Ni 6.164039044273475 4.855446721190721 11.176113138733662 -0.28354845571546006 -0.6512987401908203 0.5492776238613121
Ni 8.674080768661026 4.622390977074673 10.16372446277513 -1.2449086103106044 0.24633610833122088 -0.39308619213698753
Ni 7.709285677917763 6.626292943282517 3.3324094405601192 -0.6381102665250042 -0.09123559567822996 -0.07349909763041534
P 7.6864916734918545 8.63838187942418 8.413459450523742 -1.1546371783178568 1.088377278748358 -0.33541943355313847
P 2.16129530683383 4.758562951567121 3.5667242203914133 -0.5845909544506255 -0.6018880509681763 0.07546213489405713
P 4.709626148233897 1.0211973005585104 8.015479278523944 0.49640931510737096 0.15501618046930077 -0.3263238990097735
P 1.863160089854034 8.521997394975168 1.3326065098072748 -0.5263716657974161 -0.6619639332141503 -1.1419079036766464
P 6.061836056896262 4.514137957678571 3.459126158590017 1.1115886838678146 1.3950060133220492 1.0325871683619314
P 0.3200716709956886 2.862025926660862 9.272933104664155 -0.7449185198305106 -0.3053472967581064 -0.6606871233842556
P 1.7229270082418726 4.981322540274874 13.14720709491858 -0.9830003585727392 0.28215620335362374 0.23393773466686807
P 6.326390820927174 4.06789721681127 9.131323502005493 0.9584815474957687 -0.38471030936846645 -0.9671415371636118
Ni 5.557888741512393 6.480500122766147 13.330153032551564 -0.24890412616871327 -0.0063552527940664745 -0.5179826704027725
Ni 7.595704189954565 1.4300647549482655 0.49241432621269243 1.2766383373137176 -0.02641422832747064 0.8269325969104726
Ni 5.90540480087267 0.4591150979937377 9.749862494185072 0.9796232145703904 -0.9828995713288169 -0.5426318364100203
Ni 2.988799074653015 8.93326081005742 7.596336945596909 0.6039914704644244 0.13996160012902348 -0.026465393280380223
Ni 2.640616956721851 0.8416205091965954 12.839237338123368 -0.3341657636516955 -1.0724207554191014 -0.6768588480481118
Ni 6.383755115344814 7.102145538113835 10.547447281032554 -1.2578011500025563 -0.15958940166227997 0.12784964735683788
Ni 1.2301546755473287 4.009043541422618 1.6277999680989865 -0.08473841798966052 -0.07377343433772454 -0.97532767251883
Ni 1.5015457907433156 3.888079904298756 11.248698721658766 -2.3243898721209133 -0.8551658807245529 1.5642663624151898
Ni 7.929908328710588 7.443639317895677 6.1848034202208755 -0.8664959610253916 0.3526957041350829 1.9412438219157726
Ni 8.411468675461869 4.433137834807927 12.845547318001174 0.8209946341594828 -1.2480376428578892 -0.6616289184722347
Ni 4.870174016258111 7.844403059672973 8.895586872141624 -0.5556786422916494 -0.6943991709247203 -1.213240332673046
Ni 2.4757859620542946 5.8181233756460236 5.761341882477909 -2.180656463654283 0.07956510131883716 -0.9402583396195227
Ni 5.630146845640145 5.960289877276453 2.1095758588044564 0.09792457766263135 0.5947018176323822 -0.7507091583703587
Ni 3.7373193969411873 1.722353457805831 5.173186262106957 0.660821849189907 -0.40805309785946503 -0.9882677776192657
Ni 3.563311595296966 8.47274606398347 5.182500906204542 -0.26783978673095166 -0.06194815956802234 1.7881102031811655
Ni 5.22077059650874 2.308161221714407 0.6984475190590471 1.1188407374445377 0.5099150629032895 -0.6453067842734435
Ni 0.5927856525199653 6.418575177300628 11.45666533452339 -1.4067916931030675 -2.189177613751417 -1.15945388298021
Ni 2.9838683910657546 3.0494196554172137 -0.08193723027662736 0.27899657467871947 0.9595387851156894 0.3640844055879988
Ni 7.864902862354716 1.891513833184153 10.439876046590262 1.555990752669959 -0.3744716623595938 3.669264001783577
Ni 0.31308730681486 2.2145522400643336 7.082201709322513 0.46451786571541287 0.2763650505931434 0.5436440797246185
Ni 3.773138546753331 3.4163531722815432 2.4697405554421468 1.9208925119529305 0.49220067634266196 -0.5315552668808845
Ni 5.677955049728253 2.684299297995855 4.20647902821644 1.001722874682907 -1.288316287872278 0.8878353459331162
Ni 7.405673979355119 8.26091168600096 13.192415820417532 1.5572133122231504 -0.9781463729145476 -0.5772268007760705
Ni 9.022512658556273 4.611225245198831 3.351663158665495 -0.5675622811031128 -0.025547252341485034 -0.7849320841089708
P 3.4309694575871186 4.348428135729983 6.938668862540416 0.626033023645496 -1.3484536194838066 0.6294556761737998
P 8.903547197145071 0.5215016590521355 12.308475614773208 -0.20895406813833692 -0.20573736097325213 0.5730826967007098
P 4.914688930745724 0.6981126396109067 3.465692386001344 -1.6910546583870492 -1.128309081946289 1.2019891852392588
P 3.994899047604754 6.490453998075514 10.418902602258111 0.503413514339346 0.41710929452446227 -0.04033829460773052
P 5.2688840774418395 7.268160636907413 6.519987220124912 -0.12446633270690177 0.30821227701072723 0.030527993385528068
P 1.7603743012272957 0.4713474486643466 5.5928965949819425 -0.647431286815614 0.31635341806062295 0.4404178873434157
P 7.424018342494964 8.419359619364181 4.390684001564671 0.2142705952552439 1.8574518269997817 -1.0957938829274032
P 7.539764520813545 6.2559921303098145 12.242998356929624 0.5804334806388263 0.8484529874807516 -0.16469792653343895
Ni 8.943131428045424 0.9210563195070027 3.7660255962650675 1.106838313667023 0.14001944995015242 0.8624726987986114
Ni 0.40701729169284667 0.434789158854788 8.726844633532805 -0.23061098428648025 -0.4217575919297511 -0.42884895155889374
Ni 2.9271516535920323 6.74611873034778 3.6348953151216943 0.9453766346826943 -0.19837397862964545 -0.43994017637604876
Ni 4.380361943878619 8.553255893739433 11.38667923018744 -0.6863991834383791 -0.7567237399955548 0.5502736692259943
Ni 5.517064901605113 3.0542208276156906 6.750795016564216 -0.7663754041527059 -0.05861292454720229 0.4713546861315882
Ni 4.17022046476378 4.487310598573401 4.761340970856528 0.2937925020409714 0.06158126314690685 0.014865861368238914
Ni 0.7541577680256515 2.4657395786100826 12.947255386856963 -1.8464140811283816 -0.4575671454291927 0.7658814952354229
Ni 8.144406940976648 5.916681542510326 1.0856671448136268 -0.2123183566248795 1.095405903460365 0.08484717565338291
Ni 2.8901669012808364 6.809967845018084 13.040827365253097 1.2777472541071802 0.4036444272688081 -0.8315832083086065
Ni 1.87765611458431 5.307469220485861 9.561568661276674 0.3412632939284252 2.8612153862618017 0.2858709332010496
Ni 7.377375740905907 1.9911543452261466 8.446292437743075 -1.1192806531954336 -0.7345037522550898 -3.305649593853462
Ni 6.24974783120775 8.328581386640378 1.5739130544701851 0.41021565272842253 0.007080303885549096 0.4649796358431798
Ni 0.47755844483786763 7.782348602818671 4.611689636035756 -0.3603439647089601 -0.2588447823211929 0.227855275918214
Ni 0.8344770310238326 6.662158347162084 2.5630683123622897 0.21048361740898588 -0.3004228628732955 -1.0622535850781123
Ni 5.239753265779019 7.577433833322597 4.055067263589559 1.99206090456764 -0.06992834956002152 -0.6243695199001441
Ni 2.23448774312352 2.4508087656460336 3.6540944534275113 -2.300709240674522 -0.5949818107666462 0.28894520125099915
Ni 3.548131010368834 4.658173123632879 11.508345004054778 2.403616873374041 0.5235156844058597 0.6735539520445949
Ni 0.6930172915436213 7.242249108337214 13.485126360369994 -0.9861533023794243 0.7992929808163332 1.7247805898845845
Ni 8.330098520051845 0.4152902941920719 6.175068789191093 0.34159856578065684 0.6425693307376223 0.5621987027983544
Ni 1.7386996452330157 8.304390509378303 11.332833020137972 0.5735645214331347 1.3054930567618805 -0.5628291372935017
Ni 0.9558218016632573 1.367779027756849 10.824505444569171 1.092538609214899 0.20041517742939036 0.16190802249312763
Ni 3.3802287456244096 5.457443408697244 1.4788923986823712 -1.15451145137327 0.5411832768889518 -0.34959829615668175
Ni 0.5292649417283626 4.749691421435445 7.80209631436412 1.3133606324354155 -0.6961963720344592 0.2473578647275159
Ni 9.018201779472477 7.033310234975365 8.788056341278665 -1.6486011172085286 -1.9871644957072874 0.24051410233280515
P 3.2944089489283206 2.2773375111839154 11.215011884354809 0.1922814925786624 0.776652617708998 0.8860309457345257
P 4.557542774548039 0.17036113096861505 13.587972279284381 1.0624165930185379 -0.6528195477107208 -0.5303499337188737
P 1.5713061752302415 7.806132444287426 9.189191040676691 2.7274570867300127 0.6440960517947939 0.5743723620464108
P 7.66075591037786 2.445202772674401 5.592788360464174 -0.16590557368829492 0.09173516102246783 0.07321910449615132
P 4.666674621225172 4.44941926654072 0.0475695331002081 1.131257880161968 0.04509534967674169 0.28630185009088116
P 7.048435315022589 2.7012190358590806 12.368645680920709 0.07914086929722498 1.5361870876804704 0.4355932122612627
P 0.09577274692410728 5.925516069388063 6.180443511825612 0.2976699827185067 -0.31719159769120214 -1.2894277757689019
P 8.886766221484114 2.3069031110805094 2.118566724430082 -0.3877619517105967 0.9524823924895404 -0.09529485334926814
