# total energy = -340860.8053885854 ev
CRYSTAL
PRIMVEC
9.37670586794198 0.00000000000000 0.00000000000000

0.00000000000000 9.37670586794198 0.00000000000000

0.00000000000000 0.00000000000000 13.72375684968874

PRIMCOORD
 96 1
Ni 9.111551314129013 2.21233996663202 9.165411112248595 -0.31781431887686556 -0.3349404370341909 0.0815736471084337
Ni 5.528402596366051 3.1114535324555814 13.37113840137076 -1.0557579500514398 0.9311928869831447 2.890441630116771
Ni 1.5641939315658795 0.6439565229143592 5.657357618232203 -0.11467094388303475 -3.5473476891920392 -3.84724090481411
Ni 4.903679572390216 2.005105391729357 8.603889898381645 -0.3474318846329823 -0.18643634665179504 0.6783511163229221
Ni 7.527188088385692 3.6213306637836706 12.603953210822773 0.05463337107416397 -1.3914000411383456 -2.127578352882381
Ni 0.8583764674721467 8.446236530741677 0.6386446190782269 -0.1140407664982036 1.5257275829100434 0.28041608073406543
Ni 4.735902175497165 2.0625939749938347 11.66721092462075 -0.5172373075963156 -0.4723522741581671 -0.939621220256156
Ni 4.748035632803351 8.604093372897522 7.892807413980783 -1.0158269181844568 1.589666033435217 0.029726066309523
Ni 1.9863426034220302 5.288087003398296 5.966828291821745 -1.054612523593087 -0.2628557032527989 -1.2333036790818241
Ni 1.8983984797166742 6.413619884192881 12.0682188755785 0.7361155768269 -0.0644884094913728 0.23962295797710342
Ni 1.1528941083212119 2.102810666173307 1.1377835469232824 0.010700931357271893 -0.0681252349130117 -0.49245213023183576
Ni 6.310288586268473 0.9623875765671103 6.717230116656945 -2.4011205893147487 -0.6427379951050028 -0.0689983815465844
Ni 1.1667247493773372 2.7139374667380354 6.050351298742042 0.5212723968976378 1.8565709670567252 -0.7989690218180111
Ni 3.8336567899361476 7.631175755716154 3.8592167522784475 -0.1631454944446545 2.6658226017476667 1.3568174180674697
Ni 2.429570109918296 3.7416619293248616 12.382218498069811 -0.46331458943593107 -1.538203603889867 -1.5093244589616714
Ni 5.944109471337077 7.2551417229881565 9.144262889985557 0.38349752000728793 -1.151618703206507 1.7353627362758048
Ni 7.318350096791099 1.394147371869043 0.5888271188293533 -1.2699904929798966 0.8659915105851472 -2.3218910169584595
Ni 9.013874169802465 6.339834586246677 0.614533357782145 0.868354354390369 0.9402136024245162 -0.8850783520132693
Ni 0.027812247075643105 7.837369516274932 3.1461848507416073 -0.6863732152964502 -0.2418233080625319 0.4785159797667177
Ni 9.097289344606054 2.1660002865646493 11.6764329147758 -0.5330539629135981 0.9063071794850585 0.8378153052612475
Ni 5.072900981976586 7.355725646112941 12.855125153766652 -0.16919375752126345 0.3858832466306451 0.6548365781407497
Ni 7.384896577859115 3.3018569204458745 2.3680064103128067 -0.748040353288944 1.3303106300261927 -0.8385910070850073
Ni 0.012440075585872259 6.2207973061059905 10.48226067217847 -0.1318780517899406 0.297484606180578 -1.0538895293841335
Ni 2.456668789682501 8.771251907207724 12.149518665553435 0.09359792526281945 0.7180618046489827 0.333502933256716
P 7.537661868765145 5.2598256121147955 10.893355145566101 -0.8680144545524471 -1.2879820444613108 0.5269607055316667
P 4.011035933569181 7.226936591939461 11.00838763465928 -0.9643542042264618 -0.0849998991811633 -0.5623946208592444
P 2.464217037852115 0.2976522735982602 8.992135215073978 1.8789269661544223 -1.6834547345526039 0.2839672884204335
P 1.6377541885728655 1.673441930850569 12.744607548516537 -0.0584108358387252 -0.7097430003706422 -0.6563944095461728
P 9.30408321433608 8.91329024667768 6.329232344997754 -1.8733147621739674 -1.4307631163170005 -0.35787879099791914
P 8.421247609782643 4.266110461467337 0.6411660152680522 1.3727544010127004 -0.06691835908910411 1.015025248218768
P 1.113727608191425 4.049236633001489 7.63555561499569 -1.0507247585029065 1.3881218846077061 1.195129482004948
P 1.912801099826646 8.952588020688678 3.097616327705395 -0.042341698191004494 0.8601355660250025 -0.1671381605438154
Ni 9.427246245029101 4.934538311180527 12.320159708398041 0.08412032478968738 -0.6536736681809 1.0013516073864175
Ni 8.012010661814143 4.359155513128308 8.930213325306898 0.828097306642535 -0.3797977025581975 0.2642407565257836
Ni 4.0023906108208775 0.9654912661871627 3.641393063514983 0.4531196511808003 0.29731928424730736 1.1126286950965547
Ni 5.7701340719097205 7.787982406822314 5.873507565010232 -0.05515504790558888 -0.3293344037013231 -0.24472762619352043
Ni 2.4373433990271285 2.6069211234339273 8.628936017246062 -0.7412318150075429 0.12769281006399943 0.8863001402355124
Ni 6.60225107478683 0.907316308058069 2.845470145028818 -2.094013629553058 0.3828424029217923 0.4369589822605378
Ni 5.394587627883362 6.084806941877525 3.5771241842859736 1.6402110933726204 1.0978921602173288 -0.320648445891551
Ni 8.683289030090766 0.41411564799663686 2.041339795955245 1.7337059173986722 -0.14415764048824206 0.7018098615664946
Ni 3.7607341489236137 5.2514803439521165 13.323915435616955 1.075013198736626 1.3758255837388564 0.7820848444681627
Ni 5.224775485831544 5.340671569528974 11.347296476110317 0.34688758209373804 0.7637963305716201 2.0672579587257687
Ni 8.41959730956171 1.6185413183871018 6.734082869992657 1.4098492489824686 -0.34466974850681287 -0.4017585231000049
Ni 3.2765398147838147 1.4965503759191754 6.594072711987405 1.8009407792869305 0.9028480172918645 1.4600376969114015
Ni 6.751959559601812 5.514768866131741 13.523129176377648 -1.3486989027253935 1.026249656179678 0.6729795675983635
Ni 9.13315524429397 8.205236438250466 12.009907017544716 0.13535572592589593 -0.6611332097827388 1.3761397725451654
Ni 8.407210681198901 3.885472466191164 6.233288953573767 0.34202331202290126 1.3851910841141561 0.45812944569056585
Ni 1.4877644025838606 4.875877639690954 0.6439546475731991 0.2983194433770475 -0.05136575606648573 -0.5618613740635937
Ni 0.7886465947847727 3.9260829790142684 10.312470096549992 1.0646938190884891 0.1841807178483989 -0.37453516860767755
Ni 2.8848654367801436 1.4426249408589873 10.634717469463656 -0.639491206032931 0.6770740493827113 1.4101572671411908
Ni 3.1071121176698284 5.780139016999134 8.89251427963493 0.19161660530115385 0.8953123710364517 1.4766403384650892
Ni 5.9412683294794455 8.718883005310463 1.0949348144255355 0.05298735083030875 -0.7015514656987853 0.45866114982431977
Ni 7.907000933551399 7.029725715537814 5.127359951596837 1.6715304723111921 1.0189374387889807 0.09550696936007422
Ni 1.637210339636421 7.698519256777234 9.792010415055163 0.6070418272549739 0.6460130663118487 -0.42386281119821195
Ni 6.985420780629209 7.293089251363845 11.379945228037995 -0.08868506134223436 -0.5507341538021805 0.18470599422424963
Ni 3.3672875735235985 3.3933266855323176 1.094424721629974 -0.03146516048781677 -0.38386544486966795 0.5411153997654939
P 4.111591726576563 3.6788098703423473 10.404075823870548 -2.074500756331111 -1.1763547725006065 0.22937274100400498
P 7.130018960782775 2.2416327955536035 8.31316607269957 -0.47985835272722516 0.3419837170342175 0.4346447323050644
P 1.3112291624728956 7.238563707132408 5.282204995849477 -0.6428727209106542 0.17580303530766497 0.541615479330364
P 6.698071631364828 1.3688396429127836 11.954929516093681 0.9243722645168855 0.0248265721253766 1.3263038228596449
P 8.531395772824206 2.142183453830711 3.623250075461087 2.947874418312942 -1.6217166341128588 -0.8065591754604432
P 4.9622464768217815 6.063390545828582 7.589553496337148 -0.29466513445391185 0.2685365556876601 -0.1607818793084844
P 8.85673933399328 7.854031922482888 9.151481078110983 0.5250868855477215 0.11176456886951718 1.2300548331272234
P 7.898383740920497 8.391542205805827 0.3399309023833204 1.3242489972131453 -0.3506825303597961 -0.42576748442009255
Ni 3.4630237397493886 4.226137564638684 7.3272101461022405 1.3584279570876991 -1.995234931420248 -0.11101123564326043
Ni 6.607558290270062 5.23479918433256 5.127359951596837 1.5471803534671804 -1.9162429289960612 1.427398827830458
Ni 5.193119727048168 9.067977762272868 10.765820694628761 -0.40001582937728525 0.2803857417167622 0.32376436581271334
Ni 4.163210492009763 6.39554159540901 1.863836879805642 -2.0301132313546715 1.1604332161743434 -2.653304671786314
Ni 1.913879420993734 6.530144207178963 3.2844518791384982 0.1555612543394934 -2.455901284600054 -0.29060047746623496
Ni 6.538723892986661 2.9277263589954314 10.31735536027219 1.2113238323766236 -0.6002335460838889 0.8572590158081559
Ni 4.259462377054596 5.544061695053324 5.64060144496624 0.7669045371832985 0.4283347309266365 -1.1317864989719284
Ni 0.592744706512912 4.1809981029138115 2.716027534461025 -0.812075734403298 -0.7110550343138463 0.08910466537815623
Ni 7.244142847083862 5.821593433344307 7.4338711122565 -1.9959005900287046 1.1136036574153145 -0.6933794714109542
Ni 1.8205999516877436 1.954152372408011 3.588803809031404 -0.7760982878674247 0.4153501457415105 -0.2660608404536579
Ni 0.6367008279657288 0.48654882496637086 10.680829295580066 1.5283228544410452 -1.3547474229123184 -1.4887656609737134
Ni 5.5079707544261876 4.677391531300403 9.274390937747384 0.5450597291252226 1.0148545269688587 -3.505523039846769
Ni 7.288747836578091 6.719713068352989 1.9432013177032998 -1.3144374104393621 0.6470039694702083 2.04178732525849
Ni 5.277725743488452 3.926570567715908 3.7162426175695735 -1.4874040047394965 -2.741462399870169 -0.2247496404096968
Ni 7.9448265647516765 0.10559389703413226 4.699467109767139 -0.24607796957382783 -0.22880118477125108 0.05671827862765071
Ni 0.09373705254906746 6.177814486715293 7.17800519038876 0.9438272879177035 0.3972876318128448 0.6533167990621136
Ni 4.43598824045976 0.4035537265826574 13.390159986758187 0.38537751063882014 0.6910225411430034 -1.5893510732979597
Ni 7.006659019267937 2.3664367497617587 4.910758047599212 -1.9011986330684292 1.4246629169565335 0.5003513304742544
Ni 0.9410368174587729 0.7702926308503593 7.779558374330908 -0.7491377001181808 -0.04885893048423199 0.8144617181369714
Ni 7.469258799948578 8.32560521061486 7.650445823807303 0.512573326461743 0.29370919829854575 -0.9606088782514166
Ni 7.650069817904692 0.038470748559370396 10.562681864819872 0.060788334931966274 0.3418891004378822 -1.2013955175193178
Ni 2.5702206969297405 7.643299836316541 7.235356873748546 -0.6788265132974438 0.19814257934512972 -0.4463424803579668
Ni 6.008339906072304 3.6606190610888674 7.0445005908680765 -0.018097223821343027 0.22127659425943183 -0.5918743754859161
Ni 3.6005706371407813 9.078751597237945 1.6280352330103742 -2.199905284581566 -2.6142416443465817 0.8848780630770051
P 4.7881022966900115 2.505362022905863 5.576593238158492 0.9348675076212545 0.684209374875912 -0.9576271699152732
P 5.217705449657768 4.606888080384466 1.4917588792549856 0.868334299785711 -0.2540676726475238 -0.3979126669913534
P 2.285881470227404 6.9697804353535355 0.6221622456216459 1.2232725200980674 -1.4270468438076775 -0.5082710995419634
P 3.9147277882895444 8.962968034010123 5.890044323360457 -0.2934793416759269 -0.8068011162679203 -0.5838329932386784
P 6.0771180431209 8.191349536959535 3.699499571691731 1.0454575965666963 0.4318016064293144 -0.8048483634169235
P 8.521118903266569 5.503779366933247 3.671763275933074 -0.9078141030478882 0.9002841132194302 -0.343264383518854
P 2.4311641499044256 4.1218967262516015 3.8313979415087434 0.29924401207384593 0.36181232172437044 0.9373987586835404
P 4.424464269030622 1.5674570251845452 1.5337262014074606 1.4984090976007485 0.69827768004352 -0.02144531435796952
