# total energy = -340887.27787888725 ev
CRYSTAL
PRIMVEC
9.13763805422462 0.00000000000000 0.00000000000000

0.00000000000000 9.13763805422462 0.00000000000000

0.00000000000000 0.00000000000000 13.37385693897238

PRIMCOORD
 96 1
Ni 6.742525887100383 2.2574077366780925 11.428990059486908 -0.9143058814198189 -1.8373851381568937 -0.6795937304807714
Ni 4.990054879038919 0.4954856698133885 5.920111069863692 0.4859207568712211 1.0731100681766421 -0.38305374760165
Ni 2.925122345523761 1.6575400886890888 4.43966571234913 0.8825558427017317 1.4769311302326305 -0.3215377904750398
Ni 3.6832995688449834 4.33689652724977 4.853131945038016 0.43295320353525435 0.26843371156120865 -0.4686172325957671
Ni 3.8044555087774445 2.773254804858741 2.313102552990208 0.3385124706561654 0.2717077543267902 0.7657123166474104
Ni 5.2510715035332804 4.6171752922809475 2.48616027577329 -0.19901624019933467 1.3223900896275356 0.7002067787454328
Ni 5.830909449408101 3.2752400764576306 0.19068605367664096 -0.7728265590946883 0.06419273262782493 1.077158784324719
Ni 5.900766690586446 8.139935702164214 12.281801228951169 0.9864415230438045 0.06899812443626827 0.3545427846461507
Ni 1.7458005324486212 7.080993129806341 0.20379125384642266 -0.01980443632043686 -2.7222102365087766 -0.7616443172256238
Ni 0.8232317220583188 9.119792019139672 0.34822989495905643 -0.6401077565710072 2.078809153898478 -0.020392190503106814
Ni 8.365023134727478 8.961455030893974 7.325209293394162 0.16605084101690756 -0.1984397988705744 -0.8765245489059871
Ni 8.613274479179179 2.5528092923109904 1.2826383426802654 0.19491121689202562 0.30362440052972867 1.715620263541555
Ni 7.28238666748727 0.9064719475963493 4.5123126743556945 -0.2318651684085555 0.2448338127540816 1.0241979158569716
Ni 1.2887267507636049 7.815421632418273 2.543479764090835 -1.2077836804338489 -0.37940509510546916 0.5802128799875879
Ni 7.869562136536219 3.860816458887062 3.938493690516737 0.4161474448318253 0.20695709231296616 -2.6029943535675364
Ni 7.893923078979837 3.893775918524771 12.322150296298615 2.181802661443584 2.2865283211884493 1.1316363465473092
Ni 8.316081946532421 7.350845850078264 9.222437846128381 0.18974947018542804 0.5949972373856139 -0.7468352772372493
Ni 6.993609899278087 0.926720953018352 0.33252777811917855 -0.16840494307138093 0.0852302700244145 -0.8105179029978751
Ni 2.5393586894313933 6.671846258517716 9.002398044700097 -1.1701489008002106 0.9464400429502023 0.8320745461227282
Ni 0.4233138649737658 4.780839523379092 1.3692019270955442 -1.461218347483064 1.433033657518732 -0.26492801240079533
Ni 6.922564765182387 1.939819996404119 6.820639897818133 -0.3079803635055793 0.1543014137904633 -0.34776535671300113
Ni 3.600631359434849 4.5954551271689885 0.10053137759581739 0.3482525807620648 0.15960148584713804 0.4567924720466972
Ni 6.391293364351765 5.959128783379915 4.652992091266789 0.11429787681433218 0.25433378182471683 0.37275776499228064
Ni 5.26499726357982 2.9851566260393554 9.513278806722417 0.8611676068339427 -0.19803922099804605 -0.1987046224961868
P 0.24891656448541996 5.885132192266479 12.479547021612033 -0.14248899453656752 -0.43093154511953524 -0.3348599615052426
P 4.661090779671808 6.291729662601701 12.38990222572189 -0.5568166125508346 -0.1830859421223234 0.10386176908267275
P 2.873001259365321 8.541388682403504 1.2352788795928566 -0.5584325508877028 1.9870480247340812 0.41778446621461596
P 6.83852591009838 8.129171564805405 5.868487984966759 -0.36681260315243924 0.045740953680540576 0.352675906640741
P 4.887420930979381 1.7121740252496274 12.519668561777616 -0.8215031983647852 -1.316944493131932 -0.7156115433362773
P 4.471429968959223 6.512979287278123 7.9729316644407335 -0.8512776014137404 0.7981532107849352 -0.5501744246439686
P 5.027363854281714 1.1160984969583365 3.4992291649542313 -0.6537225191409645 -0.9268235542708555 0.6220627261438384
P 0.2913627197138888 5.944380635929052 3.4916065474799383 2.153705903207368 -0.5671449910600361 0.4607949083378709
Ni 0.5719348029192743 0.10475753509025611 4.590175400033234 1.8123654761841048 1.065707347954668 0.07275373482395858
Ni 2.393924045795746 6.407933002832571 4.462053838786155 -1.1408185272672096 0.8299986374303061 1.0663130998594668
Ni 6.137175656415892 5.8134291482473195 9.175040918725887 1.2419518416751256 -0.4960480751132102 0.023111389206482775
Ni 8.92938192212537 2.5442473256682034 10.12308637713834 0.26898521318930446 0.40230154008766844 0.4811752717664359
Ni 2.5062987157776 5.532465060379207 6.894249966851539 0.38609587686208346 0.07625480599868158 -0.7190069421710714
Ni 0.9205256345724504 0.282378594203549 9.228763832795192 -0.4944372789826646 -0.3906225610878434 -0.5530846563122281
Ni 1.3986982219972703 1.1150568062461936 11.475758317406989 0.4332401386480539 0.05289839066092825 0.3752769318697085
Ni 4.384156390084878 6.865235225463233 1.3897442506917557 0.5139743205743277 0.15700081499949736 -0.2590044478275088
Ni 5.965707882614502 8.315241283852446 7.962433432342656 -0.5909333517288855 -0.49663891461967363 0.012268790065024033
Ni 5.523766029169033 2.7194432557025254 4.7719796697431835 -0.17125758202882765 1.316008611581224 1.3079582304729216
Ni 1.5492042546262441 7.93595621297858 7.052021335315816 -0.466661394420977 0.09116154790718495 -0.7768837598831976
Ni 5.359215447201783 4.860163357344979 6.837558234252627 -0.8678121087336539 -0.1017552642626312 0.11328074840372748
Ni 0.8208175581447389 7.668753407676141 11.06760196605868 0.10309635167155794 -0.7157825216965028 0.6733960863104919
Ni 4.75177269745518 0.7884785441154023 10.34672458034243 0.33552304901053825 -0.8173287552721216 1.3424269536737525
Ni 8.749151153649025 7.352545450713866 5.177381023287008 -0.3920258691932732 -1.3470564820259638 0.1398135045869334
Ni 7.433166829251019 6.2057810412120995 7.1092211205778435 0.658430209029279 0.5767596313316647 -0.7178154929661315
Ni 2.512384382569592 5.456887657921904 2.3625718966515974 0.6913084478145385 -0.17926888236907834 -0.6138583359561751
Ni 2.562504326044179 5.6637180901091915 11.320956681236098 -0.06568911466769332 0.6591526890176003 0.4195598129474839
Ni 1.5238107591083083 3.4857529766887216 3.6447634088421803 -0.8182790350005327 0.41610887828440596 -0.13585323438760474
Ni 1.6610123910628978 1.2244069181077037 2.4055955505906574 -0.1438107986717846 0.054476276671009405 -0.10150843835914776
Ni 1.149487425573859 3.6923549679303647 7.874901258317841 0.06588914649364136 0.18979806403517635 0.7918789477404491
Ni 3.6845788381405975 3.2789134068636074 7.220425259154211 -0.14400491696046167 -0.29363386497592014 0.4639938748911428
Ni 4.158904480040749 7.522871019787029 5.866897122221285 -0.27374818179558663 -1.6869388364464624 0.4015127256377859
Ni 8.110795775137694 7.6753873327376825 0.0878611289865444 1.7263376499590593 0.5781881362480752 -0.19128904675840605
P 0.46974677158563705 6.19680788086715 7.803525341732847 0.09175418718586134 -0.8376193872003576 -0.3501492835641453
P 8.828328785409697 1.8077719921832884 8.091945742066825 -0.7647612655880506 0.5241306922820392 -0.3394308687053767
P 2.0014168129879275 3.9778056359709524 9.971012325858457 0.5600973401846354 -1.0987161987805207 -0.11969950744587773
P 4.477442534648608 6.418194570110959 3.7869413983567077 -0.8647735790176462 -0.6262806208799279 -0.87507856048808
P 7.221529999567352 4.167566960699621 10.148751260499703 -0.25044113163852993 -0.14567022047802652 0.6769305818263116
P 6.6387223213991415 8.497646810131334 10.227148537990052 -0.8597594136325065 -1.1633419051807061 -0.9654968024713371
P 2.687415835123049 0.0750702635579707 5.625552004438334 -0.2540249923350464 -2.72874032431781 1.3426524394209973
P 7.13108566036745 4.312690924649191 1.4801118337339205 1.8952516714563745 0.00684453372565918 1.2935561961149786
Ni 2.6819058395140836 1.8453368212852075 0.20357286430238572 1.1467467198261863 -1.454187665888528 -0.9242511655579888
Ni 1.4726948131107078 1.4291082806815776 6.991812525917749 1.18354434827051 -0.9200414983520153 -0.2688995954540337
Ni 6.898441401322239 1.194270988558171 9.147704761406183 0.6508927630016532 0.152025473272093 -0.2087013286975825
Ni 2.943525548104949 1.8077263039941593 9.371275346090362 -1.3280681138489192 1.9745619764519284 -0.2570339543646993
Ni 6.3977719495702665 2.4061593428445103 2.566576971223144 1.108102267981111 -0.02641757076158031 -1.301518388384849
Ni 4.680033102884718 7.4445980141711114 10.11519602687575 -0.8985409052760784 -0.2029582555662182 0.9514909751105486
Ni 7.580401587538351 6.399005530676751 11.195750026455455 -0.23526776633220126 -0.8260298825905452 1.1075654216410344
Ni 7.886000746984857 3.944215679323262 8.030519799310358 -0.7166294430778304 -0.11853582615507972 -0.4122913043105287
Ni 3.6391008146815236 8.332913475407569 12.6485924076258 -0.772692090399353 0.43198544030534636 -1.361778875837803
Ni 0.18497959885442045 5.0225574567853375 9.822268943566081 -0.30548742188039646 1.5712775036257005 0.46596025458889423
Ni 8.940767418856334 2.6229223873484577 5.698372581563589 0.12064027409259223 -0.34047139415474914 0.0606608082151665
Ni 3.4147718060578023 3.1940430267374524 11.372205122982175 0.9737217614842909 -1.3651948434978876 -0.19897278855590894
Ni 1.5268810054177817 3.610262429703256 12.472057813649997 -2.847065320013664 0.8068263130789007 0.5030026520541725
Ni 3.3374308395001173 9.059794289175379 8.167320288964394 1.1981718683756977 -0.6210383986443822 -0.821310879848321
Ni 5.964209310011068 8.186025947357617 3.856084076257073 -0.3451374321718508 0.11163601371145289 -0.9937038610331725
Ni 3.5880122815974005 8.504609690154604 3.26453167868956 -0.23711330418137228 0.1476599972145457 0.9150718130515659
Ni 3.9373167627647723 4.717835510570109 9.226088332439794 -0.9787629234526241 0.6774717990417624 0.08125920119180843
Ni 5.391608373294292 4.353636679746661 11.581866395367898 0.7401102998085899 1.7457273673395806 -0.7053993786899657
Ni 8.119988238790462 0.13182047703896793 2.36310736222819 0.8542238285262579 -0.4929588946649252 -0.11601331684354214
Ni 4.782301545431223 0.8450524011863615 1.2605343967796225 -0.5838299079148849 -1.367501123033561 -0.3804646467182351
Ni 6.671654368123374 6.000083676115213 0.2880631186949875 -2.072848822549985 -0.7805144146572494 -0.8982549986045433
Ni 8.102169845030128 0.09565370652439814 11.45924203703683 1.3520428794969617 0.43053045302637466 0.5102372221293986
Ni 0.42576640696621415 4.940538019660836 5.475765103906252 -0.030658605426121394 0.9590263642556449 0.8043343998949826
Ni 7.66908236263787 6.41083877166118 2.5350813611651297 -0.9480886342972189 0.21556951657232554 -0.4941071493367555
P 8.978112944650434 1.8602037580278061 3.5372782888609184 -0.04726587496549924 0.27728473419393534 -0.3149156571728319
P 2.0344493737282434 3.427527948462638 1.389570635573065 -0.39707140203698066 0.6446388116721414 0.002299594667454104
P 4.972474063862053 1.6779261586784788 7.792318028939486 0.12812655516730836 -1.3742880640484074 0.8248314914070698
P 8.81621227765267 1.85294847359411 12.728353934443543 0.5187401173940873 -0.6687909834383127 -2.2163305200171246
P 6.425166587772055 8.179876317100845 1.4351080536780065 0.154576778939037 -0.5118107372641056 -0.1257732244437834
P 2.02755959480758 3.3235324923670553 5.914574575105032 -0.428419577330959 0.5592581321127916 -1.4864683802991046
P 7.046251830792598 4.286886235429093 5.759104063845293 1.2080847566140356 -1.320761552885177 2.04775845524026
P 2.645994922858637 8.605123706238553 10.351285175381292 0.9062071635720845 0.4496872284604836 0.047680079684782405
