# total energy = -340865.6977054671 ev
CRYSTAL
PRIMVEC
9.29660421167724 0.00000000000000 0.00000000000000
0.00000000000000 9.29660421167724 0.00000000000000
0.00000000000000 0.00000000000000 13.60651997894461
PRIMCOORD
 96 1
Ni 1.3657920197005076 7.448522991921913 6.834541779692278 -0.13793171418318825 -0.982887744254275 -2.3560823181281876
Ni 7.218971239861545 5.130740104147298 4.889163194493778 1.2015299862146533 -1.3863786766643542 -0.07717886047484772
Ni 2.039758641171773 4.980023556099238 11.097300709701509 -1.1679655199956467 -0.7496051266729026 0.2810359737062515
Ni 3.667017655311689 9.16540127100035 0.4292772087159389 -1.023433526887121 1.7542562307461982 0.15043576018746996
Ni 8.081956418877416 2.6348900586307296 11.409747492848735 0.43955373957090754 1.1137980328143076 1.3848768953078472
Ni 8.111110569795175 0.5788037914204168 0.33668210075803845 1.6631324780554841 1.3066518529566722 1.1086979925835807
Ni 1.7295588472709826 1.9384442480908604 13.236341506265857 1.6288321621117174 -0.03037064187205737 0.7458076073036833
Ni 4.525428905038167 7.511646934757241 12.967544139377901 1.0373000004565684 -0.7029316338757635 0.9828849160407976
Ni 2.767515414814644 9.072481711554238 7.5336036546671785 0.846922409768838 1.041786318362696 0.44350552512980396
Ni 6.942341483895713 0.03544330369067533 9.730634809201808 -0.7060033308225518 0.14417898064448073 -0.6376006738784373
Ni 3.95762950406461 4.697899507023585 6.312609035090834 -0.6414861249757727 1.7451313856267945 0.4732701579867462
Ni 3.672298126523834 2.7940851097518116 7.797706236410536 2.5044730228611707 0.23576758878675524 1.5066106595749342
Ni 2.2861279503144845 4.140214811470476 4.049450204888758 -0.581102995902025 0.10091399930825846 -1.1602594096006404
Ni 0.5201301330380013 9.228850594984314 2.976480766431044 -0.8336781431644225 -1.7667260810784347 -0.4266036071681428
Ni 5.147632034063614 8.58308987079764 11.1427332146553 0.43759070230726577 0.4360837787444361 -1.3494334668985728
Ni 6.854302641679137 8.19927026786696 13.150850863273313 -1.1380522773759818 -1.005977536194203 -0.19393085525662732
Ni 7.997701294589261 7.069928080577896 6.026559030041787 0.07991117180434625 -0.5093447922221163 0.6061555679952787
Ni 0.6870004606251872 4.85156307861786 5.697893391125707 0.6285367639039562 0.8884138441444055 0.6834408721410036
Ni 4.992350853330408 7.472601196920956 1.9555286177150843 0.3137465765653951 0.34607691326698464 0.6495953843464684
Ni 1.5994621674421798 1.987613987951839 8.130467029497302 -0.7926937303322606 -2.8936791632174614 0.734300120884716
Ni 3.8947844593566847 5.628591854768425 0.8208129931714097 0.31435207135987797 0.44221971643884483 1.5683485029043636
Ni 5.295289999314499 3.7132775580434396 4.761846199334749 0.15479815092122373 -1.0385852949268952 -0.9663151846075746
Ni 7.978392247568793 0.817845517095852 7.855669634228501 -0.5179513029442048 0.6628895303522133 -1.1497510538701488
Ni 1.0931969899777583 1.6277517341649927 4.308205379869393 -0.5494791983491568 1.4492087246166976 0.9603772218565848
P 4.479401417412584 1.6628185253836754 5.690954405715945 0.6344698415589395 0.5296791329040942 1.0966107224017438
P 0.03442718484650725 1.2985031981626431 6.2054163991447115 0.4964594516190159 1.1601753345272665 0.28945659366977894
P 6.854367717908864 6.741460459332274 1.3722038876494804 1.2349126754401571 -0.4473333835163264 -0.9507273574716466
P -0.07584541608655886 7.498408570309891 4.460081214467021 0.945455567549746 0.4527296148312332 -1.3109409672503294
P 4.354306310668525 3.839441774275874 2.3467845743827285 -1.0491684697593802 0.4515265956620675 0.8491019339186603
P 7.143780304713956 2.356001227832941 9.555573243612825 -0.8030766162284814 0.1577204667743413 -2.69577312536317
P 7.047764976053682 7.958822895629417 7.629869991642114 -1.4312585678961802 4.848403279007856 0.384179633675977
P 7.768558593115749 0.7378305740046327 2.7279843942366795 -1.5962385444464124 -0.10927368412686342 0.4743158256424412
Ni 1.8632719061517649 3.5215072056418 1.5218076321692064 0.484650631909546 0.705729765446191 0.5021629297616965
Ni 4.970968663562918 6.887491518839979 7.445760041139783 0.5778263820332823 -0.9138399975269939 -0.2481942445858822
Ni 5.244019226893758 6.1538314015004305 9.972626347404733 0.4939505691542332 1.7011194988222187 0.6355628175128022
Ni 8.980742820847462 3.1193639957408053 7.803420859041004 -0.11095441426339601 -0.9596285166160183 -0.692159225850608
Ni 6.073369291744944 4.978917260193876 2.527505912637124 0.8070168318231521 2.420046479684974 0.7172794179570033
Ni 7.063792321775052 4.739278692525801 10.409803810409546 1.238403719312551 -0.4317224164519468 -1.4581304525863596
Ni 2.166871111037374 7.311900095911903 13.143448906972063 -0.8055021949508384 0.050736607122919074 0.4397933663855394
Ni 6.0337750542581015 1.7057967268163292 12.925146046050243 0.5868566105563505 -0.09229309040846685 0.19137543582462524
Ni 5.796720942570618 1.1133985110059124 3.96639620186928 0.27856360090635895 -0.15946290338674474 -0.8031866594437844
Ni 9.029968340333921 7.419815078007997 12.525509200654167 -0.8609575477056657 -0.8412469566506157 1.8430623910473292
Ni 0.6341325315948573 4.036613453744867 12.920534000683437 -0.7151099211095104 0.34566785075402406 0.5283876677861803
Ni 2.800536953099045 9.479654384352717 11.348491237806577 -0.3314105695040615 -1.601011026134391 1.1438118055675786
Ni 5.50821012637746 4.259852811521702 8.634044558673992 0.3023517044648922 -0.8945271561309949 -0.7587135167320739
Ni 9.183315827383806 2.3080772329410246 2.4182457119065273 0.19238896469080416 0.9778910623706318 -2.366115276884157
Ni 5.798068950186395 6.988192336040607 4.686480488027322 -2.0338719270661554 -1.6969291148899548 0.2630341378121922
Ni 1.056298767722469 7.646178094811736 10.867568603518755 0.43338977685204066 0.45140781069601615 -1.6287493725899238
Ni 3.388593654726237 3.895491001279436 13.082505947493019 -0.5167958491835228 -0.9177035942474583 -1.9247067434926979
Ni 2.0065325775939438 7.456276359863689 4.200563717938152 0.7872183090399861 0.2467734529789557 2.4746487404108866
Ni 3.1920448477417755 6.8897877800889225 11.126078348147276 1.8735153082205478 0.8559328407975646 -1.5038420956908616
Ni 6.515171815362508 2.874649482154013 1.8533440624766773 0.6558184824380447 -2.7124860672424767 1.5919702560883615
Ni 2.6560212400835574 7.67244100180876 2.0907774756174273 -0.6029170064533229 0.5076283237516418 -1.5265462221565969
Ni 6.854395607721604 5.806259258527768 12.485397142310783 0.6417882295972237 1.0391784484262039 0.8627866304946044
Ni -0.003004662492544595 4.703319427299432 9.312669708533296 1.315454795960283 1.344499005711433 0.6730201910283118
Ni 8.906249131018377 7.367865653477245 1.5422992072498585 -0.2226012266081263 1.4084246007208003 -1.5523665256538104
P 9.168320404733825 4.24730239578861 3.829173674885356 0.30841565127078496 0.3077775034661538 -1.933726944713437
P 3.8979360081963272 3.4213177016747425 9.943386667727902 -1.7293242433912088 0.4058085247996624 -0.683587425021197
P 1.9378864518360561 3.9346482983666817 7.3618619064547035 -1.1978209127941823 3.1935983469814615 1.5706038745974433
P 8.846388296273656 5.260009386198142 11.384330576838163 1.0923054101581706 1.035337991634191 0.9653795601671825
P 3.9500341783950277 1.5410887893769336 12.455081845522605 -0.021023139218886377 0.9676454733832238 -0.0545976327402221
P 4.696309787697394 5.575164270162441 12.263692653895083 -0.32510776721448525 -1.561599357105988 -0.8741905014561718
P 1.358559261596548 9.078106157123512 0.5186575509253185 -0.998339560032971 0.3498641482235587 0.16475937589899367
P 1.5021639073958564 6.969450381879191 8.86306919327357 1.582851581616545 -2.09564525161921 0.8044146183136146
Ni 6.007372698197376 4.097729330062899 0.07860836686868836 -0.7549224251207579 0.16041986798337535 -0.18008006541646407
Ni 8.00476671381678 2.5684286348708247 4.386578542650638 -1.3365298714630272 0.07067216970458151 0.9833669978835387
Ni 3.7227786875836024 5.87139126788039 3.410201751976922 0.6723020819153648 -0.20166704755862042 0.7894752233949629
Ni 0.8823751064932857 6.0922878813870485 2.7991601260101038 0.6210859640528659 -2.044712212214769 0.7758388635584509
Ni 5.228289372508283 8.826688791874824 5.896671523808535 -0.44223925682287063 0.5957981360203546 0.6699742051131364
Ni 2.731993089987872 0.25320324292448587 5.055964727209538 1.3187720332589739 -0.4874492777006057 0.18020090726504448
Ni 1.1353477936324525 2.825944572505371 10.896985848336696 0.34931521769862417 -1.3044363333625923 -0.7979416089947612
Ni 7.562852630948254 0.4611617723009643 5.345770560374267 0.28993893262283615 -1.6491796154198177 0.5472672782995027
Ni 2.526463763301065 2.7479088764582813 5.851919530285604 -0.04092424901818758 -2.214528948032012 -2.2780850755171023
Ni 0.17529584001600132 8.522689833006606 8.612246810696673 -1.193895609597847 0.6396436724503952 0.590130653321932
Ni 8.606415050852696 4.888108029911774 1.4933972095911856 -0.8049152120991171 -1.1515911924026812 -0.2481263674624243
Ni 0.48866484630450363 0.5464543976230547 11.995956959212101 -1.6470044621453699 -0.8046151643601949 -0.7455404696852257
Ni 3.2368079971898025 5.39367596205769 9.121362327023144 -1.2270579552824286 -0.09994315075455691 -1.8438653465645987
Ni 7.331432261434292 7.875153457408807 3.440816399421843 1.099962669593112 1.0182987767637173 -1.2145330833425405
Ni 7.397949464819677 7.30279872035435 10.771357116508874 0.545892509439163 0.24460292769019804 -0.3869620815171207
Ni 4.256041203780541 1.2550973529346396 9.864060603011366 -0.03476362873343045 0.14985751908649675 -0.1652777102963089
Ni 5.42513567082864 3.5858861900504366 11.323183092065692 -0.25929009738872766 -0.9039836735582044 1.500351823149416
Ni 2.2355265333995082 1.235091060595667 2.0634835752094394 -1.4826052977992725 -1.6636410422607864 -0.5297287551951071
Ni 4.006362303525992 2.2216931862803673 1.0369980876458234 1.3766858748566226 -0.03470063670597895 -0.4671807572595567
Ni 5.35168320067519 1.255227505394094 7.790889036516405 1.2395843698842135 -0.909311256418705 -0.6020250907666728
Ni 7.441048522107539 6.2097039930233064 8.429116722281949 -0.23931442559774913 -1.4358898960206044 1.7538363695999601
Ni 3.5906181616120243 2.1128671369680934 3.5788412233522613 0.5296878746548427 1.005223431636998 1.0088216905112175
Ni 5.802020006991257 0.40850952448915867 1.3790889527546122 0.8727082604836905 0.11142055526653714 1.0962343128989314
Ni 6.952855943298769 2.9115570010135485 6.852569754647545 -1.1992548170272315 0.6542709354452667 -0.9650244908206091
P 4.1304533770114045 0.013747818360071 2.9700995772760854 -0.5628689893925016 -0.22096574788723236 -0.9838341673279442
P 3.646193261799003 6.970036067946734 5.623289071706087 0.19890259743960584 -0.023811757707617055 -0.18471139354088834
P 4.236462555236918 8.234522991170577 8.873968532092443 0.35215474402994834 0.7293067814351827 2.236188692393633
P 7.5418887883718675 0.5913272470011929 11.701280635082508 -0.24473585372363657 -1.7794448141966837 0.6262556811792634
P 8.030183629827352 2.9181761832372235 0.2565686136618038 0.3218028712109684 0.5230408016519702 -0.10783438057717558
P 8.334480080031465 5.011436781848954 7.013044948173403 -1.1628281987690812 -1.0319361650414938 -0.541127741060668
P 1.746729675314701 5.504854052244388 0.7005223715020625 -1.4403479317919583 0.35749209708246177 -0.0325643070892665
P 1.3531579345291953 0.6425998787427831 9.868795363554229 -0.48878445157226147 0.6202714385713703 0.054848572408763605
