# total energy = -340870.2830671903 ev
CRYSTAL
PRIMVEC
9.17905672928667 0.00000000000000 0.00000000000000
0.00000000000000 9.17905672928667 0.00000000000000
0.00000000000000 0.00000000000000 13.43447735658740
PRIMCOORD
 96 1
Ni 8.6548681448861 5.877551832784586 9.706450233475383 1.3280177202269579 -0.2947888045159697 0.5982568819734921
Ni 1.1437838755807574 2.41664364402888 3.896293787420995 1.0559916633288007 0.6634497737310574 -0.06588194740478977
Ni 0.189454808789157 7.6684867306116695 3.409966260848204 0.8991433147467676 0.754700796028255 0.5559249539745007
Ni 0.16694500847066468 8.720562652442046 12.449796693185803 0.0314690171425587 -1.0151535462665162 -1.8674441623258033
Ni 7.781508453615215 2.079717195188779 6.521727004905212 0.7421165316053412 -0.42971412777266643 -0.14791299376561623
Ni 5.582757253398419 1.2612666200558964 8.140741845624586 0.8600458345246736 0.3231064205137403 0.13693823992166737
Ni 3.7154709633888054 6.268717326636297 11.266004981831209 -1.354088449172081 0.3665750332203364 -1.0078341297869675
Ni 1.5168849861894749 4.961087292068023 11.010574786356411 0.5139486095427149 -1.391546594018539 -2.2415034197383266
Ni 0.09616346778805733 8.724463751465558 7.01971560488852 0.16373401995827286 0.8494680590088274 0.2697992244501676
Ni 3.049420263755628 7.862256613873658 4.605553977744247 1.716741778740508 0.6949002789308549 -0.49728117618936296
Ni 1.9893126674650785 5.385637014504473 8.595190508882888 -2.1460761545762526 0.7133682558280553 0.8609254089161495
Ni 4.591777131804507 2.9020046159494925 6.297048484603523 -1.2932201529317984 -1.5249444248871156 2.4890227497443718
Ni 3.914013956044267 0.1979711374338975 9.32992166315989 -0.05445699339729976 -1.305343932778526 0.8758606900697432
Ni 1.6271346341221957 4.024740914916335 2.0007965850846463 -0.9804464818026342 1.162650021320004 -1.2511965002018453
Ni 2.401525737930704 -0.24318716988053665 2.5338500989025885 -0.6626208500718588 3.0538141529705665 2.4561599375780796
Ni 3.8343764616254608 3.865254807778626 11.85854612518228 -0.8407404493278425 -1.301346895803991 -0.7598188339811107
Ni 8.570888956730537 3.9139864188746896 13.479214113981968 0.8877317304757163 -0.07379940247965355 -1.0344769291854765
Ni 2.3585218581068093 3.995413829316049 6.980849643746507 1.4662250566690362 -2.1206967952711993 -1.8002974892759767
Ni 3.6287197001624176 6.752297561590884 8.964073843017948 1.3958439358423123 2.0949068307912886 1.3961668663993698
Ni 5.978328694382567 4.524788377278407 12.56706648354954 0.6922880381189884 -1.8569458338976408 -0.4661263478531133
Ni 4.808485477324748 8.421224440075553 2.81019661048298 -0.48255338306088513 2.1971385204697063 0.021675942311536862
Ni 1.4185864698534902 5.994731668394371 12.9651566576444 0.3507509217038862 1.2897090544547465 2.5992955645597107
Ni 4.568847848602781 4.859823940474169 7.8333077054022375 0.1543932021733212 -0.7989656793839014 -1.4876518590842445
Ni 5.793517570289869 3.1616984831805754 9.99447158705108 -0.6651909247918801 -0.6172550203425499 -0.6873692606611324
P 8.368215388638415 0.7660528488603705 10.85942326254423 0.351998163847426 -0.08126562894971166 -0.09032054006312831
P 3.5546997883374685 6.865732342138095 6.925365000764331 -0.17922028851933006 -0.2134748388268259 -2.677543746839337
P 4.101716482942628 0.5783062624906855 1.0363622949636697 1.5883627412427614 -0.03384600201516751 0.7590230775526928
P 7.830084020750338 7.578109740057546 0.7605885565104954 -0.2419847733410607 1.1368423162282808 -0.06416676448589594
P 1.1090778628562867 7.121525110345666 11.142810110479996 -0.1428414927799798 0.37369416076362094 -0.7761671934321471
P 7.180968680407468 4.596173899880418 10.791928742003552 1.5771061944923355 0.39732259881583826 0.971032644687902
P 4.248214225096172 6.036386226908957 13.226511016201021 -0.2155314642455385 0.2924804680977673 1.657179860016475
P 6.917970352827057 2.7765269132402848 0.7650817046799291 -0.17296196631444408 -1.2983628734750026 0.06995200370910534
Ni 0.8594451594832551 8.088098120637179 1.0673985208890813 -1.8808095278891157 -1.4861580481475374 0.8166103890488581
Ni 8.102683641456853 3.803690875659339 2.423216766407085 -1.2541121311867434 -0.8062786681055468 -0.7379480020499485
Ni 6.110396959677379 5.711768892870102 0.9977368251026351 0.5927236108600888 -0.5116366735800866 2.1848699875149986
Ni 6.598640155347128 4.603966918870918 6.030252781338342 1.5480221326421855 0.24848297947089465 -1.2490977086912876
Ni 1.5028593878178824 2.128889400998086 11.553892321181628 0.38641932163977327 -0.18051946694672782 0.01966996762510161
Ni 6.977597504019377 7.699310002425679 3.0356406640989304 1.6315297635485386 0.0456548217246375 -0.7184549263223434
Ni 1.1417277669189532 1.7054595234577967 6.396006975103719 0.1798995739745418 0.9485979698334694 -0.5576817887646073
Ni 7.7700346329578265 7.588261776575204 10.926139399091511 -0.4369360994424023 2.1522511730387124 0.04543859194877336
Ni 7.72429539428921 8.557193804393878 8.815918363255824 -0.5925868281719084 -0.07622600964327518 0.3240181336947323
Ni 4.059116481605874 6.243300519116048 3.1050168912274207 0.5191432663697769 -0.07951933568256628 -0.3037755813956123
Ni 7.0364077191808905 0.20861700719264947 12.98348172609273 0.6566538338551465 0.19212645505803685 -0.509939745493638
Ni 7.414483878426651 5.4992186599560995 7.740918665657635 1.062986349479079 0.5824119445214356 1.5285611957040965
Ni 9.133188780451338 1.6039758745073214 0.011351739205594527 -0.18046033157401822 0.5591401184776886 0.15792589791692802
Ni 6.143037684683519 2.8247812133970007 4.823313325236704 1.8071769900046297 -1.299701389780768 -2.5699968155955935
Ni 3.2116968040772145 7.506118399724825 1.1646001399702193 1.0363396934258282 -1.9892599447837356 -2.5780276563198696
Ni 5.54963921745293 7.50587974425515 4.8828275740337554 0.4656414377968948 -1.0213043963592605 0.9247389038276848
Ni 0.4479994581431959 4.76153460319471 6.056382801550654 -2.0926979960654277 0.4135323758064814 0.5726623213338397
Ni 4.194048612536769 8.717322445488401 12.294172215128546 0.7179288786155443 0.43754570800194326 -0.13083984033341337
Ni 4.7843262005485485 4.08718603646211 2.8975077961574485 0.4692258127140435 -0.7265788409810584 0.723475005244754
Ni 5.005816834518789 9.39311212409557 6.150814181372271 0.5783686276899975 0.04870312163265806 -0.3649292700867973
Ni 5.898810527698598 6.823655547023318 12.076439486900012 0.39408609415641166 0.4887050044845777 -1.3143844457142395
Ni 8.786697754711238 5.772084473301865 1.3333258854069105 1.1252342996757074 1.2454539412911132 1.8515550018993727
Ni 8.87792839752227 3.3223136142709717 10.416314405718039 1.2842043225864335 0.8969563343977779 -0.9349986338824801
Ni 5.653821509022024 7.206587427171287 7.632489224634003 0.06416136516925725 0.47765363176642256 -0.23070842909629297
P 0.8437673309369985 1.4568355983969627 1.908945438052462 0.41206041924664516 -0.5181451641225657 0.7043136018249548
P 6.299200973358849 0.5096836359029725 4.201256925626568 -0.33418787513888254 -1.542218895696847 0.6149045178325022
P 7.006392204341161 8.655730976199536 6.787272520671563 -0.14531232291797552 0.7426376942161339 -0.3614351408906098
P 1.7626725827838021 3.8157337978213346 12.874756719448962 -0.23281082015127647 -0.331717559221519 1.5191992948732223
P 6.281577184829099 5.719543553747549 3.308925042422277 -0.7346482482527542 -0.6473490115144529 0.6402378543909684
P 3.958761856608085 1.6360842142349592 11.088978615578137 -0.7014712472801532 -0.7683726370883928 0.509635841099974
P 8.351674728778722 3.684574259122588 4.476837903892698 -0.9444790625690895 -1.7804354602447274 2.3315015434650297
P 3.3661160720126206 1.548828102899646 7.831372760286576 -0.43900172372217944 2.841051252609101 -0.40389151028260767
Ni 1.579697269996286 8.02716754341818 9.141113977855811 -1.1309730019316975 -1.3720242077148952 -1.0534616978180953
Ni 2.290973181132628 9.14245962754251 10.94619655550628 -0.7871697151902379 0.18270387619255632 1.3552338756304338
Ni 6.000496115892642 0.7458469917298819 10.73229332966036 -0.09620065299298915 -1.211956580864616 -0.6792970251759592
Ni 8.180375175892166 6.027803809057229 12.541594601690138 -0.022681757868231903 -0.1876097981346059 -0.6447223725248833
Ni 7.7899807227886315 1.8206016085188284 8.978730960478524 -0.3774608268949048 0.31107597171176754 -0.02281082724692846
Ni 7.657949173719924 0.5737020477372885 1.9391996083618654 0.6439811234834845 0.39645999370522694 -0.43192964736674644
Ni 2.70683033703904 9.057534996564778 6.899786641849227 -0.764711900407354 -2.0909961828829733 -0.5226870178569772
Ni 8.329608276890433 1.2394571817503313 4.216236227971202 0.135014026315761 -0.22861812222616756 0.24838990553645612
Ni 3.1926686198990004 2.438030845734253 2.089894015159057 0.2378902915567129 -2.5823265408055396 0.8012907279726522
Ni 0.8509224054989465 1.1746071473947677 8.706360816185157 -0.3216568325514073 -1.2926102872619414 0.7220943228471435
Ni 5.652031592999471 7.912796499105324 0.6307838465549731 -0.9081753430420487 1.3103480708613369 1.369500669962093
Ni 5.483568368579421 1.8074296624041457 2.8537512336984294 -0.8108979120451132 -0.16264567199010052 -2.8083154529389764
Ni 8.162641238684104 7.234253103540383 5.6389202286578595 -1.1187049831976217 -1.4608918173815808 -0.7146437801063692
Ni 3.7376108477293037 4.147290498593777 0.6794576295949231 0.16080321946472306 0.48198388371066025 0.4879920375779531
Ni 5.3047603474546685 2.0211731726665167 12.858527229605498 -1.4840482008933862 -0.5778500361823661 1.2718216326513647
Ni 1.3923619053589618 7.069828663991734 5.7335260105534696 -1.1957113226503473 -1.1930831409988807 2.032002220847268
Ni 5.757214401729889 5.61777535404477 9.590134147084688 0.6298117739616379 1.015410913692961 1.304556146769908
Ni 0.4425324120763631 5.159979088871469 3.73974222465462 -1.4548312130097976 1.4474932845874877 -1.248888935114591
Ni 2.4070607090158287 5.27456125148442 4.660419952316578 0.9395636275453432 0.21117421571810727 0.3377560521061151
Ni 1.9440599187923358 3.0058013871444977 9.189061697524561 1.2806248327652914 1.2763303191549955 0.21007069824128335
Ni 3.6049275856472556 1.1820880784633854 4.468333508021441 -0.4606056751452003 0.5011794828025046 -0.4371531005492149
Ni 4.636433241803065 5.150111603106115 5.285123591828786 -0.9266024393989848 0.8671150826666292 -0.14087151353780256
Ni 2.2706691080973123 0.3782413822632277 13.492110688400874 -0.961443715447886 1.4332624857000864 -0.6719452127965782
Ni 7.318884004709285 2.4039398297970185 11.835894967393285 0.47579420996018057 0.5350385974437947 0.4741366197520995
P 3.234277283130956 3.3484647463132933 4.768621752738367 -0.41527686930141383 -0.5832115576045956 -1.275218059927423
P 0.07392628544838456 3.4616425132777797 7.804208260403794 0.6707704757621867 -1.162479557180411 1.0414340772296
P 1.9890740119954047 6.429617008478997 2.6752608079294733 -1.463595589465989 0.06471698056241112 -0.40575915961896575
P 5.500310967682683 7.78985221599727 10.043225227882807 -0.12340292443939394 0.22596885752877854 -0.12819546073203084
P 6.386805888842146 3.2147901461264468 7.698277358566514 -0.6982360281723071 0.8281052770623352 0.6881745301712471
P 0.16033608777200853 6.580254505125727 7.649322696396872 0.43079476243135484 0.17890121461701447 -0.23680168647822444
P 1.180270625271255 -0.0485223286072724 5.057019447631627 -0.11735980356910758 0.6676514705172308 -0.9152574466998108
P 3.8267211284828506 4.184539109975925 9.802143733569315 -1.2715676076590294 1.609224415183119 -1.3039249409438125
