# total energy = -340865.237735527 ev
CRYSTAL
PRIMVEC
9.30431442064783 0.00000000000000 0.00000000000000

0.00000000000000 9.30431442064783 0.00000000000000

0.00000000000000 0.00000000000000 13.61780464912888

PRIMCOORD
 96 1
Ni 5.2668280988062826 3.8140710634737927 1.3761332152946155 0.41486909234003383 -1.7177306250163387 0.56227403612098
Ni 2.6188853625320934 3.4720165547063666 9.491078930350175 -0.42464648344177186 -0.06516435251247486 0.3280642787396479
Ni 0.2467327385943877 4.214993969188462 2.7934342999005595 0.6658059326680597 0.1455375515549042 -0.7276322219462372
Ni 9.144801193295354 0.16279758833347793 10.029867583642856 -0.21036920331830866 -0.8891604925024428 0.10958555894032738
Ni 1.6931153881597598 0.4755407155768165 6.197094848308157 -0.41895946035932363 -0.8669736719927584 0.8859502130952612
Ni 8.883657002190837 4.441786631680804 13.11376862134925 -1.397925243851373 0.4934018957396148 -0.13071102806503296
Ni 8.943586090974968 6.474574624132174 3.2691313279586014 -0.5121974311795631 -0.09594045735306703 1.5937101215976037
Ni 5.193519405974399 9.038471488804584 12.395606743693138 0.21754720912398662 -1.3566024738431863 -0.5975058627400807
Ni 1.2902478807441307 3.668272457473587 0.8363601655427882 0.9858131454311859 -0.7993752561174943 -0.14893423594127897
Ni 2.2678521904085605 6.9379666964508875 10.370503184470587 -0.5244605648176323 0.7833680820559605 -0.4916314341027533
Ni 4.873134645348293 4.663108357330255 7.845570927469373 -0.08693336875845029 2.384223556449094 -0.05840183697766071
Ni 5.640768492880838 3.1554093457098764 6.457059252351995 -0.8359276013202313 -0.030283738585205913 -0.8502527596936518
Ni 3.2015587449288314 0.35888136128506287 13.430573081810145 0.3219643364894971 0.7144887425857437 1.0002779147062644
Ni 7.467558965431469 1.6367963733467894 9.316634201302525 -0.5115783095383254 1.0435300405266803 -0.5222129064340361
Ni 7.029977061143678 1.0391244362038912 11.93333677168608 1.4270566139996907 -1.6397128135799632 -0.32654424255069564
Ni 7.721631877623404 5.668476741040927 11.070049920389327 1.0565179681459158 1.5305013501496028 0.599158053631523
Ni 8.219849998586582 2.832679897865388 1.3918761151894687 0.3945748608673721 -0.2616405998987752 -0.1765710238219411
Ni 5.50775401480943 4.897204906594148 12.10966004180274 -0.05019950367252645 0.06598916240661537 1.432344087650875
Ni 7.718691714286067 9.132528802656282 0.6237612346045815 -2.10785722030437 1.6836359973254746 0.34934632804687576
Ni 7.092455532062081 4.7362030509318895 3.2514819740516585 2.642148398059179 -1.0186841851275938 0.31620403696695215
Ni 6.2267449068749 4.552424233719633 9.837419936742636 -1.1271780536656393 0.3628037391033622 -1.653286952719972
Ni 8.097870437344547 5.820983757693727 8.198490084113406 0.1751700297093564 -1.0578109759257266 0.5828202357034479
Ni 2.451454225648003 2.45209622333875 12.014580183803027 0.25919136702733425 0.7865971305162196 0.06962495938698976
Ni 6.716738013945022 1.147789523598684 6.601148655804515 0.8104561965220042 0.11390038426559738 0.030775590619959898
P 5.9289417171972625 6.603383552113465 9.017737754687747 -0.1797244818492582 -1.1224978745811507 -0.3025471083051499
P 7.95833363490772 5.902936158564807 5.950000171885217 0.9166885227193825 -0.9506435395085885 -0.739358766354546
P 4.425187734864955 6.952909425310896 13.404318167552876 0.2984875935237956 0.3907189774563916 -0.4671897561206212
P 9.060950712295108 1.6139449772819199 12.467385807244458 0.5933959543367652 -0.17703870748697895 0.11402379721733912
P 1.5452791373150074 1.1099674857307302 9.059462021997723 -0.3754471388989857 0.5892770470723852 0.130589157775188
P 8.19466321961769 3.860676374096322 9.608954358528605 0.8163777042127618 -0.15522906781105525 -1.2427000326950597
P 7.01349912041449 2.6890957186825437 4.9100085735831 -1.013415223419171 0.9011030095762997 -1.6574457120833521
P 2.853614605172374 5.162945428991842 8.084154947548447 -1.4049273862008191 0.9717443260429458 -0.40139882576774094
Ni 5.302640404772766 9.023407803857914 1.1428293936140823 0.6363683441332331 0.6948223745050679 0.5280135722762133
Ni 5.426825088517804 9.056791683776787 4.036126899526142 -1.8475651640136892 -0.9208755642175366 1.1990187897570252
Ni 6.617758717797596 6.852292569836344 13.28156727865051 -0.09889568332664904 0.4723044516393672 -1.1072959700297316
Ni 0.750768847326037 5.058783629746641 10.16974957614239 0.02768049663440394 -0.44360554104277794 -0.25685166315056407
Ni 2.5465536227078687 0.7461334379125525 2.8390803357127106 -0.07246371438736553 -0.520845079552232 -1.1551115468511137
Ni 2.724461417559811 3.5305313877079807 2.7798565139569664 1.047268681633506 -0.5503078648980394 -0.029499037900381452
Ni 4.8257849895770715 1.7506067465819215 2.9681907234792235 -0.1253011699033713 0.43202117863928824 -0.9769307553398916
Ni 2.7527930547819315 7.251103396191597 6.021112116097022 -0.5701490679936826 -0.9956609847595433 0.9972537831679599
Ni 8.296182593585032 3.2004887487775853 7.411204594223935 -3.9350409924482297 1.8454445181262606 0.5967299038060045
Ni 4.909895991379359 5.916408805756147 5.386345738469017 -1.5409734533255204 -0.48641029491313004 0.08210380858029084
Ni 9.587444644594255 8.67272819568001 13.234204596839184 -1.6047913191124297 0.9049768907094091 0.507058824401417
Ni 1.3720328039567542 7.957021726583148 4.06910883306472 1.5364688805869475 0.34827983445557437 -0.9052332296945894
Ni 3.1044496159674946 1.7121241023945026 4.800507958758899 0.3457251863545207 1.2369682724176052 0.377977104409691
Ni 7.639000261804142 8.130668145458824 8.614609726470075 0.23476562988480215 0.9303593353382557 0.7166114453557013
Ni 7.775736465619013 8.739077261371616 5.1019789091567205 0.9909959751837062 0.7244934192069394 0.4540061675508117
Ni 5.652845492918378 0.23908180089726142 9.94561422583088 -0.9292365345877223 -0.31786779782262026 -0.2850888036193864
Ni 3.9989198768372956 7.373762172381816 8.171840666927332 0.1703677232247066 -1.7600473835066786 0.5760219818346918
Ni 4.511903944687669 7.073409600569905 10.734684283214342 1.6466362801726737 0.3935587608980319 0.589954532755384
Ni 3.260203838331467 2.183806318806783 7.0944131598031435 -0.3121635483489914 0.06346485332286489 -0.5820368205702041
Ni 8.898878860481606 4.010140879953839 4.833694587213368 -1.1592739057589196 2.0623114133537706 1.6966660910365554
Ni 1.4375723942991567 7.604937166937087 8.12477665360692 -0.12120026036112029 0.41828840243422805 0.16336172422051864
Ni 1.592535749942643 6.251075688922795 1.9163658981757608 0.16447784010283287 -0.4762724351481798 -0.6248698565753302
Ni 3.4402423211715423 0.31463655521532585 8.635295078152248 0.07647592087055216 -0.050959264656686425 0.8806611967821801
Ni 3.560519192885943 4.9882848398510715 0.5484260621053814 -1.226318763123559 1.322780640197735 -0.5165040289747169
P 1.4499006108243815 8.486046432387852 1.5405004414603995 -0.056173718978090356 -0.7853648007710151 0.6683148151328425
P 1.3840818910512191 3.1812009051120826 5.71287320743471 1.2357315717970265 -0.3877740358954547 -0.7274820695216181
P 4.572233118989221 3.519831426195522 10.66493356019321 -0.8633782413320162 -0.8984838267858977 1.078616599817168
P 5.829497205331902 9.020839813094923 7.71798644725768 -1.1400664795925333 0.3927244379221946 2.2497540897828934
P 6.8237562376983325 8.257476645853004 2.5947909100689066 0.5420844485469825 -1.591171671446466 -0.5753853766919574
P 9.07037598274043 8.994648168175296 6.988834313481118 -0.5166582951643941 0.8291802552940687 -0.5326736967560439
P 1.5711730441751588 5.3043058770429665 13.145266516747624 0.4608183053766387 0.4879233891235467 -0.8554690137872687
P 7.047078390934896 4.932068172496047 0.9071818151466022 3.1062867689479856 -1.3283643049330993 -2.0308665645809283
Ni 5.836056746954757 6.061062981090237 1.99547117885309 -2.4917460622128056 3.839963654426406 0.5655020561399745
Ni 5.2685773099057105 2.3146715002613387 12.772819465127633 -1.554359644824439 0.41181333623284555 -0.14093527689620244
Ni 5.239091937703116 3.8199606944628246 3.9952186205854203 -1.8263875014948092 -0.14819118712766735 1.0342298461716768
Ni 1.113344951842924 1.207755829640249 0.7108170519013859 -0.663135070704116 1.4715703801413496 0.07513097680688352
Ni 7.351952859525116 3.2309882912452736 11.539714031017214 0.4423415867286898 0.1298957312525892 0.22106293558672896
Ni 3.2149662619196606 5.082621283133528 11.38584672360518 -1.2993031259010848 -0.4945624917066192 0.8499843365236136
Ni 7.06323068066153 1.0414784277366322 3.311128211679286 1.5919738556327874 2.35815951237219 -0.6063861959488459
Ni 0.3777225978613498 7.201241575543537 6.00733149610041 -1.2607458344531772 2.2373958253278565 -1.5987620821992143
Ni 8.76120292091651 1.8685947569640917 5.624684124649021 2.328042381271836 -2.98597148229498 -0.13672998056560323
Ni 0.3868957213875529 6.8567214234710665 12.003985361042822 -0.7610272524669152 -1.4780428752395705 -0.6861839821037795
Ni 3.3524188979401486 4.296499762970325 5.7667721700829935 -0.4234486064789288 -0.9927749214610001 0.9805788936154403
Ni 2.1713106246231018 7.52380354572957 13.269229757810924 2.650155070413739 -1.7076606423748462 0.20939681210271036
Ni 4.716319731147434 2.554136638910177 8.709716566981427 1.759582270944802 -1.1167514590156769 1.385968071489497
Ni 8.917775922944044 8.93634733440393 2.745103969395935 0.9182892915475992 0.17339648274870137 -0.12824174058893395
Ni 0.9891974853553204 2.838681180626724 7.75175831708531 2.536321277720019 -0.8431169199798189 1.3347784359895594
Ni 6.636069608455439 6.878419084555462 4.453989239962188 1.0185332613720264 -0.4559121263242729 -2.2206227196345756
Ni 2.048893760606209 5.4192420723154955 4.19507343214657 -0.9800854989187895 0.6149495121378248 0.07713592305205424
Ni 3.572093759948116 7.730489584892847 1.9619989079478097 -0.520139311734459 -0.7406556307890987 0.3696436448433311
Ni 0.9263989460229792 5.3079438639572025 6.730259043571028 1.3550091612141375 -2.891186221592279 1.2069809820268955
Ni 0.3298146832286083 2.5448416288658753 10.455165001682909 1.0698519662506607 -0.7187521458477879 0.49673507387790583
Ni 6.393292133894917 7.140335533751747 6.745347850166467 -0.833559615308687 0.2665223534711087 1.0443867321000206
Ni 8.534103216050331 6.980980541730974 1.0165103001551676 0.5454428234962542 -1.158040547572451 0.22173553617372135
Ni 4.231369562459704 9.016764523405831 6.424771420664573 -0.355425187251104 1.0043060620290511 -1.876319353328246
Ni 1.5812496166255878 0.15093737882049374 11.650726596924697 1.07812037690704 0.6262531100761021 -1.578307156778972
P 0.0722628878979705 7.17726435744127 9.893239309874547 0.15796317891276665 0.07260666772313303 -0.4349195832330058
P 3.6724221816775495 0.8275154843134459 11.231216462415732 0.7047568600099604 -0.5839330091516525 -0.5124722821075044
P 0.7845611866452551 2.002725752758537 2.817033762839865 -0.9457322182499003 0.8417424082297955 -0.15611661262233115
P 3.8380110643186254 5.585137997330407 2.902036117957713 -0.25350511527583436 -1.009106568741488 -0.2062495247229803
P 3.578364867825853 2.0865297121869903 1.1380832628597297 -0.4993174898931013 0.7098054781774614 -0.08447616546720936
P 6.356688961207948 1.8581087946818815 1.0317554192318323 -0.23718632351115282 -1.2082068840141966 0.21892583463906815
P 3.830874655205533 7.633017587671524 4.336017977345863 0.1404133429544614 0.7067114126331699 -0.5894305419311139
P 6.831878904133443 7.972513409990317 11.04203742114971 -0.3085120676393332 0.26555099069677496 0.8527277035967057
