# total energy = -340887.9656679754 ev
CRYSTAL
PRIMVEC
9.12507537027212 0.00000000000000 0.00000000000000
0.00000000000000 9.12507537027212 0.00000000000000
0.00000000000000 0.00000000000000 13.35547018114826
PRIMCOORD
 96 1
Ni 6.758943170187729 2.236145293061096 11.19426077678114 -0.6156092572090107 -0.3744071276702455 0.8146272971805583
Ni 4.583634753210934 0.5047462323537169 6.122561341114452 0.2217702460663987 0.015015499572225753 -0.3774310020982339
Ni 2.709344315575508 1.786306462953435 4.739241922372889 0.4998612782117133 0.12596425740866693 0.18575808963784782
Ni 3.7285969606728875 4.68886511994322 4.689893515913627 -0.2875130967901629 -0.8115928812296087 0.4688074942297023
Ni 3.634663436987303 2.6695133625069656 2.6233085444399404 0.7046177633289349 0.44417735438584793 0.13331375579520266
Ni 5.31468102449002 4.696402432024461 2.613771928391387 -0.5711685103971325 -1.1957293203724761 -0.815550580325776
Ni 5.664025401872856 4.59473084460414 11.468635361673593 -0.5249452177635346 0.27014683759757346 0.42053966036224993
Ni 5.656880468023449 7.818957526019857 12.473982304736344 0.9152988414607075 0.46308164748951863 0.7370082638444985
Ni 1.959235762289506 6.799741381223114 0.1750417542353532 1.2840868231719629 0.48937631951998944 -0.4997435216869265
Ni 3.002240978025469 1.8542973979623034 0.28350878512649735 0.2273017174075892 -1.1923472912741209 -0.1444558884549512
Ni 7.917772964915446 9.126717672415772 6.918467734115395 0.843560949495773 -1.333420122189452 -0.46754379702593024
Ni 8.973160907642018 2.584093533944623 1.1195052833304933 -1.4030828767929127 0.5346902129654404 1.3035295052776066
Ni 6.931188088886883 1.0799708952046145 4.818613651119922 -0.05610815584747757 -0.5677936803876287 -1.16359335906988
Ni 0.9450292837549912 7.554239095660541 2.3286598675594736 -0.5950576583099042 -0.22025483786313677 0.46085481504152886
Ni 7.584762472067018 4.134370802838283 3.5011763625180063 1.2688427525286985 -2.822214322408256 1.4024771248881136
Ni 8.031991530679237 4.029916067494501 12.593153048788864 0.2885433378268901 -0.764163998323684 -0.3786538187617414
Ni 8.02408921559164 7.585665854507748 8.976919526099964 0.5948419427546724 -0.5909114973520146 -0.9916500638279373
Ni 6.865770425072821 0.8470351016237019 0.17137347402148054 0.287975124028246 -0.10828920872640706 -0.6128779743207767
Ni 2.1262976382984125 6.552178092162505 8.834202438107454 -0.305496420741461 1.9440429819274647 2.7427098991240246
Ni 0.6440669673720902 5.081781731209744 0.9782628074836582 -0.7901434531065811 -0.7954034159539398 0.958974427971787
Ni 6.528918275582501 1.878989851342252 7.105176809448901 -0.029103088013543426 1.414142991261816 0.49434420504822607
Ni 3.1852808606375866 4.482081791767678 0.4149226425196951 0.4689956989811084 -0.4955474813277078 -0.5318512008547486
Ni 6.080137954193271 5.685889081953551 4.775114417837506 -0.3228827345387084 1.5608663355947054 -0.8030367641294814
Ni 5.478120245660849 3.3187624600617878 9.204415862378665 -0.009434148829706333 -0.4285234498986749 0.018655667427974323
P 0.4860133655600373 5.667228303253626 12.183260147696746 -0.27195535156122197 0.5036261445707843 0.7815695953946411
P 4.245897471430201 6.038983865226689 12.910973029020292 0.5841073299459876 0.6698898729294462 -1.867893848268712
P 2.361167947813009 8.798424843424488 1.1267396429164591 0.9042592958170944 -0.2389030490919434 -0.003017960890717383
P 6.387479610619749 8.109509044153983 5.50535129495 -0.18025412910048313 -0.34206162146000446 1.5355877635335746
P 4.95930497242716 1.4595101462882087 12.409061045010926 -0.15081165546964995 -2.2021328883605045 -0.8293008400323331
P 4.233742871318563 6.351207436863173 8.052506524651447 0.48405156487296636 -0.26493701126185987 -0.06067752038571485
P 4.953839052406986 1.0739300954494313 3.5591926778706946 -0.9220356459639089 0.9372776597246439 0.8653317655139613
P 0.009174350564745163 5.803903678983438 3.4958610062379547 2.1321001520121343 -0.511533572343319 0.2922866069194063
Ni 0.3563624726875366 0.17245205790526102 4.783087908511341 0.36441684922675305 0.9484694146754051 -0.4943496043648647
Ni 2.032984619723632 6.663504009100928 4.398223263565021 -0.5304057266574735 0.13419281596604632 1.2330331990292571
Ni 6.305335684039448 5.829408264052528 8.963670829476776 -1.0104895651319437 0.009006574373984489 0.19319037754617696
Ni 8.993591950922767 2.137557981044479 10.223732383002156 -0.10020154662226613 1.3967628481121557 -0.47464621239866644
Ni 2.469327463671299 5.597558354415523 6.7645988917712065 0.10724945460798303 -1.406662623724371 -0.6575534628512805
Ni 0.5730793576810435 9.184296896668352 9.209104325995302 0.9886614135132584 0.6429441975785379 -0.895718862446251
Ni 1.573290708444373 1.0864223233419479 11.49570763465498 0.15888466228577153 -0.6968823423578901 0.19201435496020478
Ni 4.578898839203472 7.208243620861015 1.3382178222612486 -0.5066515616606693 -1.3134063980716864 0.31003158960765315
Ni 5.7534420133547926 7.990070935399309 7.691428213121797 0.17599586804476142 0.13381434958070504 0.20407642833106143
Ni 5.177795772031554 2.731792000466371 5.287243748502279 -0.3856724161714196 0.6591958835507099 -0.9340331846454171
Ni 0.7292376813825955 7.537394206917234 6.259788783891378 0.16781898866092387 -0.09954051599949953 0.9495420789142937
Ni 5.1639439079403635 4.636131310600011 6.969231439731799 0.9069486697237992 0.5536261306379949 -0.29990735668945767
Ni 0.6692220620625945 7.452083879256799 10.685630912439802 0.2867523073647384 -1.038445426914921 1.3266066988120442
Ni 4.686054596794283 0.030172973520376324 10.541566050846324 1.1042381570400144 0.26765672418586806 0.15041544847249577
Ni 7.979029594457057 7.4418364198533675 4.172742656388919 0.8694342177181091 0.4615703530513147 0.6815665379364262
Ni 7.496121491973589 6.485747545005806 6.7067167150233535 0.4247223309850299 -0.3343593677197403 0.06982344855104104
Ni 2.6365444659579067 5.464688135026966 2.5497996764824933 -0.040744271796897574 -0.33145530669906786 -1.6331107348824134
Ni 2.4555303500310615 5.253953649307626 11.38532433798047 0.246584219786285 0.5464154718221685 0.942456632822422
Ni 1.3790361084619829 3.9965274174881324 3.9407449205343394 -0.5243505216023292 -1.026010543585678 -1.563348735696927
Ni 1.6484630776032856 0.938002975882648 2.721604766558989 -1.3005560244715797 1.7239704352784635 -0.6136048251844722
Ni 1.0181850113037896 3.4951136625824417 7.9923138788733645 0.8062321311383276 0.029039067544827407 0.2904881202580868
Ni 3.604888316743854 3.0814557554797686 7.6264403403477194 -0.9389339643811442 -1.384388899927835 -0.7689501068584176
Ni 4.214297336154975 6.913923446686269 5.897802527383419 0.8728381011933354 1.0911034194302693 -1.2840677970085692
Ni 0.32014504938191346 0.3227274456518785 0.6466064757888086 1.0419755515553668 -0.38477484405781476 -1.052265363517149
P 0.5159645997540527 5.919536631396857 7.7482162933581 -2.514409565248592 -0.6990855206567961 0.014726507576897217
P 8.673511689574482 1.658929538810529 8.042396853882916 0.08409847041281646 0.6840921325717573 0.04858459377692278
P 2.034034003366904 3.069748284050916 10.182557306362709 -0.9368742536386382 0.5527169885601643 -0.3020951083693959
P 4.337677477378288 6.397635819271591 3.4087703764140196 -0.4041326797591363 1.277932887755425 1.2865838785622037
P 7.338650069956672 4.110508731297792 10.091860446835984 0.1678747815995238 -0.3598870796771996 0.7429356850725269
P 6.40453437609171 7.586852114278403 10.334101992063928 -1.2589854001186447 1.1770949931007406 -0.12290850130147865
P 2.4836447065955927 8.88983072129106 5.607521111473996 -0.4340986299936072 -0.9073680166494051 0.021534531637666138
P 6.85331469748094 3.9083883165284417 1.1814526810616308 1.9257030459676965 0.7562372872774394 0.5334164884593394
Ni 5.1791645333053875 3.0535969010196857 0.3204178891291642 -0.5399326923113024 0.8417547495249696 0.45384393094133446
Ni 1.6909859278436998 1.373269060961566 7.031935306193609 -0.21679927521436854 -0.6601808731717985 -0.14819298689988025
Ni 6.717287202087409 0.5751480122195631 9.234639936319931 0.6912133169975708 0.43618790842246813 0.11457581306606719
Ni 3.00854640496026 1.2236178283558163 9.450237174591443 -1.460072149693763 0.7203488009109466 -0.9338092415600692
Ni 6.435632632233197 2.095181132006607 2.3367802719433675 0.44147461074270417 0.3996075381952731 0.292062149613426
Ni 4.4350694045490915 6.677903377701652 10.758405211846961 -0.9096820094945625 -0.44178288601174237 -0.8378266181151571
Ni 8.645087080454548 7.2779226947742774 0.2839732514520847 -0.2490949020232807 -0.1721710949820325 -0.8002615153771895
Ni 7.877622634216343 4.164611301914834 8.01125205985812 -0.26514089974254984 -0.10084920750859407 -1.128171270816844
Ni 3.312548283878586 8.72624549891769 12.509868487813701 0.5957459426261804 -0.06196769995204812 0.27095442110053336
Ni 0.5077839698741103 4.858701018800429 10.02092941261092 -0.7960593043703839 -0.40210947868152036 -0.47430965499485406
Ni 8.737140838657401 2.5112480589512263 5.818123283603533 0.029959265366251625 0.4074918260393563 0.1296779588148283
Ni 3.7539464194642758 3.1330489304281164 11.434793195431828 0.46119214377628953 -0.700041199701846 0.06362451882918076
Ni 1.367310386882813 3.219180514852852 12.616311577034603 -0.875916483008343 0.8284906854262118 -0.9505949456588403
Ni 3.2779551239512448 8.310808202159034 7.722707145751431 -0.6889173218745426 1.3042789818491214 0.3809593269664665
Ni 5.8978645778945 8.222386223869417 3.3562829441001 -1.0477811024935504 -0.45821352076393995 -0.1233882691513746
Ni 3.218140256284739 8.510902850243113 3.4086234627039613 1.4540855930930248 -0.22628895987235867 0.1637111371401374
Ni 3.4118473517575962 4.751326259405802 9.298305585703485 0.9919701661715175 -1.04372930102168 0.39581413259111187
Ni 7.674845214035552 6.063247440074171 11.16405130296013 0.48166121026391884 0.06814451818672135 0.2798445245013116
Ni 8.003941049640817 0.2183603110296224 2.395757457710287 0.28140184168610244 -0.0014315902402039862 1.268927598933021
Ni 4.771948929264888 0.35494626102287735 1.3164955808455177 -0.38270073513760544 1.2850149914131868 0.24470911425075922
Ni 6.731367193057571 5.845468396332169 13.502913917054755 -1.8551871993353213 -0.32053763134529956 -1.6469746373486989
Ni 7.819422904852961 8.834359389400186 11.374973765227743 0.8724308384525878 0.35875502295528533 0.34422803298370397
Ni 0.2070424803100546 4.952698418012125 5.744628103258823 -0.9181928751790508 0.4652182342165472 0.3033912014730001
Ni 7.429426317637282 5.92894458388567 2.24075436852385 0.15207098179804776 1.686759630556121 0.45868248998055844
P 8.903162456098196 2.0755530953398407 3.6190385707927404 -0.698557673177784 -0.9586844075351941 -0.4099919667533906
P 1.8541240215342847 3.2281048383582442 1.5394184294545836 -0.5116521001990544 0.17836128295314443 1.111625450643021
P 4.810648373013729 1.2836151975254997 8.378714273968924 0.6974366721994633 -0.5649765226538077 -0.8163810466468715
P 8.708570228334926 1.6001731798624546 12.43792274523097 -0.5984702835358789 0.7702413148660154 -0.6841265853541186
P 6.769035503313457 7.85492857229619 1.322864883306421 -0.24072416146108216 0.750875508744894 -1.2472699114539292
P 1.9930989162041364 3.486818969263013 5.943157800953152 0.7306720372138255 -0.2512281463161996 0.9416531630845203
P 7.01083174487365 4.082065872027541 5.728722184749367 0.2839644602069561 -1.1202481593150255 1.3415972586836058
P 2.603776321062343 8.382951046365196 10.424932990195492 -0.3989349376082807 -0.1927967416521841 -0.5221491430756362
