# total energy = -340886.27575940324 ev
CRYSTAL
PRIMVEC
9.10063068231013 0.00000000000000 0.00000000000000
0.00000000000000 9.10063068231013 0.00000000000000
0.00000000000000 0.00000000000000 13.31969290940573
PRIMCOORD
 96 1
Ni 0.3601156040196946 7.558574477300646 11.529299856871383 0.12014559384436083 0.11993167806134182 0.14587050941429072
Ni 5.028043955260932 5.460260217459631 11.530419234469143 0.5505536623602583 1.5659843735475611 -0.13747174382763422
Ni 2.1344164625265116 2.3781131561267634 8.184352057603151 -1.3070406037546587 -1.1652393793137352 0.19558227481712123
Ni 2.4130777799527454 2.6321117638787617 12.797867736836176 0.3720820790814947 -0.03360997474496147 0.1760226075176388
Ni 3.63835941921845 6.897113323332946 8.102035941265724 -0.1411589628712343 -0.7710733238490075 -0.5541856026858908
Ni 8.205028690953654 4.850781867056224 6.1723591017481345 0.5978460196883187 0.6003893549354627 -0.13518346201408976
Ni 5.009424064488428 5.180952755241193 6.722542291678301 0.5350465678635946 1.1097164065457663 1.9612176939345385
Ni 2.920028422905991 6.728442230675278 12.56730325359014 1.7698921375112422 0.9914186645434215 -1.5053898997939559
Ni 1.4517599392483713 8.244334315707539 8.891840562289822 -0.21432253153910188 1.4731801478306308 0.6921836513306402
Ni 4.367993399079028 9.039119712010127 3.4877084857585507 -0.3047893673721073 0.828832642146663 0.5130764913504067
Ni 2.577289563481125 1.5861853579192695 5.7931212521315745 0.05740090651697211 -1.3319759335437575 1.4450134555884275
Ni 3.408532087073378 4.748581782317601 0.34129458930482875 2.6656197417082415 -1.8574610829711624 0.5621305685645803
Ni 0.4409328464518282 0.7331186114230369 7.152701811298999 0.29549868609880076 -0.23170550290223965 -0.061502587390171504
Ni 7.107073978275489 7.1020504300318805 1.4339581951916287 0.08339167415377896 1.1230627459456852 -0.2801821103463884
Ni 5.701536143246838 0.7385553283084201 5.885026703223152 -1.0691523690804747 0.5700547085076634 -0.39879301271377765
Ni 1.7070963397391565 8.27474862409547 0.33363458829641396 -1.4767886911174952 2.315346273861406 0.2764352417094465
Ni 6.67600439556718 1.6889405811413338 3.7883469166874826 -0.7763363720201598 0.6726275835755835 -0.41808734216701543
Ni 4.203535898516994 2.8132507208366895 7.117218451513079 0.9230710292069587 0.47793491045226727 -0.32759299553018423
Ni 2.2996202148203864 2.8200670933628897 3.8373374328197127 -1.1434513369043664 0.5116736974656091 -0.7569212007183416
Ni 7.3474216397133345 5.9608859219539845 12.723743098350328 0.45447462254679794 -0.7347387510840314 -0.6159866951530876
Ni 6.314791255463827 3.755302525976357 0.6422833945224907 -0.15081268391091446 0.9866448973038622 -0.6421414991715845
Ni 1.2545674694249997 5.127586655783732 12.777182002854797 -1.408542357245587 -0.3885479379470018 -0.5386294001188465
Ni 6.317694356713304 7.707897628715723 3.559142067694335 -0.339883382861763 1.8570548486716794 -0.004640069875172654
Ni 6.397561493281972 1.7856074823072858 12.57075330275527 0.7819539753172533 0.2782154735383209 -0.29813098151532524
P 5.347439696488596 6.147630867531592 9.32539734741657 -0.35571957856307124 -0.08122423418881496 0.245400483890829
P 2.999922861367288 4.843519563617093 11.345461652795603 -1.9427242631160413 -1.0195151656693215 0.48262794505256246
P 1.0894365221781344 1.3735491174991534 0.6837449587309224 -0.4154283072776136 0.9438478567429939 0.2586704615268578
P 6.455669021425882 3.556899672246464 7.006611203971114 0.889618663085784 -0.05539158939642718 0.7492940231903868
P 4.555657508375121 2.504866742969108 0.31162653264873724 -0.8025364274542953 -1.301451025482023 0.6536780390562742
P 2.58187628144268 8.550306626392953 11.279435665726396 -1.2126998867885437 -1.727069643029077 0.6899251943137666
P 3.0490389662056088 4.61136246996774 2.696891874581029 -1.2250123856073094 1.1319459073679279 0.21137913264006178
P 7.705158338822017 0.14649467533878424 11.447091127978291 -1.0903575424031802 -0.7730702996743783 0.2743583045757597
Ni 8.820841080446828 3.384761239225 12.87714606258716 -1.167394992204157 -0.11138404560164689 -0.40010658931887866
Ni 2.0317977487675893 6.159534492717532 1.50342058047965 -0.399395422184467 0.7724087548309794 1.4007395733717165
Ni 4.677787974732405 3.34460925579964 2.582715359609457 2.02824712468021 -0.22969618578169476 0.594593574189292
Ni 1.0429869021865112 3.643637785126589 5.941182146044136 0.9600571195130047 -0.502463748831567 0.5711340576147712
Ni 8.660497065040792 5.075121518783006 1.7859442056497017 0.025718487812026677 -0.6773674122534141 -0.7365364664144024
Ni 8.07281472558565 2.075444374449373 1.3733006702762356 0.1307634785695232 0.07565779584463099 1.3167388048790292
Ni 1.704529961832096 8.266821974602385 4.928593171109981 -0.4474871354853712 1.884137049600452 -0.9419352131013133
Ni 3.2998796550436 1.6367211611742623 1.9623899672648242 -1.141965496387459 -1.6847497992149436 -1.3652506364364876
Ni 2.7194505183967093 1.4114987482524972 10.694208676481624 0.2778442062418312 1.078432251720504 -1.944111373271555
Ni 0.9879917898022288 3.400842053983072 10.85114086537221 0.8377926795534282 0.25882241372368975 -0.9611197564495642
Ni 6.400801317873864 7.601183631062554 6.026029147828208 0.10995219825112677 -1.7936059361884142 0.33924626349839637
Ni 6.188246983131633 1.618255981126652 8.126757805040654 1.184245745212909 -0.06808589703464403 -0.3720000608906497
Ni 8.097668548508283 4.59567298233734 10.096633951264158 0.6745412556585286 0.462054748886901 0.12099920009390776
Ni 3.7267993500724064 4.50488508871735 5.068582715498526 -1.325814284817736 -1.15953487272979 -1.720891025022191
Ni 3.0690239516095277 4.127263511144386 9.273050518617234 1.6762096229544166 0.6231675291722428 0.9966210346799675
Ni 8.12895651746032 8.894829209469535 4.994125903985701 0.9045621717694937 0.22687260028997058 -0.822634483755751
Ni 0.701588565689695 1.041439794937574 11.78100237545334 -0.6620521220525823 -0.7932591159174275 1.1768021444506702
Ni 5.88572381154826 0.43660094615480377 1.1552877771345187 -1.270624784129786 0.19219921727750125 -0.5346004814651115
Ni 7.369135744983713 5.757677935121509 3.8680784538560973 2.1955943159110376 0.81928536477786 -1.328595447107299
Ni 8.305736272228595 9.001324791981677 0.2455031688291575 0.3017636931719061 -0.24809294312132757 0.14366553134317192
Ni 3.9520763667794276 0.37794647009524074 8.258063527447225 0.1891627444440226 -0.05431789671627419 -0.4318124050625918
Ni 4.0346190888256706 7.7299666585902695 5.852113361596642 -0.19153278733809595 0.7441667292661507 0.01754649352419559
Ni 1.3606808254403455 3.41627672394894 1.633514098853524 -0.32522295263611084 0.18117047026716543 -0.16898858348899284
Ni 7.922617913606467 2.13245982688815 10.582296398472028 -0.8399585768564953 0.6944225679634879 -0.4002796245616332
P 6.97442318262543 3.868477971551558 2.6236863998136664 -0.3587516805211757 -0.35063702183384127 1.0482356735324658
P 4.342011097927758 2.157495662428306 9.377650439717884 -0.33625581341150473 1.0250427803557702 -0.8612357410677167
P 0.01044479405650192 6.814980129676129 4.733272701057823 -0.3920104425743055 -0.8611107854540783 2.8524373829588554
P 4.944563868234451 6.584442948322721 0.2981230165547775 0.737323223981756 -0.4179153353655254 -0.6968250067573935
P 9.156508749680963 6.84712355793052 0.4869947795681293 -0.6504281646604089 -0.9805485545981371 -1.1251970186798688
P 2.38374644663907 8.690438140623167 7.07560763695828 0.16914053568582482 -0.4174101135943327 -1.728688666689739
P 2.4089824960585005 8.187164152543867 2.651018324523863 -0.42689028517062605 0.39945764288097013 0.49743312838619497
P 5.327072484587881 6.205165055930306 4.779371946760715 -0.7939617984114068 -0.7083852007911671 -0.44906836392956206
Ni 6.916097239340495 5.856465283281593 7.937711309914481 0.775614920473103 -0.8827887846481441 0.7948105195649473
Ni 6.13180487043805 8.128774504842797 8.574871959316814 -2.1030189183754624 -0.18120492304952662 -0.7183212289579565
Ni 0.17988580008628902 7.2250818588459 2.7098648238949115 0.16029954035542718 1.6222257125387933 -0.4079312275696201
Ni 1.2022388418874148 5.144695841830804 3.9474905588809603 0.11346278250754654 -0.29180555351792975 -0.8892821056819716
Ni 3.3799197035989144 6.614238413811077 3.801853162970705 -0.18145432005617135 -0.41949270715497433 -0.5641987639475187
Ni 1.8557460444694018 6.278288625019783 5.995593907989261 -0.14983180805488389 -0.5438685370305988 1.159648515489519
Ni 5.339531248257265 5.759698275176004 2.1836572460078356 -0.3835957361480491 -0.9694599008841434 1.096987389014872
Ni 8.161791593661295 8.798553635431254 9.264698869662235 1.8286410734156766 1.257296442451996 0.9031850889163091
Ni 6.328478604301484 4.198557853427766 4.888487600902087 -1.7716901099519295 -2.852586764052526 0.2251990692422896
Ni 4.5029102518172355 3.0382001148321716 11.430254960857505 0.28783757000911714 0.5876230564087299 -0.3079633942247148
Ni 3.8941508512530403 8.237900169678134 1.1533429723162956 0.8502949257854968 -0.22143677398637993 0.2660955503463353
Ni 5.682706937964184 0.8302869573502624 10.394795190468617 0.8430048198819868 -0.38000519058331333 0.6305244837579463
Ni 8.652169987789158 3.384133295694549 3.837110827110898 0.6386933927219839 -0.5321016263026578 0.19968961211727543
Ni 8.767720698023023 7.241708711456537 7.349194442608 0.8379250913662343 -0.6241406917187895 -0.5542331680943746
Ni 7.9206976804916085 2.1413511432541013 6.016771986101037 -0.8205539470776384 -0.07023636771874356 -0.6315544676843575
Ni 5.888108176837799 7.975246861962963 12.250867947586471 0.4223805702257306 0.38376568606701 0.32201524433209056
Ni 0.7527231904563352 0.6202662382439379 2.8375211933201654 -0.22587192693959807 0.21665632187860107 -0.5766238770847488
Ni 4.145355565326076 0.48107572924631276 12.495244458313167 -0.20687507412212114 0.8948997089790652 0.2616405998987752
Ni 4.36103141645881 8.013078184514917 10.15548045063521 -0.22507539918023173 -0.6974035049686829 1.140815956164048
Ni 8.607140066214209 2.9341526020257005 8.120284526298484 -0.1687096187959933 0.24766099779023154 0.9880289221355821
Ni 7.212905214733676 6.949696768535063 10.430878281829273 -0.38502141285098207 -0.38178105153681346 0.28676773398370614
Ni 2.355024855594093 6.554219753183187 10.051000657862124 -0.37851009409502556 -1.2943756066924805 1.365871557849938
Ni 1.008604718736599 4.86145690707389 8.32599336649571 -1.1083292963902525 0.620372482925609 -0.12900201579372622
Ni 5.953041178138784 3.8002869443969276 9.25317747097309 -0.748406221268795 0.6361559710121107 0.29120854336387914
P 7.459705223462677 -0.12336451190408418 7.18561515292551 0.15569957968957057 2.4047774693410453 -0.6167623969768475
P 2.8380863424975713 4.726476349919549 7.15503248286637 0.06004785722151594 -0.6481008020788129 -0.28646845757573247
P 7.447009843390516 0.2135235519305361 2.425342700184468 1.5598373801095589 -1.1193241048388594 1.1460188405212264
P 0.6182941315330867 1.519941865772125 4.844972024304919 -0.1184347818008412 0.8667453580320363 0.3621218825449892
P 0.08986781983841667 6.514914128429304 9.554269113319652 -0.08141218182990495 -0.2597765501068429 -0.6901475947372179
P 0.6146993823370264 1.422128285115784 9.603844800017216 0.719513963714477 0.8629105576669786 -1.791723888674353
P 4.187081957893002 2.027857175598237 4.375146494947644 1.8632064700953717 -0.9902889218143526 0.2448019310748816
P 6.670771532813421 4.095720724527817 11.711074037864462 1.5473207356997867 -1.7054317530443273 -0.46556173359889497
