# total energy = -340863.1541387756 ev
CRYSTAL
PRIMVEC
9.32717647472301 0.00000000000000 0.00000000000000
0.00000000000000 9.32717647472301 0.00000000000000
0.00000000000000 0.00000000000000 13.65126557620619
PRIMCOORD
 96 1
Ni 4.117771164951557 8.130676885620007 2.3385842848185403 -0.476658871953321 2.104380574609679 0.07586631231101126
Ni 8.2442445854858 5.042728594344704 10.656300904254966 -0.05742301800415917 -0.6529226489474884 0.02917276490921427
Ni 9.087346714778569 8.379143537782035 7.925569478396063 -0.8218400128789136 0.01040988247941433 1.1125623606349935
Ni 8.971409912106772 0.9646072562763178 6.362349636971365 -1.382912829602941 0.6702847943750199 -0.3971984145331482
Ni 1.4700282911258242 8.689206862900182 6.019020004499297 0.19050563162516224 -0.12007565983837386 -0.8317253903134256
Ni 2.145465097423563 0.7694071758261453 0.13223137984538005 0.7070788232749177 -1.5304172750762288 -0.5927994584033468
Ni 5.327692487766165 6.886646078704775 9.184871671233623 0.5703421578410952 -1.3336394372891094 1.4932321813854992
Ni 2.1829137106759577 2.185543974421207 6.237741358399006 0.5130793195638841 -0.6878027486541252 0.6400969579377299
Ni 5.518824986587603 7.459138839058134 12.25592844604564 -1.8591045321118562 -0.025568849608039835 -0.9298104048133212
Ni 3.224955185438298 2.501035716205081 8.650943054430288 -3.3846356827403774 0.7201783367713532 3.096825109314454
Ni 0.04570969339128546 8.257601102092881 13.631212212001726 0.8910088585650913 0.4766221051781146 0.2707839569609401
Ni 4.966646816436912 6.53325801920123 3.6005624445657176 1.6083278715107785 -2.244869507997082 -0.650490385356912
Ni 7.102896663575701 0.6500864735558498 4.951122664034101 -1.0908514513204632 -0.5248233474736897 0.650466731207828
Ni 8.22545032503659 1.5241818773134717 3.155681313586029 -0.04203830801797276 0.7345778000261349 -1.4748163978824729
Ni 4.060362394199753 6.930390536028245 5.624307889948496 1.0629249001135244 0.25352491277017625 2.0697287888637645
Ni 8.955497749165655 0.17444338208606822 10.641120924661376 1.362618598130279 -0.8914914546284647 -1.0847090858681512
Ni 6.027156100474406 7.371696560293202 0.7441398549542305 -2.4861510846235313 -1.475122873379298 2.1360537373432438
Ni 1.0774008005007787 4.216667216337645 5.666899508268728 -1.3205067565618935 1.094112381459922 1.0731740886453582
Ni 5.548326845545842 1.076701262270659 2.9492736979717025 0.0622399797768283 -0.5643643429911055 -1.131152207822039
Ni 1.521588922273829 2.7330025933126922 1.891983222510398 -1.0938717262040258 -1.8835621509335883 -0.9207896893719497
Ni 5.814878892750558 5.085792167790858 11.213640733826299 -0.02332581921013402 0.07673405962794526 -1.7325620336022163
Ni 7.454214089918094 6.761391426807786 7.803896462237286 -1.2797357452921188 -0.4672571190234469 1.0455087615196061
Ni 7.280793899083279 5.878714088043059 5.717682252904841 -0.18611958674232465 -0.3316031451308418 -1.1920996940396889
Ni 3.5075033401717466 7.347501864707471 0.27490639910762343 0.5313788892040203 -1.1007807946190333 -3.093022961959544
P 1.659724404781417 8.241660957622559 3.649310932028642 -0.14393678272668758 1.0793444791221283 0.5598291741249133
P 7.816836054059215 6.7580429704796146 1.5888434604351536 1.820146148570788 -0.6166348702600476 2.103286570214552
P 3.7450665231203133 2.875186070378571 10.855377359217641 0.0007139953478890929 0.6226615360701018 -0.5880717139103744
P 1.4016880696313545 6.576666698174241 13.17029020304658 -0.08140729673389852 0.012066444246230833 -0.09546686015075817
P 2.453588369850179 6.137011584132366 6.767082869848038 -0.23758947248684248 -0.5526272570598353 0.7507765212731844
P 4.285613704298218 5.662743318464178 1.470049743631548 0.8574821875625555 0.6987206811182096 1.2686748594922665
P 3.609682557651195 1.2771889190228947 1.668771765890962 0.9096992358857429 0.29169833851610405 -1.4449689755037374
P 8.049521123749749 0.7377106322606126 8.7689448939574 -1.7797744296219609 -1.1462250429947616 -0.7075459927193234
Ni 0.9326710042772643 5.225830394284371 8.919777461700475 0.03879460426969448 0.24519685252045517 -2.2141234850634772
Ni 0.11144296908151018 6.472099723535986 3.4451558295153 -0.7533118861005285 0.9431639433020917 0.04205810551231467
Ni 0.9319556098472622 0.46835110495901633 2.105830194022635 0.04911064148372187 -2.368048746461444 1.320741498280519
Ni 7.528113308547912 8.384450701154542 3.1750799750660614 -0.25602736747705584 -1.2307348899133836 1.346308805226662
Ni 4.873701503595041 9.260729596907776 0.2147890163287977 -0.6197898709492616 2.2066857978385093 0.4060959741330941
Ni 7.24378366312176 7.47627286210786 10.883266549376042 0.6157887202096685 0.10386999661278885 -1.257240906623712
Ni 6.208495064074172 1.212355715855424 7.363041873310165 0.7588230457267449 -1.6632952288855936 -0.1216409474429647
Ni 4.17207398596163 8.389048999120527 10.380190366673897 -0.01940720088201819 -0.2220810924385982 -1.4294400266302025
Ni 3.5401671119301246 4.41211819783302 5.733941386808096 -1.3607851444659662 0.0847535874983121 1.6275378687803261
Ni 7.727808155306012 6.47768670220054 13.185101759172309 0.719635834004322 -1.2219255191518696 -1.667681016658115
Ni 6.456467375886916 2.106402882653693 12.76697749913587 -0.6146857169534768 -3.3645440541968252 2.0340601318175615
Ni 2.1556690284069053 7.516668863103158 8.675979994045084 0.060391613714179865 -0.5376634366611515 -0.09309321771225904
Ni 4.9688200485384835 0.7027393170604809 11.608544988210973 0.4302918546530074 -0.309559277956925 0.12463653973617889
Ni 9.279673092179411 4.5123573626209375 12.790689979701638 0.8599198504697706 -1.2443128857081345 -0.865962971340057
Ni 1.9186095129840246 1.5006867199578597 11.352952373278127 0.3890379902095429 -0.2678546991292871 0.3842827349127446
Ni 3.459197893587898 3.577615725182519 1.3423327171645387 3.252593080348115 -0.7446585813009047 -2.0513050349409383
Ni 0.3924782558026202 6.665955757866689 6.77277524560593 -0.5937600225444033 -1.8758848368939887 -1.6484486507910643
Ni 5.475360344556181 3.1675930505685033 8.556326311577251 0.3619125947476606 -0.16499925982394165 0.8887437166799984
Ni 1.8631501221001543 7.299989228117758 1.6943813941368153 -1.0458813143676762 0.3288651773743885 1.2509291054730713
Ni 6.707284476502146 2.3991083324884754 10.390155521941358 -1.071061927398362 -0.028529474898260545 1.7330446296655897
Ni 5.8527192474118195 0.3378527144890523 9.643636304287082 1.8771626751651478 -0.14820918484979637 -2.031678518959262
Ni 4.076918132312581 2.204487469692842 12.87273368876533 -1.4899866778650082 1.7910991106061602 1.6063242108171885
Ni 4.727833791850532 2.5837024806523967 4.486938941491317 -0.55646360008679 0.1066411316000228 1.0055892996168487
Ni 9.191978979651637 1.6680722276608426 0.491046923297012 -1.9545626505118658 0.0336282295774066 0.3615858075358611
P 4.244704708600833 2.126502947799125 7.006484439265358 1.9084882247513069 0.3846784276892665 -3.847089209727594
P 2.4438694520397193 0.21545590944151158 9.593972820819161 -0.001720325125216392 0.35257460517618633 0.36191156630639604
P 3.4518667329362462 6.646378014599747 11.313144917113771 0.6863539320227405 -1.9503272722742802 0.20378512234288773
P 6.933011472597092 2.0527716183445346 1.4677160840958694 -0.5522544471014489 -0.6068698204534839 -0.30823541693917883
P 5.365588805485836 7.908447580675659 7.436035423111389 0.028101129111590316 0.7881305364416105 -1.216533658712337
P 2.3090451171546964 4.763771402525869 2.461883027824115 -1.9163390882542934 2.4995663295881725 0.25537327883282473
P 8.929866668414078 6.910122581707584 9.64807324210132 0.3137116095624016 0.9039708180423981 -0.9920164460284205
P 8.41236694012451 7.788565382385988 5.095389832308096 0.3868661793692047 -0.2223412880785203 0.9888624737804712
Ni 5.448899145104863 5.010605798817619 13.449199826265765 -0.2301204178033069 -0.1493612961763686 1.023344823828057
Ni 0.8460075447418657 1.3181632049550918 4.381182751861857 -0.4134531858291138 0.49775117384724593 0.49113392564104447
Ni 5.648621973392167 3.9074713186248458 2.5010618322990052 -0.5895161596663847 -0.8045089777996337 -0.2938094713218359
Ni 2.4170911285907466 3.363193266886304 4.013827245696928 1.280028336831873 -1.2151365212544942 0.05057359918249355
Ni 1.0769157873278958 3.33529568226914 10.233711724875084 0.007046365323820123 0.5907695724575116 0.4655882159614562
Ni 0.34693272071600273 3.9463003539846766 3.2966988936017096 -2.967082358699961 1.2675605433821653 0.4631636656803636
Ni 0.5736698500152407 5.387806139674431 1.1737729179525953 -0.5781043182850173 -0.042241682278030476 1.0555057248313178
Ni 2.9446455530412323 0.9859664902359652 3.6154831286553457 0.6199315387334484 -0.9248479186017233 0.25884298254898
Ni 6.371543434750414 3.2348326652475854 6.138482479850897 1.8647115938859888 -0.16652752354300998 0.36079827863755926
Ni 7.875923716563305 3.913627255049897 1.2301976715940306 0.04167783935476048 0.7669202209125824 -0.4219038876996282
Ni 2.4485330402405157 6.18605387765194 4.073579003160811 -0.20430757050526105 0.09904095065526168 0.1593952833736029
Ni 8.160757029515144 2.7692573279856827 8.793735596115193 0.3515608191996913 -0.25213471729086895 0.7130021307378882
Ni 1.0999912217454362 6.148446702400719 10.959727010645741 1.0374833201119682 0.24288645921972363 1.8261861841172806
Ni 7.346867616712163 9.10169191208422 1.0927309476344365 0.46039587312723934 2.622317993596813 -1.7461657404285797
Ni 7.2355197848299495 5.339733872500621 3.234885830153074 0.8115823397066475 0.7767490340775461 0.21344681380236788
Ni 5.019671814279967 5.165185093321215 7.56722402463507 1.1225837494267377 1.2542525134193494 -1.6506263751686732
Ni 2.63419981369062 4.788236586227248 12.458158419349694 0.45969781861895026 -0.6096694946858081 -0.14887638612015006
Ni 3.503968340315543 5.055432208603674 9.275052408990062 -0.7236580677898375 -0.010724585506355723 1.4755450485183814
Ni 8.49441811092932 4.369026642857661 7.4013747028854295 -0.03336983370969737 2.0964602913213377 -2.1295390761531774
Ni 3.7894452284390914 0.21859450430064753 7.873134890819229 0.3428195826719515 -1.2545142517211685 1.7282397520777786
Ni 3.774885506076205 9.273675717753187 5.646777990617572 -0.16617502529959766 1.3495041722355081 -0.18814253070962436
Ni 8.6529987641092 2.0440507084090456 11.905801167412093 0.8000766530598932 0.995932236143059 -0.5330351938605207
Ni 2.1905899768544685 8.417161108794927 11.381578410372256 -2.2333872183890957 -0.261224338296963 1.9570424795109267
Ni 1.0060385738521926 0.8239879466929855 8.13624987351996 1.8642750205692022 1.819896494453827 1.0440229210026988
P 1.5042590285196697 2.746741524152238 13.272961895440032 0.1358015552140629 1.4841279050913858 -1.1874267140440515
P 8.553748280019851 3.0374882669426864 4.893828617552038 -0.35027115385399027 -0.8711779398820931 1.2525671552971267
P 6.900459626955533 4.833072323189703 8.998900831832826 -1.2762799255330342 0.1368230545000418 -0.6001661831810631
P 0.874014257322928 3.1205467727988694 8.063147195754835 1.3435584961750346 0.40851666775944484 -1.0002663447420386
P 5.195936793917266 8.670291349157752 4.271358047886024 1.2594039757133022 -0.49132290172339893 -0.7781492568591825
P 7.796045777860065 8.999307496723937 12.31114812849599 -0.950304411001615 0.331875424955622 1.4848053907743848
P 5.391779516821509 4.672626234729505 4.980377352817698 1.999313986585628 1.7316950576162307 -2.1799311554524845
P 7.159531278686173 3.9098497486072517 12.593619800382946 1.6434712521811308 3.283800102078539 -0.8713566315518025
