# total energy = -340857.60302639916 ev
CRYSTAL
PRIMVEC
9.37389692286401 0.00000000000000 0.00000000000000
0.00000000000000 9.37389692286401 0.00000000000000
0.00000000000000 0.00000000000000 13.71964567463270
PRIMCOORD
 96 1
Ni 8.015656758841123 0.5155202737321953 11.36669930043271 -0.9682612525903517 -0.7700173717806674 -0.5901591925670223
Ni 7.136591452713912 4.736320779191043 11.59030142558751 -0.382543897844767 0.22496252775145126 1.696294823740066
Ni 8.7818884676443 7.1140941000863736 7.8917460275171045 -0.7280903925295783 2.360430053573922 -0.786724143012387
Ni 8.696698492361355 3.555856565133313 2.5455426411667346 -2.07459511581713 0.02558196223416239 -0.30720209057865805
Ni 5.462441583038705 0.813114316899582 2.1458893578045197 0.20299887899616653 0.31694425756708644 -1.484801534119643
Ni 8.78022928788802 2.5507404670133886 12.539810629740009 -1.731403751628057 0.4391714165308243 2.21802436277978
Ni 5.482736069888131 6.551069728891438 10.734031562010152 0.2015986562145302 -0.7428492960063077 0.46281836652580294
Ni 4.983679171330829 2.821524227576599 9.633674796320928 -1.2354016992614336 -1.0246103208040418 -1.4133729458650108
Ni 2.6967107899784013 5.457117209583521 5.519043047470207 -1.6758740939918688 0.7565190801839164 0.6748924683503602
Ni 0.6805374178654976 8.461460548949654 11.328106029389861 -0.03851769645922399 1.9455887291480298 -0.1688140055843415
Ni 4.626168116388458 0.14169301379670166 7.863195012253373 -1.8249579681371346 2.5242846582704592 -1.0908697061529085
Ni 2.598603584728477 7.837833934114288 4.982056549772568 -1.4186586197439826 0.7483321734977499 0.4939176590337687
Ni 6.894848024834083 5.474824500880779 1.3341858123926227 0.7925304652815189 -1.239083261878079 2.48829692732194
Ni 5.013713137088593 4.003666369184467 1.795023458394507 -0.8700813643838048 0.6488862740945857 0.25158938631036026
Ni 4.638279191219616 2.190604720931138 6.038015727441036 -1.8251217474085082 1.5714060587837648 1.8017882148888904
Ni 3.776724324554172 6.376677750440301 9.218929538904407 -0.3328953815797041 1.092712672898918 -1.1486557639234412
Ni 2.3172929379149645 0.42426351235735665 8.876666064705349 -2.3947928473245077 -0.5330274805510368 -1.6356594694461961
Ni 4.008615786762526 7.293454243909424 6.655633674345466 3.249593117179526 -0.3327400869487624 0.560560395863983
Ni 7.34218913403883 7.933644534616817 10.008646609071349 1.6581753911605248 -1.3179490231370463 -0.14531875067587877
Ni 5.8588449363359345 0.2964907354989445 9.995900921418157 -1.586700265938674 1.1831985348953171 1.3513962470518983
Ni 8.71896149756569 1.38645559905363 1.1563714241730223 0.9271757954039517 1.5489592997444743 -0.3370844799603872
Ni 8.007117138739586 7.797441812250928 5.243895737886946 -0.36022312286037966 0.8816976084664945 0.6881228509977053
Ni 3.4179290457326457 8.317599352793474 10.883562091028473 0.5104609081044305 -0.057193161381540215 0.25137727029955415
Ni 5.402036191233765 5.738924672934226 13.325165088276593 -0.7645887445659283 -0.3485228037043159 -1.6121467310362365
P 0.6172936100707156 5.458757641545946 7.5794452774591585 1.2225466976756365 -1.0811121125455123 -0.1022399172085336
P 4.930041733108006 3.9432890990703107 11.803765681214523 -0.642466743721487 2.6598296173890255 -0.483707037049354
P 8.85405810009406 4.621124959841119 13.042348056226727 0.5224327357543261 1.314805078191426 0.49964581976679756
P 4.138153668412507 9.50156940430233 5.387128882948941 -0.6164623492379254 -0.9463428552507056 -1.1054239498179996
P 5.709678114518425 8.013791353352424 8.487617470937941 0.8829443363894021 -2.945679467544153 0.9541662079498664
P 3.5155113127545934 1.0743517008311738 10.319588144074716 1.8633311685986942 1.137650413951873 2.2687164898180088
P 7.06020356664649 2.7240356995239328 8.579306368961166 -1.2755062805918034 -1.3171488958332542 1.8448089414247906
P 8.812006798474417 6.697555616187498 2.274155201641352 -0.6098484434658337 -1.8896361250418099 0.05977146363167771
Ni 0.6491236144799114 8.630190693656195 6.230832100304434 0.019316698050740926 1.80522706536711 1.174583025312164
Ni 1.146746306807207 2.894068815903483 9.02529013789072 0.07205285210219203 0.17249531109067068 1.0388053813575011
Ni 9.311082444825576 8.474180927081143 1.4283934765204402 -0.5490017444921061 1.2182704388977856 -1.2621555703165102
Ni 5.104236859723652 4.527123521445719 7.141871768853534 -0.6570500408523007 -0.7758632890384831 0.6691133997747379
Ni 2.048402704531238 7.7524377330989225 1.6101102180312257 2.4802478317652183 0.024637338932705956 0.39641165696579467
Ni 6.325843107398993 8.189767520384414 3.6946183613605847 -0.5542938461289809 0.25264945214375845 -1.6565825927521085
Ni 7.465268400705321 3.4944856619447733 0.4649274772316325 -0.949632581745571 -1.352341127463671 0.5368026313227529
Ni 8.904283439835039 5.456086080921425 9.375237395401772 -0.6173738053086012 -0.6621927613955046 1.4144574371784415
Ni 5.018606311285083 8.813300396250503 13.621865799066729 -2.0735908429223318 -0.5640249573738157 0.027431356738075334
Ni 5.281066051376104 2.8082601634232796 13.513535421826973 -0.9187973415322692 -0.9697784605658267 1.2366692531199475
Ni 8.530761768939401 3.2312385145117886 10.364191020438195 -0.2514400052166895 -0.2545682664330261 -1.3419716113038889
Ni 5.782963240702632 1.419207994920555 4.355877422803667 2.2448404545313596 -0.6298716806652959 -0.4927732610166803
Ni 1.145002761978573 3.2937905287132736 6.374956702964295 1.2205962588174848 -0.3373493035859997 -0.0339177357933674
Ni 1.144543441029094 5.128618365633746 3.7044412679515837 -0.8000044050610609 2.3889880677172726 -0.5334648251987716
Ni 9.046513577925722 3.598170335866942 4.839398961981961 -1.2946409445387252 -1.1345802596669816 -0.6770406250416147
Ni 8.578006209457232 3.757760931068543 7.652227962768017 -0.5140357699398824 0.3912226565656875 -0.9732458502891369
Ni 7.844761243944184 6.6153840357154134 12.938448720064905 0.2585601612012386 0.3943087516901789 -0.45480423797207487
Ni 8.888872753285176 5.710578008623527 5.84727192318845 -0.24082263471215945 -0.2015166380236852 0.3078944886599923
Ni 4.708095975540411 6.888370662056737 1.5863614501637802 -0.9487854032539271 0.7368419134699632 0.30484516031070724
Ni 2.588423532664516 5.400808210736178 12.394300565114166 -0.05798788936869368 0.7674637521208783 1.7769770693824816
Ni 6.023084984413893 8.844843559413697 5.877812079380335 0.5790548551237447 -0.03898358035204899 1.5645134454289895
Ni 1.612422758403398 2.46682534171267 13.7797381589614 -0.8206002269345415 -0.07225288392814008 0.5283696700640513
Ni 6.838201565697326 0.7466758850316896 13.274909752065444 0.1622443227866238 0.6792887976458429 1.196082847057153
Ni 6.58670928501223 6.208153831466182 7.560786535623694 0.12014585095467695 0.7192064597763871 0.1359951592821077
P 1.8294847156714322 6.929953268829971 10.421264929274875 2.9139479407688267 -0.3935654457662512 -1.825861196677694
P 0.4712004890559445 7.351478665894618 4.503967183864133 1.4008429317188003 -1.244867986880656 -0.8075449364124802
P 6.228335831552469 6.586887389053865 5.433899004282209 -0.3348424780037459 -0.9257781437254765 -0.43928171685644346
P 3.2251454815084966 6.538818045606357 3.3789289475631143 0.21210289817996375 0.16688747798559 -0.3873914557450554
P 7.398835593175585 9.453387574091686 2.133980759147009 -1.3752334586808121 -1.8986151886119689 -2.81913182682819
P 2.727194702788716 2.599944051989201 7.650980297086881 1.9512518409710782 -0.6491402990869207 0.9260699639342825
P 0.06951869439847964 9.02630345614865 8.590363817777602 0.130293223801324 0.274112764223857 0.26409626052811935
P 2.9755935974875256 4.292635489788271 1.033495571069871 -1.2719373322936225 -0.8165705369498583 -1.045371464610793
Ni 3.490145547667044 1.4730329110819407 1.147159695661738 1.382433061753045 0.7113967339239813 -2.216762979568853
Ni 6.775808907743619 1.8947176643943657 6.674182741586871 0.6934591756089541 0.71288180310994 -1.0919999631026098
Ni 8.253622506258912 0.5991063752507364 3.8380567947653064 0.8436982464045857 -0.4804466211305274 0.26840285832327326
Ni 0.2526818282052773 6.271980695649894 11.441772966150808 -1.372817650150468 -2.8652124232363363 1.2983600452615252
Ni 3.3410349692311043 4.513634483766125 10.446783488882355 0.4840795898974244 0.14330943355533385 -1.9831412334805076
Ni 6.686213200904447 3.7806988568517044 5.1347142108061155 -0.31232835606162984 -0.047904536990762664 -0.2394136701797748
Ni 1.155576517713516 1.5516330368244033 4.216266351514706 0.07102261106546479 0.36844936742491385 1.0452722200287676
Ni 7.272672314419736 0.24528863569805245 8.074875415294962 1.3097734293047893 -0.8979901749789309 0.4789438113327559
Ni 3.7726654271842874 8.775457974351596 3.198776709449636 0.3967587558925683 0.8291386034228558 -0.5665724063860178
Ni 6.529922217421551 4.557288721760477 9.459434675000029 -0.30715092562574847 1.1465412886835995 -1.1660711311864111
Ni 4.434331315754052 4.362770986604622 4.921071851137468 0.8096367859445024 -1.4527110813430013 -1.0428330144596556
Ni 6.1727861183563055 2.3656809938580285 11.485593122120788 2.9892552952525744 -1.7811011188531845 -0.46251111969802927
Ni 0.8159377346543382 5.910607595173128 0.8254559895951726 -0.07812631198978158 -1.2837500086578342 -0.7128254959507078
Ni 6.8321928977663875 7.553982961233249 0.9672202450085282 0.46538792702519205 3.7859110955563766 0.7630697368182408
Ni 2.948990478005461 2.812065965576105 11.94725942061112 0.7487924009636201 -1.2311187556153635 -0.14015726107959733
Ni 2.546353483251019 1.0832850246036922 6.30786772264959 -1.7956070257788428 -1.5599319967058942 -0.3538377881593261
Ni 7.858203412139138 5.520794091416383 3.821154721214175 -0.5415964531669705 0.42748061045645736 -1.0407355085006784
Ni 1.506816435610961 3.2555544031433863 2.4192678130374397 1.151428441572572 -1.365781826349609 -2.146076925907201
Ni 3.747515261726085 2.087801193320215 3.4433294942388293 -0.030481199307992667 -0.16005117179004694 0.14283532213239272
Ni 5.367024686207158 5.9560709952746125 3.5011167566317405 0.4958747827601395 -0.7527220750353295 0.9437049034072263
Ni 0.6029496729912741 1.525676716230381 11.20261204687468 4.130562846341061 -0.7242193396099462 -2.2009620079808547
Ni 2.080086476148355 7.075070567174522 7.6288775855200175 -1.860145314671545 0.765003977726476 0.6178263194649877
Ni 2.6845247239718177 0.5049296449827816 12.647606694854858 -0.038611798834927054 -0.528663032934754 0.1325480812737717
Ni 2.51705068145365 4.65182447228078 7.881360687110418 1.800757459631531 0.7683464118361477 0.5808407433795739
P 3.4511501364459773 7.025276426692237 13.61772253662449 -0.9208717075627947 0.9087882940356994 -0.5193962629208474
P 0.45644878746012896 0.32771143660781105 13.242668233581103 0.28561048045081133 0.587819231579936 -0.6297829776062316
P 1.2753280509705178 4.021158060852378 11.205876975174752 -0.8442644033207007 -1.0071982959751813 -1.1608340511571877
P 2.0215933593167548 0.9523973017960586 2.3571994919174464 -1.590557692011551 -1.810437405923456 0.6398964118911495
P 2.4580326263940737 3.510871233775164 4.241565561934066 -0.2016019986486399 0.6312346224510935 2.6905033923237984
P 8.629187686684883 1.4118494858319641 5.613050110203762 1.3071501327493293 1.1971362280223319 2.4924762555106104
P 6.2734149018799 7.982482537612432 12.108396708805865 0.9512570047228714 0.7708540087493498 0.008293093246727654
P 6.445004085149522 2.8829513741467077 2.809440337046533 1.3649984112163651 0.29016081882565514 0.6683528674596295
