# total energy = -381175.4713614775 ev
CRYSTAL
PRIMVEC
9.18137437731189 0.00000000000000 0.00000000000000
0.00000000000000 9.18137437731189 0.00000000000000
0.00000000000000 0.00000000000000 13.43786946873975
PRIMCOORD
 96 1
Ni 5.917542652572231 3.990262005874954 9.254983236298918 -0.09988350116121507 -0.506714810798437 1.4911328756543094
Ni 4.531347938798325 8.892445653542248 11.457100978228318 0.8419388405113177 -2.0299152564112526 0.3090519993032032
Ni 1.0132105633135695 3.6728068073145805 1.2089124751262201 -0.3083130642546497 -2.2575954402041827 1.6108138711574258
Ni 1.7102880459691459 5.211100168108128 6.89240445161732 0.8504635901528772 0.3412895191806703 1.0216190993862018
Ni 7.163023623485879 5.379293764314384 3.8600416557274055 -0.26400010126988727 -1.4258438246385121 -1.2181547392555279
Ni 2.6596696949955883 1.8657287132420264 5.585464279129075 -1.2021845890795166 -1.0849140027901059 -0.9562171769416241
Ni 0.23002556157832912 0.5783421136475229 6.409810300087649 0.47310509316379173 0.7551589666115962 -0.17793345138710645
Ni 5.355890441167392 6.87325944988091 7.5320735550492035 0.09547611612213881 1.2541686954562916 -0.1793637560757298
Ni 1.1487460110561722 2.9173082398475847 7.04785338212709 -0.5431059478329614 -0.4180801430781638 0.5636439198853131
Ni 7.906347688601793 2.716979833514036 1.0278952534043104 -0.0883760147422478 -1.269435391807375 -0.09300888552856885
Ni 1.4483158924371258 1.0170391964058785 3.150213080413319 0.7070340860799114 0.569440214852116 -0.10521031269076718
Ni 2.176536596793211 3.3798291526968836 3.477022263133031 0.3316381121338353 -1.1447682559435768 -0.4646186529593353
Ni 7.28744960829876 8.731193176323488 10.876222050855603 -0.5297742637210617 -0.47791871250235113 -0.8848009299821664
Ni 3.063852155402366 0.40827459894213053 7.357838614539016 1.133885547592802 0.456898144386626 -0.9714501918412948
Ni 3.6715673217810996 6.6022620053902825 5.8179926833476046 -0.5140517107794824 0.2578189121598399 0.06893487529850063
Ni 7.505571518068508 8.367050689335318 7.7282795243121365 -0.26858540664772457 1.3811703929905375 -0.041205013483400006
Ni 5.542795678242054 1.6510957257146708 1.7009120265114337 -0.11258269389543836 0.9758388078272936 0.7573863132802182
Ni 9.109548430762244 6.725714764525023 7.0025276915112595 -1.8278394034499876 -0.9457916107329261 0.2570658360438992
Ni 3.200241470956922 6.514230988390143 1.7021074414481692 1.668876322517797 1.1857768371454547 -0.35575197446290346
Ni 3.532129789951611 3.8991185029796274 5.589589470611987 0.3118051365683082 0.0507332646888094 -0.4129469356166565
Ni 5.3606096675689425 8.732405117734002 1.0091762674364457 0.7210710237889517 -1.4915283113205153 -0.2364180778865606
Ni 1.651114088463315 5.424695660337088 13.553166501638193 0.4469690581983722 1.094836146999824 -2.023362542894399
Ni 7.814690028744428 7.167311325294292 2.3984311332719024 -0.9740927716704643 1.1053141637130126 -0.7055654719541848
Ni 3.2905035619173293 6.459620173922387 11.521320100924134 0.04022670873053072 0.35033106055764823 0.2930764498105533
P 8.407448736352487 0.9745569774175963 2.455864302206266 0.31384453559584014 0.46558127398292076 0.5433550877292901
Ni 3.7016730481832125 8.504734578669288 9.326607137385494 0.9800932122282733 -0.35067481705031217 -0.5351506975416267
P 5.748880806275549 7.654300600711944 9.465339539667047 1.082634976947942 0.6229623551399722 1.5857574424094303
Ni 9.063191671810042 9.027769929675442 4.307334341126096 -1.5288725562969283 -0.07576732483930176 -0.6712633562382052
P 8.987996216112174 0.8784472691514541 8.422681554490257 -1.1096112484264697 0.9203613435852794 1.226026428694121
P 5.634177896869756 5.719564678065136 5.475622907426824 1.5536525914550856 0.7673097430415173 1.7807735603104362
P 4.778602349292044 3.172100558659735 3.6713203428118355 -0.7663931447645188 0.6135762859393821 -1.9079027845614822
Ni 1.1443114072586056 8.480789554437294 8.051473999961244 0.5608607007132212 -0.9693804537964594 0.9360252753747815
Ni 6.739358286767639 5.059423864307303 7.23916843328865 0.1523316916586022 -1.546449645948743 -0.7940823831496712
Ni 5.684904989999269 0.971132324795459 9.636215933450213 0.5832172140315505 0.25267593450631964 -0.5407341051666752
Ni 4.715186596849411 2.6371569651578386 13.314509530059672 0.4557912844756925 1.2959838317198646 -0.7455448405605999
Ni 1.1432004609656334 5.77805003249681 2.3374365092380023 -0.7955975342426169 -0.36761812977287006 0.48404642266664377
Ni 0.0054243559494871725 6.770262792735774 4.173788497199089 1.1811300824020625 -1.581839852522579 0.47370775974479706
Ni 2.5221786145223817 7.469350996367886 3.7778417295592206 -0.47362317045079083 0.06769688912634148 -0.767957146817529
Ni 8.611853672885042 1.604261535297721 12.44155914971485 -0.3927853730671171 0.9039535916512174 -0.9741130833854386
Ni 3.4719183371473847 0.46407715579689207 -0.041382290344496586 -0.9100527625704198 0.7149150314898849 -1.0942885020264703
Ni 6.422655960901677 9.313310671092252 3.2360809656231764 1.41924920214013 -0.08343718267973371 0.20777341756667445
Ni 5.737018470651417 6.449557387665383 1.6176369614101327 -0.39832044395273336 -0.3975907648755604 0.2061777909447804
Ni 7.732544272684744 9.224618595140921 0.6232105718221147 0.3166717206319901 -0.17165610301882694 0.8419187859066597
Ni 8.325918132372383 4.226765027037514 10.285210558781037 -0.9656816647886336 0.4331290669914863 -1.781646706944009
Ni 7.724547295650209 2.7916427695012223 8.141279776617843 0.3445707610351033 -0.46317960651996365 -0.4019981499146367
Ni 1.9651905412731614 8.281360922787309 10.798577922626036 0.8337269941244868 0.1445862433852284 -0.38813784699277676
Ni 6.012257710078848 3.3883586494420994 5.53452050556556 0.7104513392915764 1.8033316481166104 0.08575503217963296
Ni 3.477720965718942 -0.014755386673021046 2.335716837827476 -0.027635245218765314 -0.7234940314081475 0.8410507814794095
Ni 7.006508735417314 2.627589973114227 3.47539624174059 1.5437625860348834 -0.889068961229901 0.5443061387886496
Ni 8.380446314471238 4.427625953081743 5.7098177310848115 1.0380042256124447 -0.31845632333623863 0.057134797339779025
Ni 1.645081925533706 6.041307578433922 9.365268068380926 -0.5833416554245566 0.22915316879403114 -0.11561145341943314
Ni 7.5237781833492 6.308935458548346 8.86928930936452 -0.851934518271449 -0.8865258830930733 1.6306321914349338
Ni 3.6188478704236933 4.279365120528732 1.6889248241965211 -0.36208485865946677 -0.6768462496426214 0.3144410315292585
Ni 4.0473242472867055 5.964890999951217 9.3924394275497 0.7753374984420002 0.637869868379424 0.6451766864534824
Ni 2.12370696894394 1.1951486768799842 9.4855633528863 -0.8290157046917465 -0.19379175857560174 -0.6013360351194482
Ni 9.071565085191782 7.587496921144463 9.732685551589782 0.2869878204143122 2.020767014253081 0.003149087151942964
P 1.8270751273460533 1.1773643548181074 11.77321294172537 -0.5979982289954668 -0.08435326673609989 0.12026283614851546
Ni 6.047615182593193 5.9608236511265345 11.163228139614217 -0.23392565048201003 0.2842310836047815 -1.1042504983351886
P 5.865539348411947 2.7114434647978194 11.25764204804307 0.08987111123053554 1.3649912121275136 -0.7054783115570172
Ni 6.056998547150363 4.0257847431270966 1.938600363098974 -1.8563686212379318 0.448624334413608 -0.9783561749325087
P 1.8438311354838564 4.890964008245707 11.297633360177771 -0.8872239376013623 -0.8250070977529855 -0.11679056132919886
P 3.4775648823554666 2.850679006392222 7.8652794012591105 -1.7659596352260551 -1.1142934843934875 -0.06818411317540515
P 0.12813985072616405 4.27516923246354 3.7196556879304463 -0.19240439130977186 0.3304214661179148 -0.8397114938426957
Ni 6.755563412446118 7.484472719876359 12.854894522183312 0.3446450659164645 -1.101429998167258 0.18778360470830885
Ni 4.585995478763368 5.339584320371371 3.8116117424532776 -1.6767084169677056 -0.9122297156170804 -2.1952315332549803
Ni 8.024135539779806 5.000203999929861 1.4247638310261161 1.2111492544719722 0.9144866299720574 -0.5392942873963551
Ni 0.06775946063441143 2.313541064427347 4.7555139472843 0.4241165790802309 0.3006709743283596 -0.3938456960108314
Ni 0.11398859848353611 3.83401337766173 12.37264926287788 0.4780680935960217 0.2904557243582546 0.4049163520026962
Ni 4.352063242410992 4.75541019775446 7.58251969812446 -0.10400137998433057 -0.7764245608585919 -0.8446503259052098
Ni 4.976258975697867 1.4398782094351306 4.799510174898294 0.9714414500905463 -0.27824504122467564 0.08558225404719454
Ni 1.9919726101706803 3.585758197366903 9.361908603516474 0.2323696188487998 0.643044470601828 0.1624350986411912
Ni 2.470946545805153 3.1387538071219265 12.74330593494757 -0.40049276901370384 -0.570053937176715 0.09195421901180938
Ni 0.831859139566336 0.8695918336178041 0.6852454455667069 1.4909045616935872 0.797969376908903 0.09951557629883506
Ni 1.9282814164983841 7.8024971636447 0.08510307672882794 -0.10621972779188804 0.4063942220998033 -0.7080067344058258
Ni 5.488781653105235 8.920467207973248 6.379373126072509 -0.5200061285907044 0.18347726402347111 -0.3839101820646743
Ni 3.839926182725152 1.8592283002219911 10.867312445213454 -0.43807484103253586 0.3735375805810986 0.4539172073814312
Ni 0.2015706462793267 8.677711670897349 11.977992478330265 -1.6645730671567527 -0.7501707693683856 1.7665779855363448
Ni 6.256399634677382 1.0043229929697923 12.433093004452457 0.27025096727560555 -0.1419279798267749 0.6152706429226693
Ni 8.824374944318318 6.1443134169533815 11.368598956725455 0.10340077028585418 0.13965692440441108 2.345168242318845
Ni 6.983555299612105 4.233247077308905 12.625967052973904 -0.414539476914757 -0.610765041742832 -0.267396528545946
Ni 4.796616205711973 5.114236669010144 13.27046005047461 -0.185868389963467 1.2190780224007456 -0.19070412078921348
Ni 1.4164289794165283 7.726815095107763 5.73035095661872 1.3472040633474218 0.9432187077994272 0.8778162711342172
Ni -0.06367283092365189 2.101313596972377 10.18597183814593 0.31213423777295274 -0.8769233270063027 -0.062341795462015216
Ni 5.384820951656278 2.1080527257247867 7.365175450759794 0.05362035642861734 -0.7609876574782314 0.258493055408729
Ni 1.9360396778005449 5.293245924167814 4.615639382037081 -0.4853808252073511 1.2063698308054578 -0.09165082883877765
Ni 7.292306555315142 1.2417716956875262 5.676868533055148 -0.5265922664486544 -0.24989425799612447 0.04627780002061708
Ni 3.9960003648262563 4.217023588881782 11.19108442930742 0.6168145903710216 -0.19728023134483444 -0.6741689599207744
Ni 0.7234564892203557 8.121999808678899 2.0544491080201643 0.3730192461837834 0.2687252746596985 0.7212468872451837
P 3.481219069335656 9.226546683748559 4.6801945430330845 -1.1000176912007635 -1.7286177042424873 -0.17989211777537406
Ni 4.941516655263102 7.609568945014752 3.744274625037682 0.2676055592329585 0.5292281614096047 0.3686745960618425
P 2.8706393141684323 7.215109560015061 7.7969341689429505 0.5018417989768519 -0.9897613314456567 -0.6040382645419597
Ni 3.0531191288198496 2.048943037839211 1.5486738226020962 -0.6828235502719788 0.821500627261624 0.4803154948693018
P 4.064750495750021 7.451750301792452 13.178639880291746 1.1871559768811684 -0.11630282305950293 1.3219756277979362
P 8.998095727866467 6.974787087134515 0.30838032818042543 -0.6877204733529639 -0.10107597880741948 -0.2105134422056568
P 8.93580928446545 4.62618235417113 7.884037867136561 0.41618601137924455 0.2410344936126494 0.7738827682733446
Ni 7.206809597627897 7.316058770686373 5.062180112878792 -1.1919688248887794 1.5542827688399168 1.3421922119551273
