# total energy = -340857.31697815505 ev
CRYSTAL
PRIMVEC
9.40889052887162 0.00000000000000 0.00000000000000

0.00000000000000 9.40889052887162 0.00000000000000

0.00000000000000 0.00000000000000 13.77086235423534

PRIMCOORD
 96 1
Ni 1.6150548478301248 2.716770046586753 0.5871919112760235 -0.07723002542775731 -0.38233692404028347 -1.0401567531790732
Ni 2.3372718628639872 2.2374059005980715 3.003136210873236 1.6363852918686268 -2.119399416616014 1.7465277517536888
Ni -0.09787033662086184 1.3041945192731634 2.2878356711419623 1.0968830022265237 1.431422347167554 -1.258188615248962
Ni 7.610014019809446 8.312510000651736 6.424520179521994 0.821928715937978 0.47931147908481964 -1.1982451448157945
Ni 6.86054885829715 4.40305960332165 8.04598436346438 -0.30875812221186827 1.5191877249089965 -0.07519499727559953
Ni 3.9662048239730106 9.903703902532513 13.802810165802383 -0.3591805405284782 0.2878475973114462 -0.12767584078313496
Ni 5.644920223969255 6.455543172812288 6.214748968977562 -0.07337645600962202 1.310052393997789 1.4992930428675983
Ni 7.202176258326651 1.1828198336475455 3.166086901215326 -1.2127536228446147 1.5093159743212392 1.5903957125123902
Ni 0.5334003442070141 1.3229746644288796 9.353334624563809 0.4272304421188642 0.24901622626654532 0.5715621462911253
Ni 7.848068354771753 4.350125186164306 11.48104321336029 -0.22574748554659185 -0.26077593790563475 0.22148176829170244
Ni 1.5481858640517319 4.699806596340748 10.693721381490269 -0.17670523540696018 0.6063846532869492 -0.7842080614587527
Ni 3.6818775662272305 -0.24547324501004383 5.614628301459821 -0.2760999698572148 -0.5769151830729226 3.087146705684425
Ni 5.76809200765336 0.7319298125510194 9.707810805266982 0.5993588567884194 0.9619085708994466 1.055554318681066
Ni 7.511700524452696 6.283746243755066 4.63984373808555 1.2509473603055166 -0.039285170752867825 0.6988484649453255
Ni 8.747464184147944 7.1495335167704255 0.046846865095345185 0.20900111932618842 0.582554640746887 -0.07264986225624263
Ni 0.9845556960116519 2.9239914478440103 7.596805819524079 0.15170742781104196 0.0964374515941436 -0.755972463651827
Ni 4.937541029030864 4.3288422761732095 6.2903230581157095 -1.6738202967866334 -1.4365663532623387 1.4940024838926205
Ni 4.134407556913256 2.4873624818639763 1.5446641163905173 0.751223636112932 -0.03913090456319067 -0.9453709782557398
Ni 5.4579749814347265 4.641038667161089 1.1066360484141633 -2.130893533298543 3.2519019678183607 -1.780507194022927
Ni 0.5603991550909452 6.877221412012545 7.047004838533033 -1.0817708291754335 -2.47045655670641 1.4062715589335395
Ni 7.92144829067828 5.872982317370755 9.606057419595135 0.49320752034062154 1.030514859213935 1.0917657356046166
Ni 8.875396866353487 3.8360704614235583 9.364530263201479 0.12737245061010322 -1.8721428533530533 0.22627019081928126
Ni 0.04129656067282176 4.923380649041209 13.406609319915074 2.1214491000561915 -0.18363050177188375 -1.6689495989578935
Ni 1.5514131134447233 8.394508480126717 12.566806579402991 0.061789008282338735 -4.253811247480461 -0.5630592510264367
P 8.50990852037464 0.7071204504535287 5.472953934885577 0.17372969771840402 0.4155334653969102 -0.522864423975106
P 6.277084749381194 2.8411649860174744 10.843121387937938 0.26314006726243716 -0.393479056700032 0.12431309495848912
P 3.445441560406598 5.887217968483279 5.111440845083228 0.16607192406283014 0.09300271488098176 -0.22198081941530803
P 2.383460105634232 8.704004519581684 8.096991839876287 0.35616180830681243 2.343644863695783 -1.5686578066146661
P 2.110489378551253 2.465891394065708 10.501521273690475 0.07322218981994486 0.6590986958512133 -2.295552121953614
P 4.322274870702924 0.7958265278651385 11.552692854329875 0.9350636827924607 -0.10594590530521109 1.6474955428491755
P 2.4978722123945047 2.4869390817978405 5.199602147743076 0.3756816235072949 0.11731943724947537 0.79079702753018
P 7.93155343892339 0.45968921535986546 8.911565581780886 -0.07584060127939841 -1.0570188190417344 0.2837831974340855
Ni 7.558867291820232 6.367250145687419 1.9992123140584575 -0.8371211074077002 0.32664734378746324 1.1973627422108413
Ni 4.8694677072865735 8.331929950351835 8.460583353558846 -1.3461856493852364 0.6218356977346968 0.037716026493535046
Ni 0.49238981380109303 2.9331557070532623 11.852154312217424 -0.6651150772486223 0.10080241343105865 0.044325818500568825
Ni 8.852288631632828 0.7301458869390336 11.695358917947912 0.45945330670831197 0.34088945552877414 -0.1280604778160633
Ni 4.696729889193494 1.7906153330307768 5.989677961821053 -0.9977057831037139 1.2195235945785965 -0.21556925946200942
Ni 7.08763242710136 2.64217636382397 5.545608445345458 -0.5452535903035836 0.5326343588776762 -2.0140122120277506
Ni 3.024516032435026 1.5637763953758907 7.729653706052943 -0.3706096083010263 -0.658708145281014 -0.5994365041038903
Ni 6.697944415120257 1.4656981222781045 0.9502725222121121 0.13103035907766467 0.1537522261552126 -0.525689809239043
Ni 5.776108382238865 7.259222360570693 10.403803361093424 0.19283787930276466 -0.11314653681870836 0.14093913355094437
Ni 7.982304993517544 2.157515012563411 7.478184175217379 1.6627051607100782 -0.8522111689716032 1.6104014662103556
Ni 7.838828824439633 4.294537461925845 1.0013496244126727 -0.0546588249954607 -1.3584415839344541 0.18036082988167648
Ni 4.867698835899161 4.441617236011091 10.986463009883723 0.9575132700452283 1.550774241466026 0.45115687102747465
Ni 3.4668561948627152 9.001654766075205 3.4467917361730533 -0.4778534064820545 0.7068818767727633 -1.799038420057895
Ni 3.2451733291243285 5.801117212811959 12.054531075829049 -0.5935463638717003 0.02939413689140099 0.017552921282098802
Ni 7.5565150692305885 8.06341903729882 11.796492257745129 -1.468468344177258 0.9504910730911243 0.6511755843493946
Ni 2.7751616201520704 7.045132469351676 2.4906668841579083 0.6588860656197749 -1.5228286640956934 0.9198057281921256
Ni 5.949137875933061 0.44862718296528875 7.276027579640144 1.6934360141350318 0.3789587515966699 0.37285906645683525
Ni 3.044227657736241 4.617911614659711 8.403379181956781 0.4656915743085399 -0.07611673775892053 -0.5327279470327471
Ni 0.7966469831044062 9.418205160030041 3.9528573721103353 0.04162847417406379 -0.27184350857370604 1.1743919923472808
Ni 5.776070746677431 8.632741584005837 2.021163255265013 -0.6311142948231453 0.5764588122617943 -0.02130981722136975
Ni 2.088670161809717 0.8806909553433421 11.894045514760906 0.017643424113376067 2.184849675800024 1.2979535538517257
Ni 3.610360590611702 4.476787668171444 2.883411844616512 -0.8769043008429092 2.0659227848541133 -0.29746146625212644
Ni 3.0700550617705296 0.3459507851492668 9.878486194593462 0.5638213260034418 0.36065403975021115 -0.9999755529744973
Ni -0.10160378431514441 8.364926928839356 10.222111102046087 -0.47721808689090073 0.23794197073025475 -1.2572730454132284
P -0.19244097539297136 6.823750688104764 11.723892318849328 1.5873918926890598 -1.6716230320249985 -0.33628872353196926
P 2.328446323707644 0.525861000362688 1.7677376161239016 -0.26379904100267476 -0.8187562317472674 -1.3869114092393726
P 5.035562848786499 6.1447581153781945 8.766035451937698 0.8525556967952155 -1.6508721726308924 -0.5201483105955235
P 5.0065834664820885 6.658681115653923 1.925386396748934 -0.9137032148388134 -0.5988207248967623 -0.7995308078587521
P 2.479487240633849 4.934389050760742 0.10770921326882377 -1.149353047100782 -0.5384095707985566 0.5319651007247935
P 8.40519697957406 4.380318315324974 3.9129354503189013 -0.39917096487848674 -0.2058489468504519 -1.320655623434932
P 5.332149890669503 0.2717541575596157 4.424550449789671 1.13637283279103 0.2653566152977817 -0.9064244217892132
P 7.73841714653292 6.181274018859825 6.948969846330896 0.8274645581545426 -0.7304594069823872 0.00450225874572773
Ni 1.2506861598039472 5.370519345551771 4.120820178346438 -0.7746224746528466 2.0562065860076135 -2.583273220989525
Ni 2.1176871796755625 7.5677963287705206 9.837422033512496 -0.40187936494858534 -1.465710836036779 2.199355068505051
Ni 4.042962551518266 2.9676675168885156 9.483937549853119 0.7722748003562764 -2.285682428248386 0.1265311856557305
Ni 5.0918468309114955 7.106233803340262 4.00503531448285 -0.6371054794095737 0.4079286564664587 0.09202209613526732
Ni 7.339508422000414 8.511065813888745 4.083735036998115 -0.3646269083550301 0.5537806539379881 0.09187502903444178
Ni 1.8112584384774904 4.520990635076029 5.914351326499338 4.1297987144815265 -1.2964263185739222 3.3708283445436398
Ni 6.685148324232594 1.2910691172229516 12.462699089363431 -0.38841989700956975 -1.000336792968658 -1.6461817091337585
Ni 1.9143140145749629 7.638965175442782 5.4745920226970055 0.7401097855879576 -0.42792361153114694 -1.2955593425879366
Ni 0.8044902341073144 8.058084196465508 1.839112517495016 2.25675417524981 1.1294020579001516 -0.6855661460141225
Ni 5.277249015427216 3.0376790700466723 13.038169405030741 -0.06905520292644882 0.4915453021468502 -0.09463048029239186
Ni 8.142613667446945 8.770553601087887 1.7553583390791243 -0.8970992877335454 0.36389260129216683 1.1012772746394777
Ni 0.3182613617130162 0.2496931323358647 0.08997157316483807 -0.10138631095898669 1.386094312654716 0.9428137590515246
Ni 0.6222456731959308 5.777943115858788 1.8470997245204104 -0.00501082295103008 0.17245828720514816 -0.7822409104300527
Ni 9.534969489379959 2.6067895271853696 4.526399806143174 -0.03644384464933078 -1.632750523329517 0.6603695921438368
Ni 3.2332804917110893 6.863051623132532 7.945691237576185 -1.0425969871894496 -1.8742208189280043 -3.109471080213238
Ni 3.4772059742571475 7.387390265035202 0.2438417434218669 -0.3122951888308493 -0.23534155699293016 0.43882097516994106
Ni 9.829938202121285 9.0736798217701 7.509774524596295 -1.2404228066251088 1.468566046097387 -0.49598971107144907
Ni 9.084020192274172 4.519184128127184 5.889191953680507 -2.751742184529622 0.7565062246681101 2.153103236626363
Ni 7.083699510931475 7.638193646433379 8.460597466894384 0.5364262218199406 1.1073083113249058 1.0129411119962297
Ni 0.8781119784960566 3.59815725981663 2.5532830494942247 -3.0009882674187867 2.6724465348220874 -0.5202285290141556
Ni 5.868908267845492 4.767051935733485 4.380992932763684 0.5015846886607234 -0.8218796078675974 -2.2748362295625015
Ni 4.591801943914666 2.7430208506871776 3.918553498752007 0.9864266106454689 -1.0644657622380829 -0.15191774404963512
Ni 2.988743431291724 3.251307925638119 12.292848859721397 0.4416494457576716 0.669597538500008 0.7892584793984665
Ni 5.368816336396868 7.03361598755278 12.657157330849278 0.5734938160961994 0.9536815550039642 1.1077022043292148
P 3.822032397008565 7.760104638809436 11.27854225239593 -0.8929790949175848 0.5084081393404598 0.25188969115959847
P 6.285994968550765 3.212571524031866 2.131853204999433 0.22436037539107812 -2.869660174595045 3.1944825493586273
P 5.827245701337722 2.6635533627186527 7.645142111963186 -1.4409238589000861 -1.0906120816161475 -0.3349520069984167
P 9.231655090890573 7.3661826261669745 3.610898779140212 0.8712399034682802 -0.5747279456136166 0.15866457585516547
P 0.9904927058279129 4.946338341516132 8.441965041317298 -0.27734284112538043 1.2264324058832878 -0.5522737303751586
P 6.950337898989032 8.79806519649636 13.871389685847964 -0.9392162715082534 -0.7479472793545054 -1.9883580017947562
P 6.404706938204906 5.268094165108323 12.879887406084576 0.45615560979364667 -1.7061107813892231 0.4395018032870495
P 8.705914524324475 2.2588111261638297 -0.29200397138934087 -0.5161461314146659 -0.11970053588714225 0.7558127981455112
