# total energy = -340893.4454428518 ev
CRYSTAL
PRIMVEC
9.08433268293308 0.00000000000000 0.00000000000000
0.00000000000000 9.08433268293308 0.00000000000000
0.00000000000000 0.00000000000000 13.29583913989462
PRIMCOORD
 96 1
Ni 6.240718573382797 2.108055751333047 11.667683513231216 0.22793909388127198 0.18690043077240717 -0.3492478547957985
Ni 4.656401857927623 0.2369248486482313 6.1809827265366275 -0.36846248005103643 -0.3637943851514057 -0.7631869791223953
Ni 2.7725837761279815 1.561505955926799 4.73403656558572 0.04040668595182073 0.002629724313363213 1.062438447395409
Ni 3.502664346027156 4.4430381346926895 4.862674351020044 0.39577685159527326 -0.20686376126821146 -0.08826468597536413
Ni 5.346720303392033 4.329111517709281 3.1175822061705603 -0.15678689921647837 -0.020188302022416844 -1.674609111236516
Ni 7.290685752311294 5.981442632443202 2.6608564761026856 -0.34491734574124466 -0.43043095133403286 -0.572363044925866
Ni 5.049253827582951 4.542139120632567 11.36888618267466 -0.24385962176627035 0.08366009732381721 0.10102532807514215
Ni 5.630224159768574 7.828932467586544 12.594895920612517 -0.7650471722595857 0.1678038191522723 0.17151314968305945
Ni 2.049897853085078 6.20036596731946 0.2568985710596354 -0.41896537389659455 0.8518740973471588 -0.08677601724497959
Ni 2.8669609090392822 1.7288121121331164 0.5469976530106878 -0.5839263242834332 -1.0333569566484204 -0.05578188285631038
Ni 0.6727393531651843 9.003918233782857 4.61764536912798 -0.07352069489697015 -0.5602559772496867 0.21321335763532315
Ni 8.607014651722249 2.441496184821285 1.059632908971584 0.17749739229095235 -0.7224319086922203 1.0573710601748307
Ni 6.755682143826815 0.6990821012656935 4.966035889018387 0.6550306964294267 -0.20010458816750698 0.12427761373486339
Ni 0.7107572857124741 7.15103230498764 2.2120023203603134 -0.24356343068209022 1.040802614293188 0.1630583340474869
Ni 7.805631154089818 3.895234701367319 4.0719567684661735 -0.06656277552189827 -0.3941390588815341 -0.824782126226373
Ni 7.630512471720857 3.9770572864219047 12.762848881310438 0.8837897151088328 -0.44203639678344514 -1.7726745853523858
Ni 7.84423956826568 8.786730006461326 7.101453650586186 0.2681766012450801 -0.005073814978481584 -0.19157572476088944
Ni 6.768118595357817 0.8183766504694583 0.3927020781649988 0.9817569730839415 -0.26730422594245573 -0.20178351853182666
Ni 1.8220627877837567 6.496397118554474 9.154184907055134 0.7224959291609363 0.7937476255180717 -0.20897772228742076
Ni 9.103319002703392 4.99558358971213 1.2430828329030597 0.17098890174847325 -0.8496218109778724 0.367277972824632
Ni 6.328645830043541 1.9466362427469555 7.2414059724572235 0.8779240003566751 -0.32834298632233133 -0.35018296501555823
Ni 3.6146469158026497 4.167301382815057 0.3352482157049427 -1.5605909704461316 1.5519770035248754 -0.3028661822074655
Ni 6.050756091304809 5.667379080704873 5.005232059522997 0.005694222171299871 -0.6835182623461583 -0.9761445119931706
Ni 5.016259531044898 2.798537714786908 9.495635905159906 0.644714144994767 0.6239470876507448 0.11050961341649355
P 0.07094954718938795 5.78867309154631 12.503420323580691 0.8914567447357873 -0.24082289182247554 -0.7077622224951875
P 4.078901740851455 6.197013848535721 12.56688165528651 -0.981082058504104 -0.637737713676934 0.09069077891835349
P 2.3684581495333012 8.509430749351164 1.5969630150726362 0.9887578298818068 -0.001441617542533001 -0.2813576187117283
P 6.433206499964522 7.69419364427916 5.800150237539201 -1.6849557445781627 1.6654446711284285 0.1632892191113704
P 4.690686129715788 0.8561338626669018 12.837424894132532 0.6193574113975333 1.2249447655941679 -0.868538188266401
P 3.9069262376130447 6.196795824549786 8.074456545613334 0.07338468353973814 1.1338459526041182 1.0372979435740395
P 4.727350496683736 1.1161556273250457 3.8873177053780807 0.6810566881795431 0.19148573615024442 -0.22226261232178496
P 0.23504075803644922 5.554524414985642 3.572631876846565 -0.18157233369127437 -0.6656213274610795 -0.3161361598434942
Ni 1.443927437178992 1.2742866074566288 2.6948137119119497 -0.7233145684074898 -0.16520777629032193 -0.8451401210574349
Ni 1.8290758926646429 6.554591354133432 4.599855520309018 0.3307066014585014 0.4638594061958076 0.34562234222806926
Ni 5.8965222899218 5.741579910584506 9.295493519805337 0.22280897174355824 -0.3685360136014491 -0.3572403860829718
Ni 8.726046663709617 2.5517527313747985 10.564354963745302 -0.18741953650067078 -0.580733014157116 -0.326978758984953
Ni 2.1913409139599413 5.384992597256247 6.829979267633569 0.12831193170523708 0.5239044352038462 0.39763370229835393
Ni 0.5254641506665789 9.090782623512172 9.08793195989608 0.5371921534516878 -0.4921641666777717 0.599919871498212
Ni 1.7105980249748567 1.2487505481040764 11.448967301141595 -0.9377599986777012 -0.8497164275742076 0.1852194435255584
Ni 4.1520669567979 6.752557133361757 1.4940538768451068 0.4632536542910086 0.9448253901649147 0.33043972095035995
Ni 5.650809257773869 7.9471014679629235 8.04285215198561 -0.6235138567680681 0.015857278747230755 0.6403363276420456
Ni 5.592360660877986 3.0218669510455873 5.042872083828001 -0.27346664599942583 -0.6472040012961563 0.08178910555334946
Ni 0.8212627429832634 7.5616532294966134 6.8238364418298705 -1.1518814699495903 -0.4803149806486696 0.5497661334619564
Ni 4.951433732560438 4.665686045995324 7.026106377913848 1.0665817801398212 -0.1989895007264573 -0.30428054605648885
Ni 8.364263112049924 7.10943514533793 9.227232935109141 -1.2899576801304429 0.056689225161928175 0.11509183347053728
Ni 4.7005426307465665 0.4243836886210737 10.46951634673044 -0.3759338487274171 -0.938197600435752 0.53304187872874
Ni 8.114734660148143 7.1727347759208495 4.617738029322003 1.1219489440562163 0.6310518170163262 -0.03739798103248398
Ni 7.0679651663466805 6.185394986951972 7.034655643462297 1.9336798935255861 -1.6124326377077713 1.9171975795998464
Ni 2.395456786458163 5.247564811455672 2.5266881488918296 -0.07410536375584656 -0.4047404885464642 -0.08078071889349314
Ni 2.313334418422918 5.334447369850483 11.289549979493 0.7458652000144962 0.0941478842290185 0.1880815955647019
Ni 1.3278296646689884 3.5258112258671788 4.004733614569711 -1.1750170275257892 -0.25905124190504414 -0.30692801098166494
Ni 3.364991283242406 2.8378456225843087 2.7166987779333778 1.1550356993078559 0.30944434964561546 0.0903303102551412
Ni 1.0302632611996871 3.2238207523499605 8.366765845721794 -0.6585965594038141 0.33118534086713286 -1.0508947084218676
Ni 4.017764181462384 2.522210481280704 6.790119032405134 -1.7461451716032894 -0.16774802621367238 0.6762844636018804
Ni 4.041138169621088 6.841547256953932 5.799100088673618 0.18567530011605443 0.902585250548781 0.5312328505444592
Ni 0.6577220427006861 7.610808553992046 11.350963702597587 0.5612777336459818 -0.31558131578128873 0.0063663085376600035
P 0.17331271701880657 5.707359229125572 7.878449348525319 -0.09034419421221214 -0.8285601052115666 0.6494570589963912
P 8.581896471676071 1.5347071743223775 8.069018664030823 -0.0032694147798911434 1.239397193574072 -0.1007021404077685
P 1.9921396654779888 3.340499922155789 10.429402658618358 -0.17961186753079392 -0.34642169820091306 -0.9637826479937079
P 4.209934156397956 6.184341204353291 3.678187281203371 -0.562687983729947 -0.3565567297523859 -0.24687783976730385
P 6.920917072166756 3.9082616345268923 10.425227499287717 -0.5222872113153973 0.7644979846243349 1.362024930410338
P 6.295315413193838 7.7399060066633805 10.378453178405342 -1.2526046934032815 -0.28417786176934284 -1.978104185277232
P 2.4194303405781863 8.46273727903024 5.866655729148628 1.4111556264987182 0.6091426756480606 -1.346790887069403
P 6.966411410565042 3.9783200086737738 1.5452159304444095 -0.2200270381230469 -0.5280369693149809 1.015871141158831
Ni 5.173009692598897 2.7637992263613795 0.8749384314537334 1.4346899621752325 -0.9909445531204804 0.2750663863863779
Ni 1.450322807433064 1.0521019971241041 6.912520423408463 -0.20240829660001913 0.9329031848060321 0.0883850136033123
Ni 7.074088006618335 0.6589611456874125 9.364112935645053 -0.8707462516613135 0.23885291258029834 -0.30028145219942476
Ni 2.557484945338321 1.5000867822225634 9.163425490325649 1.2482569579575469 0.4968158065171701 0.05147477084052425
Ni 6.619489827279868 1.9867435718261155 2.9352696406990413 -0.271185563274733 0.5842435984135358 -1.4449208958746214
Ni 4.033225715798223 6.882036128008477 10.46535481389892 0.2547742117962451 1.119798987592749 -0.5400771883089667
Ni 8.067423455200403 7.545755647188905 0.271041968713847 0.2400716154787478 -1.0886729556119057 -0.719572070645922
Ni 7.567939587757718 3.6158097103942994 8.464835759894857 0.9378165629472495 0.29830710208187333 -0.518907496209887
Ni 3.027026852046032 8.508704002731383 12.493143217943713 0.523454235040305 -0.8460865441311041 0.15588289934497024
Ni 0.22478000419841726 4.9138245949867745 10.207401551807328 -0.833233599427836 0.10559752082685685 -0.1386827334165999
Ni 8.551309523316041 2.4769795885320884 5.998391272049767 1.5584538694984709 -1.297839911091997 0.08774969401215856
Ni 3.672614043062926 2.5592836432222787 11.642661627112156 0.684699170028137 0.3125736393032165 -0.05860032614171198
Ni 1.2448079476917648 3.4509109023660067 12.4703806053789 -0.8598378322789256 0.29162223386253006 1.3288091057800018
Ni 3.0799975962953146 8.501273018544124 7.986863592397687 0.6283331325335824 -0.9729509447565372 0.42860443964825545
Ni 5.832014443083495 7.861163680173828 3.616082240376717 -0.8416156528439441 0.3214655424762077 -0.17023171186747457
Ni 3.181951062717832 8.413018725904477 3.5962847540206098 0.6911894057381709 -0.2867296816569191 0.3285180784476149
Ni 3.219978079597869 4.198778595784319 8.696901398956578 0.1524121671875504 -0.13552284763137948 0.9995502925116204
Ni 7.277013831526665 6.147658668719848 11.404200617796365 0.3367630920652265 -0.9334749981491022 0.30941169663546714
Ni 0.7915551580331684 8.946559756816646 0.315153671668 -0.025494287616362545 0.8151592584246284 -0.280515068205775
Ni 4.809627298375684 0.24859549092863828 1.6516625078437221 -0.9349053028377252 -0.27571533282428645 1.0755413033259542
Ni 5.95016527479438 5.4133720527586915 0.19149591744572542 -0.32694276354069496 1.123022379626053 1.1154435388375306
Ni 7.665696092450999 8.870623819382287 11.44566968835434 1.120455390229825 0.4718871615962905 1.3292096836525302
Ni 0.09756119153921614 5.0177402772827016 5.715416123839118 -0.46502514436913467 -0.1261267511284602 0.9705186811659607
Ni 8.0211569485186 0.031191056487722756 2.3652368451411223 0.762732665193796 -0.5087845488432721 0.3923559988391823
P 8.623984185294134 1.5839805951435244 3.8981008083490805 -0.48378288459261193 0.9812437808929488 -0.3722270892997912
P 1.5420382308494176 3.2697057170563792 1.5446572439804531 0.9578076613571956 0.2870582686409315 -0.155802423816022
P 4.787343430146652 1.0163642320963768 8.377030233292926 -0.7628967015754862 -0.6268886867775719 -1.0603594533791934
P 8.809795127306622 1.3889672240580593 12.429814517496002 -0.7849662797810159 0.6080496996941979 0.2831980143545768
P 6.418344531590002 7.676906159061121 1.4868209311117373 -0.8632553426009069 0.3913645814601905 0.2732894969916132
P 2.0074649348226195 3.389101102353638 6.1022451808830125 -0.45509220152613883 -1.7190588569094587 0.5513874711154633
P 7.1201728266451925 3.919526207133497 6.342820114429093 -2.0303410310947614 2.3425737421187915 -0.8352876537433872
P 2.4006893621205854 8.57602799272134 10.21040664908012 0.03187782254520317 -0.44193766642205184 0.43457248430623224
