# total energy = -340861.2161795275 ev
CRYSTAL
PRIMVEC
9.28849729839911 0.00000000000000 0.00000000000000

0.00000000000000 9.28849729839911 0.00000000000000

0.00000000000000 0.00000000000000 13.59465469190552

PRIMCOORD
 96 1
Ni 0.9670347373928252 0.9526004126633687 12.4380353269793 -3.304767705469141 1.4054274657656893 1.3769373287457964
Ni 7.947934886021705 2.356891158189506 12.810283929395723 0.06551839341778394 -0.4514636036346161 1.8538311995280587
Ni 6.174788626125266 4.303249314839423 3.5453088679339015 0.0823830303836065 0.34419126620849755 3.358944191511544
Ni 1.8008259817071086 8.972651191348845 4.0134816391701715 -1.3559388721172583 -1.6313947806325713 0.9120893333844744
Ni 7.464793701463995 2.2590554166352166 4.251918292476234 -0.46212519711352024 -0.6075825302497924 0.43230579975924255
Ni 6.232423751573322 1.4952808646057745 9.255975436474452 -0.18771624180548319 0.2912795058111306 -0.35526500752415585
Ni 6.961487189372403 1.8674895264840132 6.790258386782206 -0.3371215038459098 -0.3766167337270546 0.11681447258859881
Ni -0.3698224469342248 -0.09391135146536062 9.788953124187522 1.0517966514108466 1.1740289525809071 0.11398034557391339
Ni 5.99275265698248 3.078756010618364 11.489807938822127 -1.356866011917218 0.14150606179800793 0.11086751097654456
Ni 5.613661218640582 3.4773532931892572 7.893355676169525 -1.0220428171871818 0.7391373943723593 0.27772516416546367
Ni 8.887689306985692 7.327444692600112 4.852326754839215 -0.0647051534878692 -0.8557875734689521 2.711903712376446
Ni 4.123804836429919 3.16393153041831 2.5199730198400596 0.5262652221265389 1.6664332602939431 1.0487558077019938
Ni 0.9957454823984561 0.21217528502575933 6.78983668900697 0.3691525641395256 0.5922762389100251 -0.8205963702797996
Ni 1.8317195235669363 7.275085433591138 5.901099339199058 -0.8563606723636026 0.8537098650043169 2.133919207498744
Ni 8.48338888710213 8.195547645762923 2.957816060999692 0.10561551854898585 1.2376383019014363 -1.3757682481383597
Ni 6.279247066220162 9.186305205137108 4.29815364524703 1.0500164195819723 -0.3233293351578238 -3.1464710544763554
Ni 8.633890408074707 5.6663455750533736 2.9436780393325708 0.12267170270032421 0.49344586160367276 0.15108162130158498
Ni 8.987698556896929 4.043589374162488 4.730069696310223 -0.13082827036918757 0.7818259343798213 1.1881607639965988
Ni 3.7225417551477284 3.057076658032423 6.320141533071114 0.22014967974384017 -0.9936987188268498 -1.2339757654481844
Ni 5.311589999511459 0.06550991341821823 6.3830162998189675 -2.55011576040095 0.2607108889956542 1.1058109008437729
Ni 8.66939104457148 1.6873298337861113 8.133736411950412 1.974287896854935 0.8009623980989561 0.951050030918388
Ni 3.5500915151689063 5.477909831304027 5.986991002137125 0.2350890746624919 -0.08338601772682412 0.25004132509695004
Ni 5.952654214346016 9.317848903218552 13.273236565176424 0.18809547952177286 -0.5022336350986318 -0.28881304654850903
Ni 9.104222754922045 1.817192313864961 2.7292354321276227 -0.037767448556760765 -0.6453926591190304 -0.11676227919442471
P 3.9128166213529525 8.255774261944259 12.476725633432375 1.4735195334479203 -0.4087992319968701 0.8540037420956519
P 1.0686694743231429 3.2602439584232874 7.005583401226086 -0.1388997345234124 -0.502072169820103 0.706039583377126
P 0.26525347372203123 5.785284782363985 6.779368552604076 -1.3940950714720055 0.46693444557670555 -1.5847521410733674
P 5.933445602029082 7.339027448673234 5.414478683570784 0.5442066370963079 -0.17032555713286152 0.7399022975628419
P 2.504717591953535 7.538219272240284 2.685175445413223 0.20628809127039957 -1.1226071464655054 -0.9588530719025744
P 4.999329298897 1.1067244475641875 2.26212340727752 0.815384487061557 1.5483224374914237 -2.339315897303126
P 4.290431188631798 5.253527603189816 8.266718898256176 -0.5795863021471824 0.133838260840105 -0.919026941044572
P 6.692603770924329 4.54031034170248 13.056876812138682 1.8493145426046278 -0.9896757137103859 0.48727649956816727
Ni 5.98059401407974 5.687774138213512 6.753293883118535 -2.054084397458288 -0.7584872596538809 -0.5450101068342098
Ni 4.891954270665007 5.42231817525139 12.805172469358002 -1.4057617091766563 -0.020140736613933057 -1.7180607546622475
Ni 6.981132361060177 7.0166329975569495 13.005937764359523 1.4708075338333961 -0.7776862011798349 0.7933331636884725
Ni -0.005056657903935742 7.782218806550512 11.751545716334313 -0.4176582250493968 -2.5384336960773313 0.4459393313822772
Ni 8.894562794952101 5.238851777531811 9.632655580929757 -0.25028866522106574 0.5320350347307805 -2.2191132249685843
Ni 3.8867995405503732 7.600795878226352 4.7346099137669535 -0.2319117053757748 0.6583422773011629 0.5119053538604409
Ni 1.9458287123065592 5.539808376990704 1.7614594726540953 -1.7102602847812223 -1.1539121272263742 -0.610923164587251
Ni 8.057353383649117 2.3766292148497987 10.605013556097648 1.9830769559014751 -1.5703776175192503 0.33708653684291623
Ni 5.480928592910894 7.1886095241759245 11.243037645781657 -2.1458277860108725 0.6698824167302785 0.5344223040160344
Ni 7.797442653546381 4.300750709078662 6.968171191994873 1.3118459955631019 -0.6122922770206358 0.24328626576130358
Ni 5.387811407960572 7.166038475853801 8.76149671217107 0.8231286497833502 0.2782722949181853 0.027948662694126054
Ni 3.315018226717757 8.265322837119214 9.614506786149265 3.5781001398835475 -1.5675105803841005 0.4284424601490944
Ni 1.9885836651570665 1.8111919446402318 4.56891891323834 -1.446486183479212 2.7375383822254147 2.8291357321184374
Ni 3.4723282161759785 -0.13846455738383634 0.8342510249282525 0.23676954768870836 1.9132316529735631 -1.223383848864951
Ni 5.66208215481475 4.817804197103068 1.4657350836971978 -0.03420595645774754 0.604770514722294 -1.3542483717887128
Ni 1.0191153414842429 3.3296754753812587 9.843060478379304 -0.6689200528170093 0.6730338178750667 0.6773388730083237
Ni 3.403955587904724 3.582963506943389 11.981880013487544 -0.1627372032626423 0.3668794518346327 -0.3312488471152166
Ni 5.980547571593481 5.266986635707823 10.154921773611932 1.750420401939876 -2.978493942971012 -1.3888366512865435
Ni 4.070971864061097 0.8934624083599557 8.244423718302434 -1.0095577973462937 0.4752378232360784 0.039433009184641765
Ni 2.2066775806317382 2.943673395083945 1.1797032416226607 -0.5439724095983148 0.4573529725358575 -1.9912191253926352
Ni 3.7532866810515264 5.671862942421003 3.1624704498005856 1.4750385411956082 0.01985225883923678 0.006496920578253328
Ni 4.5037322395244885 1.3006125392004013 4.2684768965272015 -0.06235850763256357 1.3275744620419525 2.3713137903659613
Ni 2.1318401582731594 8.634568468374097 11.554300761791263 -0.0013143479360493491 -1.9128282468875573 -0.20785183621309364
Ni 5.09750871484961 2.567043408513801 0.35906729596624687 0.3037424141648317 -0.30612248436123407 -0.31781586153876235
P 3.1284773364077982 0.5347982331744413 5.906007381146963 -0.002145842698409208 -0.9803459516690278 1.3608964732328497
P 2.9587579146210348 4.099088145242606 4.382114229606427 -0.491292819816412 -1.1115377760252214 -0.23656463076675385
P 8.981400955760137 0.5392790042487592 4.616799258872447 -0.05003058219482997 -0.2693171426074265 -0.0403398372696273
P 9.208681195016942 6.556898826074033 0.8335590318829857 0.1455043843241236 -1.1540697358501608 0.36638477158640126
P 1.2261466567318986 3.964172722658722 12.012576639205632 0.13362665904993115 -0.01590227305255326 -0.5238913225777235
P 0.9371815072252105 1.275933002002096 1.0462442554078746 1.4342690725877298 0.7401036149403706 -0.746942749349391
P 7.017115999414048 3.20586909551065 2.028064422726278 0.49955223161172674 0.030985906858553087 0.9511338488814459
P 6.888693236409243 8.43476360398842 1.618416614974796 -1.3671892482200971 -1.5802365125912012 -0.5298087165034231
Ni 2.8567423493033894 1.292438661618727 2.6570619507808892 -1.5562812873271843 -1.3795685957210562 -2.282820790429875
Ni 8.442621672663531 4.60568278536137 11.769082399145907 -0.16060190208719435 0.0982433944546308 1.072506116044056
Ni 1.1771684107226166 3.6013082890158965 3.0782646491137378 0.7981418979310254 1.2750905332106233 0.594167285285151
Ni 4.976238094728771 0.42914343463350035 11.155801008441514 -1.6766035159587256 0.6189781736812436 0.09470709916659818
Ni 4.7881738908694995 6.928800967542959 0.8880732222544018 0.33836977443071403 1.5772607177923288 0.3184776634924773
Ni 3.7649065911136566 7.601343899564214 7.133455356343852 -0.1488578741773888 0.3662091652404854 0.7749356350178912
Ni 8.62184322713899 4.1484565081364675 1.1804602541486906 1.0234363551005987 0.4369350710011378 -1.6824226937436637
Ni 2.1453642102719295 1.3856765970333247 10.454778614996199 0.9404025785068707 0.2527690084407582 -1.461002374817516
Ni 7.44421968005103 9.014978873325765 6.165665464124448 4.760788825021981 -1.2914301509109112 -3.5108429093977858
Ni 3.8295916859759056 5.376210074892945 10.34816988778749 -2.3633459416691363 0.6491022467601337 0.20076047658395105
Ni 2.9038721843595425 3.172096119502732 8.527995037454943 0.9472129165604849 0.1649727774613804 0.5764734675498135
Ni 7.056703574701657 1.2935254157971994 1.337549177372317 0.47889110371794946 -0.9095058889280142 0.25821871870141977
Ni 3.0820441386455375 1.472477603852354 12.797586553652373 1.1853888576784166 -0.4302324621699816 -0.2284725977872388
Ni 1.8822489486172862 5.367274540536616 8.018847918291355 0.9125673014621574 -0.8919676229339347 -0.19594762857633996
Ni 4.4542895686526105 8.465452798908707 2.6647974112922737 0.2875262094162855 -0.3946795047660364 1.2992180223864462
Ni 5.875884784559043 6.884559855132147 3.3374062916440175 2.1116778796020403 -1.310844550881781 -0.8095647950559863
Ni 2.383474837324451 7.284151006908995 0.39091569534357024 -1.4223661505025569 0.5534399827691178 0.38469771096297617
Ni 2.1449740933873493 6.0298137610175715 12.231899422866729 0.15768549977134777 -1.3875001918633072 -1.0919721951884678
Ni 1.5570122173419187 5.982284520579586 4.230792534326508 -0.535695000080871 -1.4451368685401693 -1.6088793731388744
Ni 0.2245958635510034 8.699300005722606 0.8303656465277817 -0.7451558326522972 -1.2525208754402235 -1.2432934433046845
Ni 0.5214460183748314 7.582655443093386 8.133967695531984 -0.6050757046675387 -1.6631607601902585 -0.743167855687991
Ni 6.794071314904113 8.740847453930366 10.238691943777665 0.1315306957528509 -0.9791159359166685 -0.1072743943086475
Ni 7.691470188399425 6.962416039097594 7.38868096843273 0.3724001245425458 -0.13987572528343653 0.051588670710569225
Ni 1.6205455385449323 6.4623697895414205 10.008656736235947 -0.05046664129098405 0.7934717461488656 0.8493261341143243
P 8.168806062174696 0.183139442616312 12.008579798838136 -1.552259824872617 2.096028345990242 0.1695601397217467
P 7.488275022516804 3.4537419331749213 9.036720458843293 -0.20308886760681152 1.2899376255257848 -1.4737979839202875
P 7.5288843325021215 6.529070488307333 10.594871445948295 1.1250306683053335 2.015096703341181 1.2619411403128589
P 7.199412046479887 9.096086031329378 8.051121730842816 -0.2569100271923253 0.1655273644132698 4.864007046983384
P 1.6008632128681508 -0.31317654644349713 9.093137862301624 -0.6223357772995669 2.449436245701001 -0.37910427603559876
P 5.895808611164373 2.974576225441025 5.525832904025492 -1.9077261497743017 2.0285201758359386 -1.192515698531185
P 4.255506438964645 2.2671271207471198 10.223126280082928 -0.4864457761367557 0.23464787336001525 -0.4932005783620861
P 3.5748453603452264 4.429749358913084 0.6096709518225775 0.5314693920352976 0.9651705294801701 0.05261531220287067
