# total energy = -381164.9530881244 ev
CRYSTAL
PRIMVEC
9.24741476119199 0.00000000000000 0.00000000000000

0.00000000000000 9.24741476119199 0.00000000000000

0.00000000000000 0.00000000000000 13.53452624601335

PRIMCOORD
 96 1
Ni 0.910690936221364 0.45768506399925296 8.034351681195648 0.3418083677986178 -0.8214453485436563 -0.5222643284972618
Ni 1.2215742185151792 2.17109874752099 6.605160058994055 0.8476127509676434 -1.725255215528158 -1.7163746252090766
Ni 8.799645517986175 8.096425876300874 9.203207313935515 0.4179819269374027 -1.1210729692091659 -1.7618831511638366
Ni 8.440161523629223 4.832791333304702 4.630337685919386 -0.49613806372385527 0.7428284700707013 0.6452057399192049
Ni 5.374292188826646 4.662564925728359 7.986426030396803 -1.314275173829885 0.45501995352730673 0.34684310200904783
Ni 8.160307016214897 0.33127198195832647 6.418180110424336 -0.21612718884800844 -0.07006281825535675 -0.19047066462216874
Ni 2.3929627181083237 4.631789530008342 7.487800812571931 -0.2911810325600533 -1.518816457612507 -0.4855520606778928
Ni 4.112861613474546 5.469568301237505 5.733536675145995 -1.5021706215257098 1.157648968560987 0.3972948309016964
Ni 4.824699845547786 5.032415271828743 12.892245121375948 1.4022436687210689 0.36864657103738446 0.4412951477420464
Ni 6.25939922787283 8.505226332609404 4.903125319112186 1.0186232499826717 -0.19878869756956086 1.2493054538267194
Ni 1.986594331834158 7.074595812699265 7.494486693312789 0.6659445151284531 -0.009786132852486373 0.48005427078811513
Ni 7.836878691302761 2.365238969199486 7.74049011491801 0.24555037920513195 0.882006912176797 0.48479769901037156
Ni 3.089367015248659 2.7658739584344665 10.60639890530586 -1.0935745066785811 -0.096314295752718 0.6934440061003024
Ni 5.045546600531394 2.4543470560859295 9.344507808707709 1.8064287989846954 0.20908390884798184 0.33028185521625697
Ni 0.7571727573069575 8.03375614769674 5.787566544308658 -0.08413652273960348 0.8530519197053437 0.18451598970063063
Ni 8.972969809446596 0.8776489991879529 10.019406318502348 2.3407102065474916 2.8108839849971012 -0.23667056021699884
Ni 6.905765764724401 0.7721628163400547 9.473153216628084 -2.4460236204750263 0.6795057987526555 0.9695650590034399
Ni 2.884213122806178 7.503361437084573 3.2322210756701795 -0.4349982589897412 -0.5342518398764412 -0.14622249343707078
Ni 3.289462571916245 3.3129047678748518 13.295276115728432 0.15433252413871484 0.08673616514597966 -1.8469640400945804
Ni 7.835519321359599 6.935690398303119 6.848876594973808 1.1305755093829626 -0.29065421352230586 0.17251485147469647
Ni 6.424835474697081 4.4707180628655365 3.1175152204866876 0.678710813655186 -0.4877719511473471 1.5579733303176264
Ni 4.781893563460058 4.550930136926663 10.564482224500663 0.21218157393669912 -0.10505578939077391 -0.7395328300385651
Ni 8.593909038425197 7.488371378051476 0.1721581924819661 0.3746575531181548 -1.025332286571731 -0.7696484184770228
Ni 3.157668419331605 9.283387022045613 6.753458072378429 0.5477167071320954 -0.4113664785034141 0.7599623015375105
P 4.9029422203035145 9.06897646760922 10.814289107722363 0.018330679988387784 0.52684757699257 -0.023569559789823925
Ni 0.5366052742436461 3.474096451407188 3.532456884817352 0.3864015810279603 -1.960767236660681 -0.6983445287257134
P 7.385336684808558 4.617049151168886 8.124302207550269 3.413948058551249 -1.5673511719881006 -0.7767611182624042
Ni 1.9104233779442001 4.9055869808732036 10.302318945918058 -0.823514315257543 -0.9884639527904718 -2.904116813611018
P 0.4492902610441354 7.7087002778186395 1.9764194015725187 0.5368522536137658 0.6551908761563748 1.1619468246053926
P 2.4665998804035447 4.031567591907638 1.5491749768855112 -0.21333239971169066 0.5355379056777164 1.9417999515295588
P 6.50554690914549 5.928498991980593 11.035240358490716 -0.2592224773755858 -1.509376909466162 1.4709548580445375
Ni 1.1130280661829801 3.9907402565398877 12.231719868061962 -0.41994239309788317 -0.24399563312350236 0.5991799080083938
Ni 1.5076799781851322 8.484179217026844 11.985959653460178 0.6410423525701346 -0.3002308014671474 0.20557949523914917
Ni 8.724501027114524 6.116166023453557 10.64261732924727 0.9542772796064339 0.16160746053357328 1.5684942844536083
Ni 0.18660172931342478 5.629363625168362 8.495432395828432 -0.09091703599654664 -0.23156949154500764 -0.3857284662203357
Ni 5.168426245461557 7.168706750873127 7.261665461190404 -0.3286636028865436 0.4621059138398106 -0.6587179154730268
Ni 6.329522372627905 2.8792010241041806 11.785039227412115 -0.6202210449494093 0.3560972736174641 -0.206444928563238
Ni 1.4747221926243932 5.766567515281911 5.396662609435508 -0.7651826693961854 1.402081946332224 0.6323247701914788
Ni 3.8460921976899765 8.354123578383119 8.948473408225945 -0.8965195039706754 2.339991583213912 -2.175403185675144
Ni 1.0035849146365858 2.8818642795030276 8.85882064862078 -0.18425013763375364 0.2216090378981861 0.5847318509038639
Ni 6.320848297752492 5.80646086177715 5.388500841327791 1.1811668491772689 -0.3003501006538311 0.6588246162542202
Ni 1.8351864129267548 0.31318034007532136 2.3491336719681217 -0.3273780513059007 -0.10929245317994081 1.0993898278087775
Ni 6.918767629622941 1.3878519800661482 4.539439299570384 1.3793420815325472 -1.2819870032201406 -1.237189901510108
Ni 5.2615754525191685 6.571490222510707 3.5379119346777 -0.30884913926377777 0.736399683726222 -1.0527124783568966
Ni 2.3787494418998905 3.7790022049169227 5.174993759295799 0.36699078060151635 -2.3295595892473107 0.07945685787574704
Ni 1.7027171990778236 7.288950882648181 9.890625898329112 0.3470778437276732 -0.07405394169262085 0.2390100069834529
Ni 3.1077046383594746 2.2248632158852266 2.7459115645820624 -0.279799273085673 -0.6140753370629876 1.65670600570385
Ni 3.2140221637780546 1.9987916716642968 8.263829972947605 -1.2262022921503528 -0.43883383068574744 -1.0868608421038315
Ni 7.262225854513912 0.8113875747612073 0.8191063917105756 0.42893945439017095 -0.07536366164297988 0.6302141516063792
Ni 6.835318960459049 6.509042431856478 8.865371517108779 -0.6054045487618671 0.03757692981250948 1.6265613637996696
Ni 7.3847540976900605 8.22936670829335 2.5577544201363938 0.3441503856682331 0.1311054352899742 0.6670236071252447
Ni 8.48091487968034 2.5824052531805193 12.90184116348492 0.10498842648794822 -0.929320095440464 -0.4432718118524431
Ni 6.4414345838669815 0.5285942389935708 12.310165685938436 -2.0691893714205265 0.06682605648561393 -1.5796613568140214
Ni 4.038660358889986 7.549589262566654 12.806355134763113 0.4039017946952528 2.5547293479135615 -0.6524935318298699
Ni 0.24614490704828568 0.45725136025548235 0.4770297305577576 0.9423507033721771 -1.0669522761053625 1.4100991602097455
Ni 8.13313811218082 3.930225175532739 10.12696577169893 -0.252036758260424 -0.8699844337946243 -0.10489123878845161
P 6.950051633144821 8.578484350906871 7.959424504566611 -0.6389661867673964 -0.33471957927263646 -0.5025359968303991
Ni 3.1170075374262822 6.024237475120418 11.662930816857868 -2.3190980275943547 -1.5506616271475615 1.9893440198571095
P 3.5687529870412305 5.74844258270642 8.684401463274167 0.5255581687571852 1.972540318036209 1.4191137050035303
Ni 6.637378051388448 3.6386726886755594 0.5465702881943343 -2.2734951421535747 -2.094596755750038 0.5456965913782731
P 4.845349322303435 1.90142564355851 13.469330028199163 1.7936545300381628 0.36068977808415303 0.12874850502202342
P 0.9827319947601921 1.5561826676537287 11.946722873400072 1.535240664606801 0.9840370273673698 -0.46384217980462694
P 0.255180555833751 1.046261732920203 4.841909284079923 1.0520879573990203 0.03532901431859722 0.9828507203687524
Ni 6.539235240457997 3.251612904043039 5.428861182259285 1.063626039945607 1.791356220922289 1.2146189581881275
Ni 7.182448408938014 7.924673645318939 10.770952024037783 -1.4036775729541182 1.3404937412067817 1.2007517132877323
Ni 5.908358123026809 1.823793598165018 2.337114807239364 0.11598606315003251 -0.5632788232364107 0.5453201818754608
Ni 1.627239801281316 5.824067939136197 0.7656887013930642 0.14424737198857093 0.08882672912642121 -0.7974520709528524
Ni 6.317056857774966 7.265259006495933 13.100041000163744 -0.1641983611892011 0.583142394929557 -1.0175035345559316
Ni 4.644097838813432 3.616599110074694 1.9191954754141545 -0.8074441491685579 2.276578151954273 -1.0672027015532717
Ni 4.573086942258742 -0.019749703317079374 3.246418631273828 0.5876446536752847 0.7286570636663258 -1.1958463055663147
Ni 7.732974741089386 4.959832314795566 12.896928012118922 1.4075095451056987 2.228587225897291 -3.028291326109114
Ni 4.482379052650074 3.2578826511278263 6.5624721438129425 -1.4224132016904083 -1.3600845188545156 0.7364212809927768
Ni 2.234147620122876 0.5079438374964645 9.935031983139066 -0.20356092214722363 0.4728942627045663 1.0291544885312987
Ni 3.3603440046668247 0.6805745728634346 12.270049476751836 0.3406202610277876 0.7324196160325516 -0.32900170295225273
Ni 4.492255291420801 6.97181079964999 10.38073794629225 2.92792291489168 -1.3368322331947944 0.3522884413943352
Ni 3.13434643976253 5.182842964790736 3.5159178838422167 2.849487556301912 -1.2387389911647828 -1.1075679927441957
Ni 6.684660082132572 5.875825718536719 1.30686682214619 -3.7066560692787904 0.17696928770162423 -1.5780371909470372
Ni 0.2572676973043062 4.066513571602934 6.670585517142829 -2.0833453512059346 1.289795700631282 -0.22698778571159617
Ni 8.31794769254877 6.072305536103786 2.434116487210725 1.8553517499376433 -0.3097197147941892 1.7585299184208876
Ni 8.654599820309352 0.12140283282184444 12.04605305236251 -1.8931323111205267 -1.1105427591018036 -0.1815939309578292
Ni 4.569591419547754 1.3674984205770386 5.116876532889071 -0.2435405478639548 0.6014216528547189 -0.00871989637150111
Ni 1.5147727451674802 2.1826765105743138 0.9482076971697141 0.24654128236349154 0.3490092564224312 -0.6123742952114808
Ni 5.71383875735056 1.0982414502706284 7.299725045374561 -0.20292714521796665 -0.24905325015206786 -0.3749097783382769
Ni 1.1443398119485984 5.732352081338382 3.105063576755617 -1.0591983431915564 0.7937134298460266 -0.22392971561156275
Ni 0.11348612120047831 4.065551840486684 1.0290800366318043 -0.2097485390151743 0.5484106478753265 0.40757024468577546
Ni 4.219752478597045 6.559487078386733 1.253903179884524 0.4159983208484707 -0.6328988975273939 1.3310115127479591
Ni 8.108170092816625 7.249408937906957 4.6761919158524625 1.3925976609908726 -0.5488413076548418 -1.833512285465049
Ni 2.3977066417875212 9.300679687308962 4.646024075270307 -0.8561220739902351 1.5383414150193118 -0.7164654066961402
P 4.278186891323844 8.088537831664702 4.9226697298256035 -2.145347246830028 -1.386109996384 2.569923796265813
Ni 3.96606815444223 0.18515265944884346 1.069105621155527 -0.7399254374912935 2.242811339916473 -0.839626133217741
P 7.840004317430576 3.1336343888399214 2.1393209320605737 0.7910173710711023 -1.6076375303119732 1.9661323576273366
Ni 2.2968728332144845 8.004016462409608 0.8143559948411728 -1.0755469597529088 -0.3555753396757231 -1.2242770501031819
P 4.737644684697956 3.7925866569339615 4.475313103170007 -0.9313679791084282 -0.36327322254061306 -1.2663973763119996
P 5.696000494627028 8.450944009028724 1.4337256295698406 0.5275787987316398 -1.6250752661724464 -0.7222084798275046
P 1.0287748719506862 6.423133950414483 12.268032615632084 -0.7074745160514396 -0.9247569015498137 -0.5758355768554986
Ni 8.836163558159958 0.8095612103817892 2.897728219213872 -0.5710749222420617 1.33075645931436 -0.8269583079420856
