# total energy = -340866.98936781724 ev
CRYSTAL
PRIMVEC
9.27142959055263 0.00000000000000 0.00000000000000
0.00000000000000 9.27142959055263 0.00000000000000
0.00000000000000 0.00000000000000 13.56967437623834
PRIMCOORD
 96 1
Ni 4.045152592137977 5.210756733946735 0.5559445933511526 -0.9940944116033719 -0.9401146149528068 -0.82843900625267
Ni 3.1137262216767025 8.45580348588576 10.72125044578839 -0.7668042641600085 -2.1087918163034973 1.0251813628161635
Ni 1.9462492510686655 6.724994446742088 9.399306820673475 -0.78699822260938 0.8533126295658982 -1.4891387280424162
Ni 1.8579481546115655 1.5615961756998957 7.690884575681977 -0.9077009745087916 0.7002569152570779 0.015709440315456815
Ni 0.1010984508711839 4.851859690282903 3.9289908494341756 -0.6519145193979482 0.28363561611262766 0.9173719219396522
Ni 4.681775312447382 1.249056280533071 1.0864502378930874 -0.45467054060768797 1.3794312988122437 -0.04098158461868426
Ni 1.0272465964045892 8.28200126474078 1.1929836008540606 2.628037412579093 0.7543536971014815 1.0300098945530582
Ni 9.042091614357116 7.182205730938374 3.062567399738375 0.3165547354381516 0.9388740576774863 -0.009213033957835745
Ni 0.1861415669319142 8.113493029954157 7.862011989358681 0.1557206627354931 0.8645768896258078 0.6083263503943523
Ni 7.849711583576485 1.3314143905528546 4.422289319449442 0.37134314403294105 0.8511421042771405 0.07215081113263704
Ni 3.7048818507402426 0.2844669331800071 6.886500897819722 0.32983345482492876 0.2689687581290723 -0.05293644298771528
Ni 3.260900896725002 5.784139032276522 4.557321203020436 -0.4311742572579606 0.9626685889939226 0.23225777586128388
Ni 6.152270419920958 4.186439909327157 1.8356920876181522 0.4163361638038636 0.6248644572586917 -0.26158994916649786
Ni 4.783325281944927 4.764958579710412 8.859138492098825 -0.18165897986780974 0.094558746514192 -2.0590769655768733
Ni 5.010039552384392 3.9944378716822513 4.19412870597687 -0.5274849534662528 0.4396691821028493 -0.38618560836241234
Ni 1.5053834974324245 5.5358594163562485 0.36493459868408273 0.02126610846762789 0.48570709819851837 0.09909031583595838
Ni 4.604423774465275 2.409848550327839 7.862581255142224 -2.3641229290444765 0.9439496724281807 -1.2863907887147912
Ni 1.4230253874126408 4.99363839324615 10.96557301551296 -1.318218217638033 -0.19565606547785014 -0.3721391575716752
Ni 7.45971816470086 8.342237743497792 4.4391837186476915 1.3062728723506987 -0.1555427423967321 -0.7428338693873401
Ni 5.334270720402162 8.325493541460673 3.4947337708876676 0.281008977123058 -0.21303106642118796 1.7191619581462263
Ni 8.642761865774192 2.616063689701928 8.629458291298521 1.5284429249586775 -0.7408574623872596 0.7190483369319681
Ni 8.387547220438767 7.998796173142861 0.3543011959618391 -2.2529060051483136 -0.7916573186479463 -1.5915023153130075
Ni 6.106469557205915 1.8893504870034386 2.8702167563367715 -1.382496825111445 0.9364536211614518 1.1087162474160261
Ni 0.1888970358385763 5.915431748249747 7.791313629328864 -0.06250866005718267 -1.6282266673172345 -1.2702062085351287
P 1.2037189893029976 7.382468612445447 11.646458468350277 -0.216760194446317 -1.9163097776782545 -1.7382333729553807
P 0.9323998705797117 2.7107249869328176 10.303439956385652 -0.93892959350577 0.891550332890858 -1.1671134564079964
P 7.418061631061449 5.825016765821183 8.458494054784527 -1.2252273298315932 -0.617797265999265 0.5801987389202008
P 0.5103514106613758 0.4957600346004577 2.837337485193784 -3.95570186323169 -1.6550216760228915 0.5302681726383449
P 4.851498104524626 7.146965026650949 11.903807396802506 0.5886730949397991 1.580899857206813 1.4056858616333985
P 7.265565155365693 3.6542691160112097 3.8199857233153423 0.1130496062295279 -0.5380455025909185 0.1815211687383648
P 0.8035974606237462 0.06623880234440416 6.338205233970576 1.7490430619763748 2.323012532157412 -1.194315213633769
P 6.181160194864293 7.66591476121555 1.6700199831765767 0.14344878734667554 -1.3365702377826594 -0.8282171200498512
Ni 3.0650883014736428 3.4518552628138757 9.621347363401473 -1.7795957379522513 0.012505588666178463 0.010126804021356753
Ni 7.2053750337571785 0.20906332257774451 1.7796759636603083 0.1770777882550305 -0.23502196886998233 0.11325220915863722
Ni 2.5786071137163455 3.864712027328225 3.260385405233716 -0.1222587835326217 1.0128986887940683 0.8751266401171961
Ni 7.417904016756559 6.731326833226779 6.098225401917207 -0.4588809791446097 0.3982931902592238 1.9272477647469972
Ni 0.07427620475081533 3.974420854961243 13.20344303491769 -1.1497248286179038 0.1702257983302036 -0.6288427251801492
Ni 5.234176365367423 6.719579931797638 7.652617676740667 1.5608966746120085 1.88878406145416 0.6227700366235082
Ni -0.0736383303874965 2.428530481172133 6.28779368926602 0.6267696447012044 -0.09930757405308703 -0.6296395100498318
Ni 6.677728698134539 6.546695582192898 10.731373919877168 -0.6167670249625378 -1.6137230743844209 -0.17513017761035646
Ni 8.214375456513345 5.632894199590186 1.3557824892317916 -0.22257602979714572 0.006841705512181766 -0.24217246387183455
Ni 7.999658416104905 0.42681304764085837 6.7744834841915536 -0.13290803571635176 -0.8959641456878376 -1.0488434823197936
Ni 5.851737026214859 8.867241721656102 6.066838830955823 -0.8194553146968211 -0.5608848690829372 -0.2799350273325889
Ni 5.373053110834759 8.418244924173486 10.11959863116216 0.13608360523085597 0.583068347158512 -0.40158060276124385
Ni 3.2749378412898964 1.0265419677474346 9.447627657980817 1.6057714236375118 0.29582984418597436 0.16879806474474157
Ni 5.677703019327393 8.873101265226124 13.219970285499844 2.00844423102167 -1.4604452167624653 0.759323382401931
Ni 8.311549311192772 4.4307513533360865 10.41065384228656 -0.4023071965146232 0.018045030427168925 -0.08722364630535945
Ni 2.113700542869556 7.58737648023192 6.475910070723907 -0.2908406185014991 -0.9910198864431062 -0.826837208983189
Ni 0.8601476189322756 2.442789940049813 3.7052406550696095 -0.776090831668257 0.6433350052590533 0.7450699578067103
Ni 2.4269728809826336 3.053443385771194 1.0338005700590962 -0.948652734330805 -0.3661801117747629 -1.4155658397512718
Ni 7.054204372508437 8.080987397428055 8.360317031411624 0.9512248659333552 -2.0708605884753624 0.6493310749414881
Ni 8.721763718242793 6.173501993932588 12.192610577652921 -0.3349800320228747 0.22472778603282587 0.4090164902139988
Ni 8.452604842639467 2.138770488776738 2.1237220312316394 0.34002196532215634 1.4722846325995547 1.1996679933052499
Ni 2.3520504575817704 1.5078589691621647 5.2272960373874975 -0.3620663467167055 -0.7530594037700902 0.11962880210894238
Ni 6.061503123163818 4.368901645811378 6.619409551039364 -0.3984235451895009 -0.22435086230938137 -0.12185177790219015
Ni 5.094771148407222 1.9884435276306418 5.360075890684507 1.1923899715865982 -0.7975523439761426 0.92046624459426
P 2.5686588696488877 6.767513223343544 1.774710185913309 0.49213845564615893 0.07966100346675313 0.8715911161601119
P 4.045161863567677 0.5715280123899067 4.1634476908156115 -0.3910473073300878 -0.3798028447645201 -0.18616046728258906
P 5.230375079190668 2.2184491556133947 10.544912488620625 0.04119318640885809 -1.5282637190683357 -0.5533957597947438
P 2.700109199927003 0.9190981503899804 0.023590225727157202 -0.04062060173483972 -0.9995140399570464 1.5025855975759412
P 5.291826115238302 6.763035122798732 5.360428205013084 -0.5792587436044347 -0.3112986292455348 -0.5114325279890805
P 7.917763877570092 0.7563280034443175 12.991091136225569 0.08384290275858464 -1.4206820779319145 -0.48214509187887283
P 4.240946644529939 3.2643127828543816 2.078046332817538 1.222482162986288 0.12182838086342247 0.050317774417945604
P 3.449555948248424 3.1704302857182425 6.059334535757127 0.017354432118047533 1.1037241935180735 0.18326077713729083
Ni 7.007522723971951 2.3252003971723036 0.43194200255056725 -1.2683084772917834 1.083034783489522 -1.4449049550350213
Ni 7.637052800561313 8.623495834858836 11.367913197319279 0.44292728402883075 0.7533095721076833 -0.3450754685856638
Ni 3.9561468670237225 6.275413549188409 10.301350176131406 0.018215494566762178 -0.721249458348345 -0.47668484009525003
Ni 6.044323163930827 0.7507048813316305 8.307354916396763 -0.13677960285661603 1.0226745372339097 0.6124141473104807
Ni 0.9375176997737813 9.236986338068233 12.387593379946185 -0.27692246575851015 1.0888634743561572 0.8063655713923985
Ni 8.267454391542419 4.5720201276658665 6.046972938538916 0.623299683874733 -0.7416280220046969 -0.4717987156475423
Ni 7.615441097932008 2.0812598103513507 11.147704689099884 -0.26741478337839103 -0.14555837749051062 -0.3085308366924106
Ni 8.853445834263391 7.058886444506634 9.830930813185354 0.0469740547566933 -0.5962200540491216 1.2942000003465646
Ni 1.142258681825665 9.104497607663786 9.925660718996019 -2.004212195218194 1.0779288297215242 -0.6601207093578244
Ni 4.649937222859638 2.879835864649901 12.982460362318395 -0.42190980123689914 0.7437957190799771 -0.2119591735132479
Ni 4.9185305412512985 4.218602498954381 11.005033147456581 1.062524322240996 0.830188641953925 1.8200057663381817
Ni 2.293158336131172 8.098501128130225 3.7858844777379734 0.005453052694771254 -0.6862140640107667 0.055616303812723575
Ni 2.844808403245562 7.428362189457484 13.104791314344178 0.7445557371744532 0.48620100711580144 -0.2831314227826995
Ni 3.8495995969182006 5.348901036467817 6.7251984181954745 -1.63381161760418 -1.5660044281522192 -1.1588157351755786
Ni 4.249986288486855 0.6285092921794585 11.939183463963543 -0.2808408269763099 1.9160986901087127 -0.5200313254016851
Ni 6.64564955137461 5.76402930125852 3.8383181212599684 0.8453514657372926 0.9696609611513558 0.040258333299414535
Ni 6.056366751110349 6.322484597772271 13.553906786126948 1.2109276253794694 -0.7081797696485803 -0.34133914147168315
Ni 2.4128432221207463 0.829779050951886 2.615432305339399 3.465249279928387 1.7456569191129614 -1.4285180290365656
Ni 2.1533266334047982 2.0919775830838585 11.93672746223617 0.35783945311955145 1.506529412715038 -0.7685922092983667
Ni 3.9960140147311494 8.426413053738658 1.5490324613142368 -0.8329489783078816 -1.0230753722167543 -0.24731338464282568
Ni 4.485397159984359 6.112625786526317 2.6503336752998257 0.6404317155693293 0.24584117097267336 -0.2586496355912513
Ni 1.5036590115083357 4.403595335746539 6.014676840324021 0.37390627677442706 -0.4698958421978746 -0.7492467148922193
Ni 6.460879228895237 3.2820861135881345 8.803801036794978 1.169725440109547 0.592190106954122 1.6865567705166953
Ni 0.34352686750816464 1.8851968864981066 0.17106436795474744 0.801823974768303 -1.6130005943960994 0.19040021639554952
P 6.96106358974825 2.2421932870735617 6.844014571222215 -0.6355389062534021 1.8195715070142406 -0.4928989879612672
P 0.5066020444909378 4.223089870928891 2.0107682032038308 1.1728601290837866 -1.3227487585185347 -1.6669641930967483
P 3.4909714247156507 7.970657384005178 8.23614106487566 0.18789853301961834 -0.2794930546991638 1.629860860486548
P 0.10416173124386616 6.824625230291856 5.218652283478745 0.7088983929821597 -0.9906581322283132 -0.4351191008383216
P 7.215592149285919 4.4119303510463 12.77142500664359 -0.18998241213184056 -0.06966249749314454 0.06909634057702939
P 3.001050536539876 4.5985271451764556 12.154249110128678 2.2394740480131237 -0.9749471492509596 1.6534967547379331
P 8.357099845305932 0.4431048039086467 8.969961745581712 -0.02571026028191056 -0.14195960439565875 1.9929044835148582
P 2.1260315443697606 5.024669868450047 7.94737867831592 0.6971499941969801 -0.4954353812298758 1.9555088164752192
