# total energy = -340866.452141629 ev
CRYSTAL
PRIMVEC
9.32169598448947 0.00000000000000 0.00000000000000
0.00000000000000 9.32169598448947 0.00000000000000
0.00000000000000 0.00000000000000 13.64324432476598
PRIMCOORD
 96 1
Ni 5.713724065738304 6.468902600555487 7.316502951860788 -0.5875076138767882 0.045022330346961174 -0.8929333292813139
Ni 7.168001813961783 4.408276511272509 3.5130674634509473 0.06839802895842413 -0.5494750845840989 0.8432783852583476
Ni 2.2640161680502886 5.103963984047756 4.161667322500305 -1.0784787886877234 0.30718692107000645 0.1592369034188677
Ni 0.17528703053101682 7.947183715240574 11.949476141792372 -0.5558179960829911 0.8000278020998286 -1.1233152282761234
Ni 9.118445459914195 1.2586433202895886 5.83944484365328 0.44790571108002863 -0.80243384043816 0.4552971184480933
Ni 0.305374090718076 6.501463283681855 4.3382379505310364 -0.059838055203555014 -0.38232998206174795 -0.004306597795153874
Ni 0.6894251575950894 9.012094233521774 9.89468077317803 -0.1771495220332304 0.42299532099159404 -0.2799324562294276
Ni 1.9603898952784462 0.5805952923125158 11.87752197258183 -0.20570445085278766 0.5059442511809996 0.7101248091900931
Ni 8.15641849722009 4.973497530845168 1.2185339279746348 -0.08400025427205533 -0.3275454301217004 0.5849696779462829
Ni 6.669458883825971 9.150400232819203 7.200699526015135 0.07503584598991593 -1.705050972666141 0.38130899699640136
Ni 6.040598647618982 6.117978043734635 1.504563635748583 -0.31779529271347207 0.06628021128447295 0.33118662641871344
Ni 2.9515471570764467 3.014226239052311 7.370816744103586 0.05115801093105383 -0.12246807132995037 -1.3277035314206491
Ni 5.887396578571788 5.516896460753119 12.8725095191484 -0.6203899664271058 0.8032671349727327 -0.17565802508936845
Ni 6.394459538589507 0.9314806980113719 9.453977100603764 -1.1895854122582674 0.3817345145695942 -0.5350200855010334
Ni 7.869468738079243 6.125500652175225 11.264434977691224 -1.4595252760513573 0.32525200610183336 1.3089977274810296
Ni 5.99248937604292 1.8914559554789936 11.639024523419291 -0.692285209905511 -0.010192881372601801 -0.48227647525041467
Ni 3.2873612451461267 7.908899510946273 11.740216191234431 -1.9958350268980916 -1.1771158190363469 0.2543078136827878
Ni 8.122086691908205 8.050719789527594 5.548352522937467 0.28715288523726673 -0.6696163075530855 0.8731265789680317
Ni 0.7795473117507498 3.413297354232078 2.841710548656842 -0.8139968626854109 0.5756849102102473 -0.38083797089725385
Ni 0.31094193956759775 4.7676838111924145 11.515948310578166 1.687151723788217 -2.4030705139522675 -1.379784054165972
Ni 4.290142661498544 3.1365082434186697 10.330869016348798 0.09032233983534123 -0.37392556004813665 1.2768584237443235
Ni 0.9575339053603227 8.4251163761544 6.665502756165269 -0.26426158246139003 -0.9336683451068307 -0.375077928485025
Ni 6.437488486001849 1.5179915384235134 2.163054746119266 0.9581015384485306 -0.3597713800349417 -0.48288274137584575
Ni 2.7745001903947686 6.583307772044153 2.3768851240854114 0.32194839564989713 -0.10384351425022761 -0.46685114183427984
P 2.523923687927008 8.645928704209766 0.5609992235841306 -0.9309139222901452 0.3892755601416457 -0.6433604591803501
P 4.823613985471888 9.176948422210527 12.19108424081442 1.7587170947310293 1.5108753483885593 0.6666731657643615
P 2.3668158283759637 3.2669746966212583 11.371098480890039 -0.8201649391693359 0.004556766132746992 0.9076336116059658
P 1.2797196742972374 1.7891317016346941 7.639957403584275 -1.2118709631293452 -1.3422148376629466 -0.9091371927346859
P 1.626505398221408 6.290662456822514 11.847738222608436 2.7745620106376148 1.3233100303386434 -1.8753212510810349
P 6.7421867537807145 1.8591842449197367 7.256008875360108 -0.5670804563706878 2.492208860781837 1.1081871143854334
P 2.3725766363267495 7.344647947727791 5.048873694552045 -0.9355156827282145 -0.14308189092556 0.05586930036379411
P 8.972868537960435 2.5185823562833187 0.6336935354343066 -0.5071454705779525 -0.19284584972256466 2.6608657719630235
Ni 5.501441089260558 7.349085074887296 11.046907615205205 -0.17943420430234902 -0.21242942828144706 -0.32782825146944183
Ni 4.402236052450325 0.9255232022810365 7.8982783708506 0.5185524268633134 0.48178025234028643 -0.8149846805199772
Ni -0.08109875270523852 3.5490119221212235 6.841090877467823 1.6652636654658741 -2.0376727888694837 -0.04254507245106222
Ni 4.632416684697504 8.021598812119414 0.9878853466026509 -1.0640502719672191 1.0518588721073499 -2.8175958497996376
Ni 2.3715698931897187 1.025917865112694 5.7073508223791585 -0.4069624358984475 -0.2747539973522817 0.1730504122631923
Ni 0.4291979035554054 8.856263446283444 4.08238630045915 1.3970700949399293 0.44267351614681183 0.8801441479364454
Ni 3.847576514120773 0.4175672238139886 10.21537879947911 0.9588168193480002 -0.09741215680258708 0.41854628408130495
Ni 6.971565720196554 1.0150114811281963 13.46058826877951 1.0255171488890273 -0.5753702071833059 0.48366101430276703
Ni 7.175776108186629 2.4264001073750308 5.253549235158212 0.5270136702567891 0.6941770276115851 -0.11855870897321517
Ni 5.122831096171367 3.2549217440640312 8.241951580576119 1.3533322877323468 -2.889095400501521 -1.807203986587823
Ni 3.268717853719635 3.050021550591175 2.2335491377811163 0.026588806232121953 0.010886050784884476 0.5417574042248671
Ni 7.084125195933997 3.54259859547051 9.529178016431231 1.1343511743753107 -0.7285393071415389 0.7151060644547684
Ni 0.7468729039366806 6.501780221336105 9.631393206435686 -0.7996202822487648 0.5592195655653724 0.16613260209743647
Ni 5.923359680633489 8.272501573937138 5.1251661809475335 -1.3626538222435887 0.3377552807751667 -1.3230207812329988
Ni 6.9386414909373695 8.536361492796274 1.4042584611957727 0.9821868615325084 -0.6230744552378044 0.135727764553334
Ni 0.30933674356577684 2.421823154779827 12.40636134595526 1.4977023013417108 -0.6029859120180454 -1.4196922032148196
Ni 0.055074442612998875 0.16667378369197766 0.10301126281836545 -0.47750759310686147 -0.4843608685832691 -0.188073882255218
Ni 7.84427219456634 4.054024109082028 12.702787540958191 -0.7614689679900241 -1.2992108232975947 0.7247914100633325
Ni 9.026561505268731 5.8335171773492265 6.902540427779111 -0.9866114729627653 2.3671426897074075 -0.18898508121557778
Ni 3.7427260807381844 5.485836570636584 10.918647607377942 -0.7225419519075235 -0.05192162856995574 2.2684619506050416
Ni 4.361127374354911 6.493511877238457 4.711680927686376 -0.2841992019255815 0.9767646620756726 0.5654213235007101
Ni 3.2807521628854355 6.2787959381795515 13.497560910486957 -0.11733563519939147 -0.6500568973639191 0.1907897385244843
Ni 5.298470486800343 4.252855878645561 5.6444694596063165 0.0746686924584843 -0.19704728939842195 1.047142954688919
Ni 2.089802996865438 4.554627133970468 9.421164731693139 -0.04557486041632151 -0.3127572160689323 -0.4320564027525979
P 2.0094593015129725 1.785132694173712 3.5706690177718072 -0.13655668821253256 -1.307581049639161 0.2288235533687543
P 7.703039182814952 6.963931251407406 13.530959614057947 -0.5961025546346508 0.14678273681591494 0.2129145954479817
P 6.14556094135013 4.058778173895783 11.37902471875501 -1.0358874363797579 0.4945892311794966 -1.1243387844446313
P 6.007460019358393 2.8532032673017036 0.42547575045710634 -0.5103403233661663 -0.006708265258111027 -0.6810006381306272
P 0.6065142672431959 5.659695517384332 2.176029614382533 1.268549903878628 -0.10792025542276254 0.1294460453096803
P 8.085909190845097 0.7095488343008444 10.792897000036684 1.7033118784878472 3.856513331254971 1.3872104285370304
P 9.158528751481153 4.3323512996881215 4.799024284349917 0.2738235151182123 -0.2876470512648659 -0.3028528124710268
P 3.988473944826483 4.88849298763608 7.684161816826058 -1.2127371677843821 1.7954977538944885 -0.8504839018678514
Ni 3.313834860971745 3.18122441775511 4.764370880535926 0.08491248167367957 -1.3107810446336974 0.4260413069067695
Ni 8.604335297937263 1.1988259988976904 8.46965730261143 -0.6657989906895242 -1.0099025822802221 -1.9767985790919311
Ni 1.6962223604607731 1.4529167806493446 1.0939028562885382 0.3976776681624119 0.9085468674488547 0.25045115894085895
Ni 1.8288700904602613 5.19693857709167 6.6506719382854955 1.9629737573936965 0.17414158844484204 -0.06215770447566714
Ni 4.73622308816021 1.216182996315754 5.466902342303839 0.8656312990322512 0.19559487322261151 0.40751882262254974
Ni 2.445518905282898 8.949172787457366 2.7416505347012907 -1.3137576107635183 -0.4780634656103315 0.1329337467479646
Ni 2.3968130451811884 9.150521414863475 8.283686676623462 -0.6551741639858265 1.1110742061252414 0.45790550260521784
Ni 4.080040961817697 1.1987327819405578 0.8267971229820501 1.0284505204857384 -1.5993236111296392 -1.5502011425713755
Ni 7.505204834692736 6.26193299063429 8.945929769518727 -0.027609534187152448 -0.45324357835317425 -0.19387403387676289
Ni 7.126939744344934 6.787760524122773 3.4105791477620953 0.46780733509996203 1.0204271359606296 0.8552340149583271
Ni 7.1891713849265635 4.326646421911615 7.277879437842525 -1.890366061229299 0.23416836262043542 -0.3721085614440559
Ni 3.635740979037262 3.1853725723475046 13.571275948017734 0.7668191765583439 1.3770378588794028 -1.9647928128803065
Ni 4.598905188608385 4.7051631980436746 3.450553375489207 0.8223591186071774 -1.2436297435981807 -1.1296409133838352
Ni 0.4530176326114624 6.310116835776058 -0.13935375789559687 -1.014811075325433 -0.675997785599397 2.557017629727106
Ni 9.391421997180885 2.5440399072761926 10.052805629731388 -0.8183890782158357 1.4185804582078796 0.6657326562279632
Ni 0.29702464786772176 7.815319007680998 1.958815460872479 -0.030975879556224075 -0.10507198734069001 -0.5441359317593726
Ni 3.2850774296963814 7.310418681068752 9.453307802851553 0.0788999569310125 -0.37506301608668957 -0.6232060957196622
Ni 4.295428062967955 0.7212186651642568 2.9979524226761267 1.4988269018644573 0.8193339586276084 1.7906987898439484
Ni 3.756662015829487 7.927803909852735 6.842400575715534 -0.3966857365627878 0.1746205849637896 -1.0966657440093952
Ni 8.958941924564847 1.0647054409755097 2.51458614533105 0.2546677681253679 1.0511649313641187 -1.8432120292513159
Ni 2.2220219288621164 2.070171505693342 9.57033982819221 1.1607155233014526 -1.5169148697144197 0.020029407847049374
Ni 1.6818296622795217 4.393716022568419 0.522861369912528 -0.3366098543168138 -0.5487376921974421 0.6640856075428433
Ni 7.481658231321077 8.245272900758748 10.349573930966997 0.3570537239934625 -2.307260411529478 -1.5533378884281441
Ni 5.354270157339833 5.180765435029189 9.34488529567165 0.6318686564906665 1.738836039536386 0.9175477853958842
P 4.922134987465184 7.792490174879259 2.919612891902009 1.0882862616964484 -0.16452026330499409 3.2584397689368787
P 8.966026413306913 4.608413318235896 8.870400730002153 1.0166630409325073 -0.17223640100232915 0.5171239219469029
P 6.7539600554665435 5.87813081303282 5.42841492504299 0.5074100370932487 0.5694535845885548 -0.45095581076026203
P 8.401579094478453 7.94504904692224 7.999784179811277 1.470075797873694 0.5734927876549349 -0.45830248093332043
P 4.251000861198626 4.878900962747149 1.3780225486108424 -1.2202998106229888 0.5461146527522981 -1.545547445849448
P 5.124844582445427 8.224355015578224 8.565706190901572 -0.395876353287615 0.4218488660919767 1.255383284589683
P 5.615948799402069 2.4773618178393457 3.8130135307552004 -2.165718354287212 1.5164389585192657 0.6446205568396963
P 7.665864260310528 0.3494107134370205 3.9688471145022444 -0.6817817392710258 -0.7141966652666215 1.4707419707027831
