# total energy = -340892.64696071134 ev
CRYSTAL
PRIMVEC
9.09227711256558 0.00000000000000 0.00000000000000

0.00000000000000 9.09227711256558 0.00000000000000

0.00000000000000 0.00000000000000 13.30746661569956

PRIMCOORD
 96 1
Ni 6.363321180463583 2.241710056817759 11.339066287599614 -0.7931007359626921 -0.7905931390494901 0.357258640915417
Ni 4.504332351390307 0.4643662408500906 6.149912703403695 1.0091489919436492 -0.20249468566623838 -0.309973225565892
Ni 2.793793133544174 1.9029590820220403 4.71303921186628 0.22080402549838749 -1.0161879010683015 0.7849608804643772
Ni 3.431816415165484 4.292009492238211 4.879821581782546 -0.1448107006912087 -0.1255474815862225 -0.40491352378921874
Ni 5.167759455745043 4.586471984380202 2.739488598233631 -0.01744802027311834 -0.07042945756615612 0.5672133824041263
Ni 7.247390577685907 5.96003322150113 2.6895056223165006 1.2894588861171532 0.1177909775692552 -0.5101204940458762
Ni 4.973257460070941 4.534809664848589 11.458048737374805 1.8114509347896353 1.0044243327744702 0.7588359012425512
Ni 5.367225834816586 7.98600172290775 12.445768277187145 1.1028525895463972 -1.4446457878363637 -0.021139610192092626
Ni 1.7417257289326213 6.4400054470826635 0.6141487799271701 0.5898897409557197 0.7600882855924136 -0.7382241385294706
Ni 2.6916141214188203 1.3161253215135376 0.07137710436800683 -0.1324244112117139 1.7965634761548412 0.6817933092352516
Ni 0.7995330399401842 0.047831743111571984 4.7624093682944215 -0.30580598156207983 0.7022271516095713 -0.3242757582314931
Ni 8.461436902124222 2.204377166286819 1.1675202323448255 -0.05598731399889712 -0.1333502654600929 0.9523792912527727
Ni 6.80379655352042 0.8993826106251998 4.703084986695002 0.5051225266106527 -1.16193833996496 0.6233397930840491
Ni 0.7129754694176579 7.666217238527896 2.742349937895123 1.0844118663427067 -0.8682566524702401 -0.3587501378592789
Ni 7.553063847719921 3.560763091616967 4.071352651726968 -0.8887678850497145 1.0254731830249693 -2.5871293615108217
Ni 7.893778754409133 3.7170047844770906 12.645620168815558 -1.301622775173197 1.3028129388265561 -0.2043309675440287
Ni 8.130441639852345 8.926652361672703 7.0974307392017755 -1.2881681923301878 0.14297467592373442 -0.7070996492105242
Ni 6.766199986948225 0.4111827833287497 0.2543273617519093 0.585755921293004 0.6057151380237504 0.6481365404127547
Ni 1.9652048123130323 6.474937976410445 9.25942880106465 -0.03446589498735355 -0.062498118534221395 0.39073491829599155
Ni 0.15684996621046954 4.576761432240152 1.4057342602928062 -0.3308935206583269 0.5286062115548896 0.35721621771325573
Ni 6.645390898666539 1.8396677398433088 7.164314440135688 -0.5778927164948434 0.694420768191275 -0.6115124614318178
Ni 3.728879298610897 4.173646226546108 0.3770458282633787 -0.9121618384936225 -0.681112224007827 0.6013933707199449
Ni 6.22144528571327 5.7452918165913065 4.752003256942094 -0.9783034673177021 -0.4512419745421132 0.9259491220857021
Ni 5.471805208145097 3.1579933924597414 9.107816895797892 0.3974866351975283 -0.4022889416821781 -0.01425625280869803
P 0.20620921190586958 5.571892996494972 12.636345136757447 -0.26144442472756907 0.14512874615225974 0.051232315812415
P 3.9587320683678757 6.115620270396756 12.821651203185812 -0.08799806257753878 0.044233258786762535 -0.33114034656181035
P 2.434711826739887 8.472802248730087 1.2989009114254197 -1.2200691826694214 -0.19527348532745079 0.7208558224543521
P 6.421602677858449 7.9946212017736356 5.809281445665502 0.31946573843735954 -0.06729656836412927 -0.2547467009924193
P 4.829899524123224 0.9991594430919378 12.5632995995077 -1.1115619443949372 0.7388638289959986 -0.39001372385925087
P 3.947703136021546 6.088934436566189 8.166299763007707 0.9247982963107106 0.5223242352009198 0.34065085715540694
P 4.646662860004853 0.7996212350298457 3.721259970246326 0.40509170123829585 1.8513007197967213 0.3684506529764945
P 0.40446995500946253 5.4399458685395405 3.589569244510324 -0.6199634204126485 1.954760368344969 -0.1607862501838586
Ni 2.049335654028275 1.1425082867623702 2.6530164951175803 -1.5644913339418023 -0.0959635972815186 -1.3330136307796527
Ni 1.80245304891707 6.702608599619099 4.9450677635774865 -0.1443882684418094 -0.1878982759093022 -1.0060718956802222
Ni 6.089543619144264 5.759657614701118 9.192957889519464 -0.8923064943305923 -0.15968170426577014 -0.0057739263692997336
Ni 8.461791500938325 2.6403336775331656 10.344386609525845 1.245365495342365 -0.19539432717603122 -0.6226823620057081
Ni 2.3838496276093273 5.46481324691317 6.806596065696376 -0.16563663629762443 -0.6952360650037188 0.982385607806876
Ni 0.529787903596625 0.14227504572311048 9.103944494902343 -0.0518493805711236 -1.0332826517670592 0.9824468000621145
Ni 1.1971074118569374 1.0618325104153103 11.320768079564175 0.2516418368148505 -0.04919883032215398 0.11060705822630627
Ni 4.09382512426381 6.644099795292114 1.6661479924590874 0.6346680736126747 1.8401459887314824 0.011825017659386088
Ni 5.746510181747456 7.878540097679991 7.910490360058394 -0.42021544425361174 0.5002592849810804 0.650212706215493
Ni 5.276648568506498 2.7454767720533275 4.9339560915078655 0.04498942022649671 0.2340904581946485 -0.09941324639301588
Ni 0.9330313104003828 7.626047557484132 7.174082273622631 0.1879080461013151 -0.23868784775734378 -0.31996196134748767
Ni 4.986895875997976 4.430221199242793 6.914493211006072 0.5385730929596144 1.3452523389376896 0.28208035581036583
Ni 8.048993019936086 7.2598560898432165 9.336066697069581 0.5333033599202428 0.2727264253992916 -0.3381031510328887
Ni 4.727556851006746 0.29519169278022284 10.388087731066982 -1.9305158939753075 0.49280051471018993 -0.1726655181199478
Ni 8.321488570158264 7.273567243988531 4.798392964876314 -0.14545373359184627 0.03988243801723454 -0.40237301675555215
Ni 7.3690088786459285 6.230664854879947 6.844921832906804 -0.03937078848813865 0.11698647939008884 1.3686504061466558
Ni 2.5612399574336417 5.22766847077387 2.4974121708951134 -1.5962704261256122 -1.4586536720796814 1.379070315928399
Ni 2.3820311721523892 5.150375021576714 11.606466525631452 -1.0256572740113172 0.13829552528051023 0.6065625736257102
Ni 1.0205172024336762 3.387009672706529 3.5828091363491565 0.25329711303008634 -0.7107192482409824 0.03163228219330036
Ni 3.9274091731221166 2.654426707324436 2.4830136405870773 -1.168654318532555 -0.010078210171608449 -0.10217538251918533
Ni 1.1829143670155353 3.8603536281475233 8.2861605267686 0.17741151744536543 -0.7073130507729108 -0.36767932202810866
Ni 3.6970836049463336 2.5676136438102097 6.926908715638316 -0.7070623682146855 -0.25982617239785577 0.8631735815203779
Ni 4.1756192507168866 7.109642576822844 6.036081028710282 0.34464455169583225 -0.3464612931895969 -0.03375395652199348
Ni 0.7602062130007119 7.417407070632336 11.469026752968341 0.43621644766755846 -0.34544133656551473 0.033541840511187394
P 0.1697655460933726 5.8719745159989 8.094879015708734 -0.35096895125196326 -1.0518760984985305 -0.027279404541243345
P 8.56905309606582 1.804807948733805 8.217840246023705 -0.5329230937626886 0.36018507053359256 -0.18436146640063733
P 1.7136578689547814 3.375171527681862 10.364294150640674 0.6207275522721826 -1.2884289021907425 0.5428958887046843
P 4.013203901580457 6.124594348076745 4.035875494989833 0.11346355383849491 0.6703153905026391 -1.0116231645157545
P 6.958838065778965 4.257322454397116 10.559688098716403 0.10873272402172887 0.19808215842083948 -0.36259676529887874
P 6.097681207314062 7.782880248367761 10.304317852759942 1.2833599723082674 -1.2621141755556136 -0.18786819400231516
P 2.5254800308729535 8.711629096167055 6.116112162597857 -0.42562555952558956 -0.44386933622712593 -1.051033547992577
P 7.036458836958368 3.8833025360140825 1.6989111044267415 -0.21447371240498547 0.4423775821729478 0.022174479214510195
Ni 5.681109431238676 2.685658679797348 0.3247379570445535 -0.3931777234095293 0.9953347117683761 0.21160230439446137
Ni 1.1677120793955325 1.101311178385437 6.990106407361016 0.8359913646786312 1.3894033224232911 -0.21204067748346064
Ni 6.916568068682438 0.6554140803837385 9.46230114720704 0.47745591393331965 0.24480218818519775 -1.1126574914519611
Ni 2.599109292324378 1.6151885059615818 9.120804304671344 0.694356747722559 0.3338461755287476 0.6274319608755516
Ni 6.211498334363819 1.885483725080865 2.566744422101793 1.0319857873325065 0.054905908009260276 -0.1352809068239025
Ni 4.078841051298639 6.656519846063001 10.690899661439502 0.1936007256107182 1.3001816718512962 -0.8650957382437554
Ni 8.229011017895676 7.196801146873888 0.7448602673996111 -0.2383132380267444 -0.5841564380163681 -0.903938679252882
Ni 7.824922938532171 4.020523184794634 8.117475143216648 -0.35478601100520835 -0.17833891435564125 0.5285095380760253
Ni 3.1212151308431677 8.331926504481089 12.468763555667856 -1.2992879563924333 -0.8564902559629315 -0.6907062954541653
Ni 0.19983825321248683 5.05691550336738 10.398681143331375 -0.8433537185809734 -0.006657100305201438 -0.16345994036127978
Ni 8.632808144386072 2.539027524027143 5.697658285124541 1.3180099582819687 -1.4473842698134491 1.6420985402033201
Ni 3.7590747514733547 2.6893137752657936 11.411725403064763 -1.3229696162800892 -1.5916131298592588 0.15177119116944182
Ni 1.0264726440551484 3.1177873423068396 12.539319627397056 1.0626029979977312 0.42519849929049996 0.4862038353292788
Ni 3.17611430108813 8.340045908096318 8.296540270516802 0.8000051763920094 0.5139151852016183 -0.24628622892989196
Ni 5.555154114013857 7.821977040691931 3.652007731079751 0.41937777884366484 0.4303605031074137 -0.4412020738076079
Ni 3.1279070469247 8.342719037618016 3.81439944029524 0.10061806533439446 -0.10127703907463204 -0.1523280921141764
Ni 3.5380233061279562 4.40621758721121 9.595428452754023 -0.508662421443111 0.12382124292373513 -1.5015358161551882
Ni 7.258537709636937 6.283272771249166 11.738809167648768 0.016860008980132252 -1.2377061790248942 -0.30917078426925465
Ni 0.399136425154263 0.17565006795202434 0.4368911973512124 0.8012303070483621 -0.9954696946843435 0.1812172643447008
Ni 4.4514971280889695 0.3435389680138368 1.4783660989261005 0.5048854708991821 -0.982695939958443 0.34438384183527787
Ni 5.91198053605154 5.4517112753459305 0.5437509138227244 0.6239915677354351 0.45649216719745905 -0.9153217242788431
Ni 7.876448873904512 8.591147329867619 11.432232125252655 -0.31765516759118195 0.6887782251935171 0.2454809594197772
Ni 0.0639159816281897 4.962210343170042 5.784064014616413 0.5742504917565658 -0.17453676700073167 0.08959060387563926
Ni 7.846080667773646 8.910431738996815 2.5177461398145957 -0.6370100914822899 -0.07218449258404988 0.05122305984103436
P 8.61051388048401 1.6148429994247637 3.4055142754363317 0.3594469068159874 -0.2515911860825732 1.0675526286935226
P 1.8566793906429648 3.1595027104890003 1.411682428092451 1.2713192390936494 -0.6135315487443757 0.057457727896836536
P 4.869059962388386 1.1678666481093725 8.292348730688559 -0.4687542723942637 -0.20796702163471925 0.4359804203973524
P 8.338973019376724 1.3931914637785756 12.326839471847933 0.21193037715784147 1.3825721584340704 -0.1758418589654004
P 6.094380710659719 7.669699580727932 1.2713085775495692 1.2258541647823147 -0.7412009617696074 1.2025954513646901
P 1.8094177333171428 3.3449942593739737 6.080846855921457 -0.8941918842787633 -0.02779696760761019 -0.03677191741271087
P 6.963011421052638 4.097407481513978 6.095099000565209 -0.29860946381364056 -0.2584143796519937 -0.2521537434542625
P 2.3245225183267215 8.571307980832424 10.358305976820978 0.47171309791227145 -0.3864278062802055 -0.650124517377061
