# total energy = -381168.30310472177 ev
CRYSTAL
PRIMVEC
9.22630531530690 0.00000000000000 0.00000000000000
0.00000000000000 9.22630531530690 0.00000000000000
0.00000000000000 0.00000000000000 13.50363043818269
PRIMCOORD
 96 1
Ni 1.5562562510764895 4.1636469977103925 1.1443137193740607 -0.1474818197654686 -0.8972494401581645 -0.7123344152469022
Ni 0.1983960079903073 2.8776569040171913 7.36257122883686 0.3299869496836575 -3.7848312322286373 0.5362166769122958
Ni 4.818853059451226 8.150804003798727 1.1545106318493967 0.13931651034585685 0.04674059858964854 0.7314289699845081
Ni 6.456762111293841 0.8405634552630408 4.986282819395054 0.6506240827212989 0.7021276499172294 0.38028826904137086
Ni 5.622316618989898 3.878037494827209 4.208824523612247 -0.1860815344155376 1.2066235986874767 -2.884414964306716
Ni 7.755115453916601 3.217351007814615 4.758233466584145 0.002288796034176703 -1.952409608724605 0.7193314153900257
Ni 3.071132523459638 0.1203672998954741 0.13295105751862868 -0.8660879269536955 -0.5205416893792002 -0.08920390996018186
Ni 0.9819003015518765 8.603123614822374 11.17764380402244 0.27506150129037144 0.6069690650355095 -0.20532572735713026
Ni 8.324784440414188 3.7174075217946396 1.097423791232411 2.3537372149347786 -1.640380014850317 0.5984813392794726
Ni 8.986042958347403 6.205797384328941 1.7863409268081905 1.3335067683659874 1.9482570200088125 -1.6251979077932397
Ni 8.81407385625929 3.16217770289016 12.089516449324048 -0.33182605977492524 2.908607759502836 1.2959812606167036
Ni 7.0922054273577215 2.644056083384703 7.039280573003515 -0.6685359300047131 -0.1542312226741602 -0.7069219859820793
Ni 0.9164553510801978 6.933817446481781 5.9702387417391 0.29779056745677107 -0.6599631007340376 1.435017006497348
Ni 3.9438948611400457 9.060323941281649 7.885242339422292 -1.225431218312283 -1.050004078286798 1.4179443672857772
Ni 5.857928774149733 7.787103053945546 8.749447279056307 -0.34531535251061174 -0.2893370373727791 1.0086859362643015
Ni 0.4227566839937253 1.8686589441771673 10.52711916952553 -0.2780583791351663 -1.107920233877292 -1.950231113016048
Ni 4.296671865670391 1.95851393024059 1.4346258700030625 1.2914669176861178 0.2533505919758411 0.01805068685412375
Ni 4.929384195403563 6.209773921857776 5.089653419903934 0.3959910244886083 -1.9152985628049208 1.8029997186984885
Ni 5.769310112979266 2.3449669486462312 11.106317084004049 0.07815279435234282 -0.3491190425274181 -0.2164146381814402
Ni 6.1925299574925905 3.5030250948339976 9.075397878670541 -0.49084441942508367 0.25861646836047075 -0.7292083081841054
Ni 6.196285063697316 8.906060118817285 10.928582463814381 -0.2634686542464495 0.3544772215155379 0.28928921485397924
Ni 3.3454674814234755 3.8478028927808148 2.9562548751410946 -0.588223151886574 -0.6902308984796435 1.3552405604986533
Ni 4.56665200759337 3.9288559837108044 6.147297996390226 -2.1712529109521963 -0.3058386345722281 1.8776666113847598
Ni 3.3201689526437335 3.217083444964647 10.115110208425868 -0.4251457916756936 -1.4687534795178447 1.3202802423733844
P 6.8678124592862035 7.626796001593973 0.7293689479688867 0.4420991317005805 -0.2726770602185949 1.428559166687146
Ni 8.318040011333958 4.836078571206069 3.2586691702633086 0.6220100185290319 -2.1546438416406053 0.2453791437345903
P 6.4184268133070335 4.30494786140906 1.5981279918354618 -1.176190221898284 0.9632393738957281 3.1996430105136446
Ni 2.7914370821912664 7.460288872167276 4.017248600404574 -1.0476337782824086 1.9177092291289428 1.3827845315551928
P 2.694413257009733 8.143625938375445 6.199894394280334 1.3179829616987753 -1.5684577747887183 -0.6213219913230719
P 2.6291832794485455 2.6842181897954314 13.33253963983444 -0.12581230521183492 -0.5065854843094244 0.08796001025075173
P 7.857056899754446 2.2575477071480345 9.21345938662356 1.3046430500567596 -0.8686726569617362 -0.2702388830907475
Ni 7.829525605123245 1.2997280620932867 11.969023671678242 -1.616250983012597 -2.2497270931996995 -0.18451701814189514
Ni 4.030760524327963 8.390835559135622 11.912673090213927 -0.8878541149861935 -2.526521775131094 -2.0185260407377044
Ni 6.295310997101025 0.7947465464128147 8.472569551387254 0.03090106045423065 0.5132225300099678 0.3095536215299701
Ni 0.5350721873661941 4.261012196183264 5.25680085490952 0.7573042950893731 0.5254560959616821 -0.3543648643073897
Ni 8.59451547209754 4.8307088615963645 6.995109636995852 -1.4737884708385907 1.896175983042857 2.971959484286604
Ni 6.524354022978884 2.1487787954834188 2.809092539767092 0.3839814016222419 0.8724403515342847 -0.44648029148741175
Ni 6.6678599736134965 6.2771351759135365 2.761843708354278 -0.949244602278533 0.9909520093196481 -0.7203002070611982
Ni 2.05502108233253 1.3865844989760328 1.5791956136239262 -2.371312247704065 2.3236799905380816 1.7989276055116439
Ni 8.704391540382714 5.401198989254197 13.154142570933471 0.010533295431156053 0.30745431579878013 -0.5743744189289398
Ni 1.702585451093523 8.36013041552549 1.9927850407994345 1.1055656176021864 0.29550665651860075 2.074595630037763
Ni 7.616204203257305 7.44598809915174 6.998850903742818 0.23373538884807485 -0.04267851270513295 0.6898637449482119
Ni 2.3940324395472765 1.2674452202988604 11.474750205779596 2.16570986964678 0.8186122499702353 0.06622698944903432
Ni 5.207160565196301 8.045439598742327 4.029037973152478 -1.5164566991310784 2.217513484581633 -1.619911719693636
Ni 2.1482159908679686 0.7164392039018079 4.399010042630602 0.597742404230919 -1.1439642719850427 -1.3903165782661797
Ni 4.659468637616785 5.313853558197371 11.023756414809066 -0.6973492546919796 1.8825702193339644 -1.0855053565172013
Ni 6.19715233638342 5.446417110898805 13.259173906373187 -0.11684686848843102 2.171251368290299 -0.8187886276470996
Ni 4.21251873620284 6.221242219185719 2.91724328898523 1.433703172781931 -1.739327634460824 -1.600755458480159
Ni 5.386944347764518 8.296505815064112 6.360938628415095 0.49689782470801525 -0.27583463201097014 -0.026280016742451517
Ni 0.08599193208819396 4.053669440068334 9.66078018550539 -0.7927199555845057 0.7128944015154304 0.2365692587524442
Ni 4.314580124007912 4.536343595105604 1.0839284746583306 0.1823089547469828 -0.03503410878599773 0.5499121721215174
Ni 2.293890123217839 1.3031602476170154 8.906292621707603 -0.42764593238972803 0.7915681013682496 1.0787374416657487
Ni 4.339094416848091 3.714648856548417 12.47892096275399 -0.7490788218557873 -1.6305455452583983 -0.04277390063241666
Ni 3.175887992374732 6.230145603676037 7.252988557056134 -0.2681123236660479 0.9920588692305817 -0.47479250816854357
Ni 0.9522377304261033 2.857774216373011 3.2634225626875693 -0.8758691747101754 -0.9025014325857231 -0.18746530213694168
Ni 8.112284179708494 7.800813343430119 10.06232467127975 0.1162899675436965 1.00465213251456 -1.5668714041382048
P 2.992672024282787 3.0217256592672537 7.790676401938397 0.9544091771986077 -1.9102975100459034 -1.0624489889183704
Ni 4.57831405732991 1.5761204861103277 6.698570653006731 0.29396887971783564 0.8602767195885571 0.4040848572403363
P 6.49454383097037 4.7078513819351535 6.000473343785494 -0.05904615542987896 -0.7573269207971924 1.3867594570425408
Ni 8.82511774354935 0.25965775169731237 7.972232557730021 -1.3490233759443477 1.3675859694378836 0.6686434021168549
P 8.720223880056688 1.5462549362707854 1.6517641943183763 0.5307173443606215 0.39228066551655666 0.1558268492960542
P 3.6332174871064034 0.2010937796223994 2.6832521956439943 0.246770110544846 0.006389448466111577 0.8395657122934509
P 0.20792401334072286 1.8269283658873159 5.339200063764004 -0.3234013260463398 0.7651860118302951 -0.7977117523721422
Ni 8.998184775952852 8.641145218433358 0.9990381634075914 -2.246864426939924 0.38211940871283867 -0.0009173696079468071
Ni 8.787797339131389 9.095346995711955 5.667986829587901 0.4539981971310116 -0.030935513236591883 1.2919387151162136
Ni 9.195775327501703 0.35755992113115503 3.42134738304391 -0.10019666152625971 1.7423080572453866 -1.129077070460565
Ni 2.277070568890534 6.235939723323622 1.7308816064234243 -0.03408948548454129 -0.8448043349845709 0.7413835100940586
Ni 4.236008909169005 0.8623329223147552 10.177956108730788 0.7348199979439279 -0.6663571771858395 -0.943502043367801
Ni 1.7485047719311504 3.9730130802607113 11.738921465966715 0.24674002863785893 0.8787979183211962 0.2768746432397103
Ni 5.42896094151468 5.871472990141221 7.605744341084586 1.4579533035785472 0.8142058933724236 -1.9234738995268617
Ni 7.383516786836776 5.762897830885203 8.840164924653248 -0.21196123039577688 -0.2894213695564693 1.3941025276711734
Ni 1.4127964319677346 7.447362818622266 13.445037824049301 0.1417778274021558 -0.8287534521692953 -2.3140982603869182
Ni 9.145999411102466 7.407542085502877 3.9898234082828443 0.6903121453395402 -0.6087197291780291 -2.208980507409957
Ni 4.184858273299242 4.50990100448462 8.66147169135628 -0.7792296344075549 1.1285949886178241 -0.007278793049600368
Ni 6.826174144048065 9.021029107557025 2.7100979758009656 0.7398591030297322 -1.1791729586756918 0.21092893247652061
Ni 0.8082713871634434 1.10758103059551 12.983524199922439 -1.4355921622745276 0.07117507748292903 1.2058838923079749
Ni 1.4526725229181519 8.355231247479521 8.502290248235607 -0.08005335380916535 -1.7737763030569966 0.3821461481857161
Ni 6.849701222234915 4.410450661043031 11.038853417960887 1.5882403567322843 1.0257819725146398 1.174692297196519
Ni 7.916105252850853 7.896536259582496 12.432940748302231 0.0036003157567486383 0.10030619052093047 -0.07407271074569824
Ni 3.2402876024705005 7.370415433493511 9.576382558950801 1.0139957785129892 -0.4007804754574517 0.7900676055633232
Ni 1.60528483675685 4.497094892906836 7.892979518938955 0.21258729401555002 2.5455893332855064 -0.11821572381149961
Ni 5.048403532113508 0.8393372793057733 12.819036708697743 1.1969531654772485 1.7990528182355983 -0.28901744924983125
Ni 6.8891621294526235 0.7977727745090055 0.7275116927379013 -0.007206802161084362 0.06062301299869558 -1.4557853493929507
Ni 7.955390860270306 5.902916238165059 5.20163862155127 -0.9446065892858891 1.5071025116096883 -0.8924232224141148
Ni 0.21171971528820124 6.473101897752238 11.338066185188655 1.4458495783364778 -2.282381388899611 -0.9501933393450473
Ni 6.446677759741595 3.117310180842062 13.439919992570774 -0.4832756059388903 -2.263936294820546 -1.8816140260682819
Ni 2.149055584638558 2.678922290627097 5.583156489320775 2.4757381168203234 1.141369514674673 0.9929482138140706
Ni 2.706453585258297 5.322028064579155 4.909474751474385 1.1401626388507653 -0.48993322046472393 1.5013468400728338
P 7.191111418794203 8.032282887568034 4.723556398597763 0.05398673862910057 -0.633902913311876 0.5678872685426994
Ni 3.798128465738462 6.396920295952701 13.350876921362426 -0.5226116845343516 0.1250558866617846 -1.1642577321267562
P 0.18272605128734834 6.554191893902913 8.734270007049496 0.37181211324955965 -0.6647399532973906 -0.3997222093962664
Ni 1.7935291411671608 0.6221297577016748 6.763104044527482 -0.9572250493808482 1.6324576746794464 -0.05070729654688041
P 1.3597544035378528 4.999993108879625 3.4360393513987098 -0.819245255568544 0.5772301432101801 -2.5593262232556246
P 2.4326998845202517 6.483924353718188 11.428284687675827 0.5022647454468834 0.09216247836787353 0.6524549652824505
P 6.462011878936318 6.668478136059973 11.006147088759098 -0.13304121886010636 0.02051483212390015 -0.2920492940976196
Ni 4.4798970600675085 1.8866410129560574 4.466771718330797 -1.279259062766016 -0.19037270559172373 -1.9073988483418698
