# total energy = -381167.3486282891 ev
CRYSTAL
PRIMVEC
9.29602917825675 0.00000000000000 0.00000000000000

0.00000000000000 9.29602917825675 0.00000000000000

0.00000000000000 0.00000000000000 13.60567835940729

PRIMCOORD
 96 1
Ni 3.4588664818950496 4.360674258202937 4.3349735267406295 -0.32158895542794935 0.5299102750782938 -0.4463836180085474
Ni 5.2444012580453165 8.623870355985664 2.623392379944447 -0.20118008061987291 0.16209262770010793 0.09673107157516243
Ni 1.3648615744054906 1.728531526131507 9.55768993786508 0.47990488969444445 -0.3393653055747639 0.47900217537451695
Ni 2.906505732895582 7.7992661007811375 1.8628080174713615 0.6361176615750076 0.9374712637926887 -0.5484163043022813
Ni 9.221707279005319 6.868993883579995 9.866185168482755 -2.605240983509868 -0.9035800103618825 -0.8964274584775013
Ni 5.1803609140500075 3.350037870027856 6.178270108878596 0.39510785055270664 -0.4995373192133913 0.5666204860151338
Ni 3.8743524994404677 1.9959410972403897 4.876492317081115 0.31709723820518293 -0.3139319531033239 -0.6090303184399124
Ni 4.3874654138705935 8.533856906877435 11.804721427250238 -1.396267396532976 -1.6299295089409542 -0.9029919990688965
Ni 3.245755016356875 5.749668323973186 9.532015235284058 -0.7049064982139474 -0.07543822363465717 -1.6417923218168113
Ni 1.8137017441145282 4.779320925618933 12.86984184157665 -0.05339152824726289 -0.6724653469661064 0.24111831157570732
Ni 2.8488982409897994 0.00484694953682025 4.001742492474077 2.115313419472099 0.6796302401456619 -0.1604862024449365
Ni 6.70894415175139 1.3894867553088983 12.279913980056664 0.404078172372117 -0.31377897246522735 1.7698270886012617
Ni 8.388243908134143 3.838953220890004 6.249006382585015 2.688768926131195 2.285100330492671 2.004350520568271
Ni 6.246531779656934 5.375465971354924 0.9387399700455805 -1.8833708608583888 0.49793089395821993 0.41206119057759355
Ni 6.572552813806959 0.958550737513777 1.3363757526454632 -0.5242988424287874 1.44513018367195 -1.557600006138608
Ni 8.375266651606715 8.70765546564305 6.669951957980404 0.9559474682200053 0.8952758613715613 -1.1007016046416656
Ni 1.8508021959776844 7.6711203405873 10.377254815731842 2.1228284969022218 1.1511697885945464 0.7280243151783333
Ni 8.892469818810529 7.316151472034401 12.275491859046566 0.4733298075800881 0.4169154333461013 -0.2575517745413823
Ni 3.4873402188173364 3.4152959938262417 10.06871868258643 0.07744496965204083 -0.0024224933985635697 0.7035834085271496
Ni 8.926707093732103 2.8569950822758954 3.5512857433165297 -0.5976806977550481 1.2532122450802934 1.9888485682779296
Ni 0.7974737944772352 4.673364786722352 4.659727512133715 0.4352473988860698 -0.05536125037912401 0.3072164887563612
Ni 2.162135504258557 7.041109861090978 13.288176162417201 0.31627422808325534 0.9497007159793451 -0.8435653203711472
Ni 7.46727701599314 2.8016279333666096 10.392289283483853 0.9882508083384013 -0.7864924866175551 1.92062691699637
Ni 3.0250022149551286 0.40471656791287847 7.03236694578722 0.04255509975339123 -1.1637514819142991 -1.7935442297125432
P 8.66589770323531 0.05634323195755186 13.484138313598784 -2.9297625392035798 2.4776656728603395 -2.6118263500368695
Ni 6.736339549306069 7.773200035377908 7.909130290282397 1.1967281939506358 -1.7161211144373736 1.9686137292882937
P 5.14702535394445 2.3310164636667148 0.21469922729668803 1.3869875138929468 2.1010373691690587 -0.8142280048596106
Ni 9.079961428338967 7.09091798463966 4.2843464230343065 -0.8894502558287197 -0.395352619573661 0.10820050566734268
P 3.768294104224545 4.177579670406214 7.968315318314759 -0.6158679101870361 0.4308032470717871 -0.5115898795025512
P 9.049498341204023 3.489868738713798 11.925267683711144 -0.07116607862186454 0.2358164397468197 0.484848606852965
P 8.398980821665075 6.2527136389626214 2.3366796045524665 -0.5980146840556991 -0.22906806527939258 -0.7096977489550036
Ni 0.6600812742061529 8.718912956799723 8.166903597697631 1.691150303424649 -0.2307472527540284 1.2789847260587068
Ni 8.846770540093596 9.155807729203786 10.567666307978952 0.4944786737435613 0.2708855155358109 0.20757030041693286
Ni 6.540146856604513 8.359203113440959 5.447277795620241 -0.8158349443354143 -0.41936543754849065 -1.019626494436205
Ni 1.9199739479981666 8.130660239711144 5.862101935898644 -0.8586098734090954 -0.9585946760348651 -0.34753832830385956
Ni 3.6720337236074108 2.097611766753629 8.138603696518226 -0.06124881950815258 0.617671281944362 -0.3783985082178257
Ni 4.834279049250848 7.200220693987441 6.917290472808218 -1.5799089540484532 0.9094940618534724 -0.27017923349740564
Ni 5.71557978551611 3.7473966309626117 2.8495731326974574 -0.13755427623911148 -0.10059492540594288 0.8728920943597224
Ni 5.8684436869036665 0.5227789254166726 7.660064573260602 -0.7240064522681917 1.3628309712514013 -0.3923344015726275
Ni 7.402455805559217 2.1008096007403307 5.900796656740635 -0.46150453281038584 -2.625237995457085 1.8881119750877997
Ni 4.3923737171990185 1.7215223202420509 2.2776451721904083 0.8877281309312905 -0.44839113535687936 0.728201978406778
Ni 2.7889016696230216 5.820234480348335 6.3671440379239606 -0.2152329591685132 0.08695316625279217 0.11089810710416385
Ni 1.3831003833645266 1.717776020542514 5.0113925719689565 -0.9551247152083936 -0.5280580523609035 -0.3814756044812527
Ni 8.135689391416975 5.1172129888416835 8.49651475825947 0.5270586645621117 1.0332412570061624 -0.007371352763406659
Ni 7.938223142738155 9.076586969800674 2.478165166405946 0.09123302457506868 -2.28024763038606 2.0892835710672406
Ni 6.596025287110509 8.183359428288501 12.34069048825915 0.5697544036584252 1.3905477204403793 -1.7359098670285265
Ni 7.257753817660975 7.574367270431517 0.6998348127547876 -0.19797262942616872 -0.46745817929065947 1.8513500849774178
Ni 4.82775323687101 7.350044793881824 9.653813666855456 0.84118756416759 0.21883533180779083 -0.1792953647316396
Ni 2.965284524459284 2.3844593345665603 0.3464546355633057 -1.5277060467926529 0.5784593876315909 -0.7720850529429735
Ni 7.358299667661449 6.020210656865554 6.104160306236789 -0.32176636154607813 0.8934843166887774 0.6212931949676654
Ni 2.248848863060742 5.566155414870064 1.45760340803435 -0.7631039324902859 0.06880323481664279 1.0185898256415749
Ni 0.24974897515558153 1.2983391906588746 2.2847882408979125 1.9655805988889246 0.020840333784118946 -1.6872625383344684
Ni 3.9294035833626952 4.132865770766578 1.491685439271105 0.6992793818351569 -0.16267883922088114 -0.6360492702309175
Ni 4.456404765165297 6.144117427821205 2.63154220859602 -0.23714158631614646 -1.1241901746819092 -1.3646322861261981
Ni 1.3574991194128523 4.586614243804042 10.553312309552016 -1.2371467069769984 0.5245508105385934 -0.4029635991516995
Ni 6.700512653420175 1.500964735449958 3.99181061505724 -1.6330112331900715 -0.4180752579821574 -2.332088269206435
P 2.515254463034265 0.6636146948408775 1.6338654144932085 -0.6314703926109834 0.20351901316569465 0.9992669569432467
Ni 1.0684298006614856 8.571803297382424 3.054787621573705 -1.4349221327906965 -0.13408585807453682 0.515336491029177
P 4.493059007634961 7.1327036351344955 0.3524700959493363 1.0052509424408236 0.2968731978488242 0.39768383880999897
Ni 6.639223934018072 3.8110558377676464 12.618872297809284 0.7066031691900798 -1.4750418836297177 1.3122537725244818
P 2.3589510309051978 0.5379574816186674 11.095648220844335 0.2124908776470018 -0.2386636793876277 -0.29946358428381975
P 3.165595358021622 6.229808223429968 11.58402440202268 0.38770795854420964 -0.9766664459349115 0.3587308545855693
P 8.353764936457761 0.22969000371225445 4.626474686686534 0.7519782548907695 0.16054405226606544 -0.20067074508362215
Ni 4.1348086408340805 7.165295512917564 4.575168043258037 0.5420132289894148 2.492419691241062 1.1954704102841347
Ni 0.6384522034594715 3.866553131083367 1.4435217832580258 1.8136471711100055 0.4229981492050715 0.8012750442433685
Ni 4.295546278810987 1.6242951526056815 11.522118426292911 0.2110574876345849 0.6846153520650791 0.1067671156549258
Ni 4.376867940775129 0.42142803930210315 0.12942489378851865 -0.13234856366845593 -2.073987049919486 1.05892117827077
Ni 7.296843619736788 4.436799439938689 4.415613789776791 0.46479554485683183 -0.22648590637451316 -1.5255059538175404
Ni 8.396591742204079 5.417465430517474 13.633978216742522 1.2744598416051598 -0.25628730600666183 0.15851185232738507
Ni 0.8699809617140793 1.82511726776473 7.361529108146856 0.3721828663254171 0.15862060999110744 -1.7550838688538162
Ni 9.381645458485549 2.1713757571154795 0.08306001939295922 -0.7917424221625848 -0.5022886567062833 -0.8970571216417002
Ni 8.25006773261574 1.1278593142573659 8.531617493483841 -0.8736847654643469 -0.634724637882223 0.3106846498106197
Ni 6.47927645850881 6.769247492076195 3.4628767888190697 1.8285554556804056 -0.21597369398927965 0.04114459255910979
Ni 5.344751891436139 5.362367866450091 5.090251715842758 0.044640778637826346 0.2804515619576912 0.22783727819608504
Ni 1.5567595016946745 4.369105756534153 8.057921601351424 -1.4041627401206527 0.652669909506734 0.8887827974480499
Ni 5.686334478184241 4.543164604112638 10.39205781236098 -0.3932078053165164 -0.24636130514220156 -1.9007880278935714
Ni 1.6853328792239437 2.5991325329819617 11.846164983876731 1.0221744576690397 -1.2639694835967972 0.11992756429628379
Ni 0.25017659249101254 6.524947849138648 6.592073545169384 0.8072464313354548 -0.4974531829908529 0.9088368878854476
Ni 7.89216131888901 5.113550353403427 11.196112265789337 0.9175007342080327 1.500206041600171 -1.0008816097285342
Ni 5.539522291695937 5.145947014576841 7.700514384383667 1.3430324484682354 1.1887611165847591 0.5323109140999864
Ni 2.558518182145046 3.3453154872800526 6.305701004439943 -0.03602321217214441 -0.22021190044034336 -1.1696233673140437
Ni 1.7771497579642075 0.2129413482069053 13.144690095116227 -0.2516631769710892 0.0852814349773241 0.208046468722403
Ni 6.879507692414179 3.2314112435618734 8.350253826292711 -1.6732479692229314 -0.9625976265466712 -2.592863692891438
Ni 3.6495838134972827 9.368259176680752 9.30433782185704 -0.16391913938588543 -0.27094028003314624 0.7422563996173153
Ni 5.853588632511954 5.976389176012906 12.156632831854807 -0.36235585293266626 2.0591142465727117 0.5826577419836546
Ni 7.773534692423028 3.7731931115239394 1.6686688175827775 -1.0602013305347742 -0.5074534887366744 0.4585760463096812
Ni 0.31013226133005334 8.042403740089794 0.9027410976226108 2.0669268006385955 -3.262564075517897 2.2131107275282464
Ni 4.415279132731671 4.2319800322962635 12.455916627305555 -2.4350018154432256 -0.7882025273301264 0.31969585217029456
P 5.313731042559329 1.9592496706546023 9.42085703854167 1.0235553971769662 -0.10018509156203392 1.0276305956876044
Ni 6.475093245444811 0.2698553563469673 10.305661448148754 -0.8221855691437905 -0.6268485775682558 -1.5087027662172725
P 4.732831484434356 0.09584112970783104 5.207205986686044 -0.5033955166172169 -0.35759108455417127 0.312758501620513
Ni 2.164013302122841 6.5268628311190575 3.8110456121357124 -0.956123074565921 -0.5771702365065221 -0.06809720988855368
P 9.135012512261195 3.1420485164858225 8.755975294943852 -0.5775651579520956 0.7606320739110255 -0.10991517436560426
P 6.84875642837927 6.90810227771387 10.03946686803424 1.4761734261309998 -0.20387819627732628 0.5595787486770041
P 2.4234375842940006 7.408386672081065 8.029064868033057 0.47577621223805155 0.28774141075088505 -0.19564629528583727
Ni 2.4709031085268434 2.7756455322246603 2.9889633696073252 -1.9249196308344525 -0.1800391848761996 -0.2675597935966876
