# total energy = -340889.5291096003 ev
CRYSTAL
PRIMVEC
9.10439581341725 0.00000000000000 0.00000000000000

0.00000000000000 9.10439581341725 0.00000000000000

0.00000000000000 0.00000000000000 13.32520355936681

PRIMCOORD
 96 1
Ni 6.327163711470904 2.2194696500393216 11.560707378792479 0.07876831644915468 -0.5583099092669095 -0.8630098022490039
Ni 4.724207339067412 0.354413195076855 6.0924696816666595 -0.49860786542058644 -0.3941544855005018 -0.09490635966159784
Ni 2.747306110908465 1.486920845741127 4.766011994051765 0.5670565451112879 -1.095525459757365 -0.585573630078869
Ni 3.699607720781354 4.339956307071721 5.050212087393025 -1.907461069038373 1.352379179790458 -0.08306128739755372
Ni 4.7935008968098405 4.665483985048405 2.8109121524872234 0.9534447564028097 0.43146736301834726 -1.6732271432873247
Ni 7.170977338942166 6.107929856466608 2.479127933598623 0.47082246777720205 -1.9925231889160395 1.2395270342837168
Ni 5.517054557887759 4.581923838817947 11.715425663060417 -1.243632571811658 -0.4562900784889819 -0.6079915927627528
Ni 5.531357563959675 7.789320600168356 12.573715280127065 -0.16952722960128222 1.1040664073488407 -0.3212778519454338
Ni 1.9721942554414549 6.178525342833025 0.6651471400387348 -0.39129387612325517 0.9363371501882455 -0.5375202262150679
Ni 2.635840991024014 1.593433174216843 0.5861264456398863 0.5843742104541291 -0.12272569586671121 -1.2298334611450368
Ni 0.8359310414387577 8.950267652530174 4.96871499728981 -0.7456006334991998 0.4544337420065334 -0.6283426456152792
Ni 8.637631799249757 2.2620873275839686 1.5215912960418685 -0.1432454130866178 0.3971323371819031 0.1824125702043826
Ni 6.491989696146889 1.0037687603022614 4.659996765596117 2.3954844740748937 -1.3293924890872975 0.658346391066221
Ni 0.87693450957758 7.536473315235662 2.482325397463968 -0.9432606167809561 -0.322321976939232 -0.012530271256526808
Ni 7.876750114686888 3.4795362613476417 3.8233209845668545 -2.760523530266678 1.2363188117590642 -0.7539952853207982
Ni 7.842690569355863 3.873528997033307 13.016045985346546 -1.4829415980927687 0.6454106568411595 -1.0531233406420701
Ni 8.548263048389202 8.658936085824095 6.996224831337974 -0.7440119488558412 0.2635409022452816 0.45039196783699204
Ni 6.737580777489947 0.566443651988151 0.16590121384027207 -0.7327350903904414 0.5268126099895766 1.2282339778684008
Ni 1.9744521456424957 6.579200705162094 9.22374640917488 0.0782918910333684 0.012848059607261743 0.8351547277099488
Ni 0.037057622924583845 4.66734128182668 1.5464836250687473 -0.012276760484824019 0.7641837958180258 0.7088479993601986
Ni 6.2201779544046465 2.112347327033486 6.869848531730682 0.4212870800512358 0.5220869223791331 0.5220229019104171
Ni 3.455828414236712 4.270571705369573 0.7148999327065905 -0.19732188321604727 0.051050538818912077 -0.7273985086688762
Ni 5.864969945559441 5.619651996095541 4.632906635381612 0.9969485932227151 0.841019414020842 0.6997020711948724
Ni 5.3564439085467805 3.1712796225297266 9.175202680292097 0.13197343971722433 -1.2850656421454643 0.48990956631564014
P 0.18115653973085327 5.601780066802625 12.840566036504198 0.5510275166728833 0.26283950530288286 -0.9739585600854452
P 4.102677539251044 6.142890736998855 12.913294682846837 -1.0647393276144437 -1.6048571393533586 -1.5271841128509118
P 2.2730490203341835 8.556466109159919 1.183635207123891 -0.03720386274380689 -0.19598388113091408 -0.276452210990311
P 6.730479348631835 8.211782782058275 5.870937877119047 -0.6921869937647499 -0.3687897814834681 -0.006390476907376091
P 4.626498961496561 1.0241170852995451 12.56430770776926 -0.17777867097679706 -0.07593701764794664 0.23912802061855587
P 4.03228234959601 6.218675729069277 8.394505277896302 -0.4092676869928565 0.07691737928334495 -0.7994451901234813
P 4.5856111191865825 1.1093888579727271 3.58525286561541 0.13728868128255067 -1.2604848674823066 1.4230163824920459
P 0.0795888087074975 5.503479903493598 3.579576274726906 -0.11560656832342672 1.5230490076366157 0.06654812023387893
Ni 1.4119370405162364 0.8951196300919312 2.592191785415746 -0.49872973571043144 1.0782677011181816 0.8699265839734953
Ni 1.76201927442924 6.701117671622331 4.510048274377876 0.8729301466865095 0.4460126078223738 1.596551704811457
Ni 5.949395009407233 5.42897863125522 9.133721231364747 0.013084601098100047 0.33009750711959274 0.8128789470308839
Ni 8.665081553105153 2.5620043396915877 10.221204002189392 -0.11854482501614422 -2.001701770091514 0.28477718591623863
Ni 2.5505965315387478 5.0194720048333705 7.134500576480591 -0.32363375377212006 0.24192923751277687 0.31953207289892066
Ni 0.1962580013295087 9.05462223916054 9.534902798109856 0.27071222318274024 0.014003256257627496 -0.3961607172972532
Ni 1.3099404924426024 1.2641180675158326 11.617325796462772 0.255527802132818 -0.3575268069751391 -0.9700039463130715
Ni 4.084505164891053 7.219494665076629 1.3927504364449719 0.7490309993369875 -0.7595169864699758 0.2501408267892918
Ni 5.766187249263902 7.739810894872951 7.870877779284987 -0.25436232106980705 0.2933965521541334 0.6810222353971819
Ni 5.266219344464864 2.9322072887025765 4.483091978784159 1.2252604970623735 0.4759793293877931 0.6603667639303595
Ni 1.406592760080708 7.105443896736149 7.0614123064970595 -0.4953168533741405 0.8008940067548659 -1.6125719914991132
Ni 5.243103283092111 4.840725398716289 6.926747364796913 -0.537786335392261 -0.5922389579141865 0.20862676670590521
Ni 7.861236223950703 6.707936864205314 9.250156441010281 1.1289271751462622 1.133827440661357 -0.3126044925411519
Ni 4.593358960158703 0.11189939957231229 10.451823814796194 -0.06218624372075742 0.1706716276183706 -0.2917425614904782
Ni 8.056662083488376 7.51716289137918 4.238147309555109 0.25606413425226227 -0.3401186388010207 0.7795227401679413
Ni 7.2691500407075855 6.172307040384191 6.805887418709019 0.9130766369984081 0.3687954379104229 -0.4569169134397034
Ni 2.275516311642579 5.162629527096141 2.8255957223107666 0.4053536966504309 -0.30346859167815476 -0.5431853949206452
Ni 2.2206350127237298 5.303620203117591 11.70929658369211 0.24487957839035243 -0.05800383020829365 0.36454463305386897
Ni 1.0210671126489457 3.4160604126312815 3.981144778300822 1.7683245359138062 -1.0336896573974907 0.19475669359203235
Ni 3.5814053478776686 2.7323657971185127 2.6502368619348444 -0.46428029578331015 -0.09806958788092787 -0.22032014388343346
Ni 1.041925283820658 3.301472484928456 8.310436195931013 0.40532181497123093 0.10979381829639155 -0.4356091531008627
Ni 3.6959295448086906 2.955614690746432 7.331593450920727 0.9091287080942536 -0.8920329289542315 0.3701879473825753
Ni 4.17411973444285 6.969924962693835 6.0973596527431875 -0.75577834536315 -0.11489925784375694 -0.34038603352979446
Ni 0.7363817550023808 7.122860606230468 11.208562088752233 -0.5538282193464719 0.7497863894457732 0.4682189687160839
P 0.10975440388132342 5.580748912107445 7.894756789040189 0.7572924680148312 -0.1894885032145575 0.3107666680014648
P 8.520886129701582 1.6072627516982185 8.059855905595333 -0.061375832004320105 -0.18391280889899292 0.029573599892058745
P 1.7205669595690012 3.202871876552355 10.572776625723003 0.16225280742705606 0.7942757301073997 0.12189548665593199
P 3.9651556380949025 6.4178890173312775 3.7732049264997185 -0.1412389241795503 -0.542467285807698 0.38222328128055466
P 7.173144185183488 4.014601612618504 10.487121557979401 -0.9787950622421402 1.4365519550846357 -0.8827013671406604
P 6.418244088774182 7.843063849590712 10.446733547008282 -0.1349165815059483 0.5428704347833876 -0.4432525285787334
P 2.638481265855876 8.700443027060166 6.038822028402008 0.008123657548398912 -0.5252537501428889 -0.8929094180219139
P 6.7535407836287575 3.9186868010541254 1.702880759953912 0.19464073683945834 0.28324095177737024 0.3628957845965363
Ni 5.314336077176563 2.8424470488152287 0.4085306351736584 -0.2027253136198057 0.034895012104972166 -0.09275357498465316
Ni 1.5367036829156902 1.134526095251251 7.193718299200875 -0.3634701690427676 0.5647096421456661 -0.04551083994760549
Ni 6.745237574502348 0.6665064263573452 9.092426422554823 -0.034466923428618054 0.11572355351726522 0.36363934763078015
Ni 2.931679233736204 1.732402674332522 9.472541327460462 -0.9212216347030456 -0.7523968304854268 -0.44170035360026505
Ni 6.325379249860403 1.799556699021545 2.4404706683017694 0.835873093933212 1.7432223415295396 -0.28746604560231137
Ni 4.388063935387447 6.642476257167071 10.670316571968373 -0.14335648474318538 0.5625861680447601 0.1908666145090068
Ni 8.264378877588168 7.292748635066852 0.6307407172211795 2.402406398005708 -0.5374657188280486 -1.435870869857211
Ni 7.7082823716221265 3.871170958476575 7.92997532397844 -0.10126161245566431 -0.25169942952566327 0.6242245096818475
Ni 2.940055278030388 8.332060957243563 12.33687352331304 0.4074416895277112 -0.057138653994520956 0.8082093094693564
Ni 0.23269106269041753 4.859261948915156 10.0758796336853 -0.038047184580708666 0.8560331138208548 0.2598716809238105
Ni 8.733683176753715 2.4824592320847554 5.931434767473388 0.11717339858991434 -0.38390761096151305 0.759241364211086
Ni 3.7550534922504633 2.833615784722448 11.455570724548123 -0.0175331237877569 -0.2335502694204623 1.391140873939688
Ni 1.123336792601738 3.3536679870355828 12.863672083041381 -0.030368584989528345 0.3288008997953563 0.24690946433618766
Ni 3.133915181460888 8.567145565635004 8.153278843982193 0.46404735383689755 -1.020889163198713 0.9837629477703765
Ni 5.746631006716177 8.041275654295799 3.3187089273825308 -0.4677145182758397 -0.15397205547550258 1.2111006606222239
Ni 3.246263427754617 8.36490961791032 3.2581455749375947 -0.8760272975545945 1.102923809103965 1.476463960788225
Ni 3.3816640046492954 4.639946154347116 9.846538988712558 0.603798894837644 -1.3916926326780998 -1.4150274507492986
Ni 7.464949180480109 6.19812710736061 11.622842149982171 0.5872828994604918 -0.612322616037939 -0.5135341477131156
Ni 0.29672865263824577 0.30223954352006055 0.2377376293776634 0.9288670670634455 -0.5393009722645744 0.913424250145814
Ni 4.657508534176986 0.46458093853530447 1.5943609121663835 -0.635036769806003 -0.6330184538243936 -2.003192495704427
Ni 6.213404283801524 5.722722862893864 0.2624196468575904 -0.39653147037311065 -0.46161483313600504 1.896410724761482
Ni 7.9643617171248575 8.805325668656904 11.71647904167437 0.16620330743437184 -0.21931715654021583 -1.300862757078721
Ni 0.3501113679801137 5.026081796308998 5.670993505860501 -0.26493958236502113 -0.30818219510374023 1.2674674694477268
Ni 7.9418738590741675 0.06664235763540005 2.370860277579517 0.5674118715681776 -0.5721239323318663 0.4353404728205083
P 8.676689657969376 1.4931573569819054 3.9216876099664764 0.28715134257536995 -1.306431766526066 -0.5038197486388291
P 1.6303423954870844 3.1668093641075044 1.8700320073611314 0.4554408431148092 -0.4933018798266407 -1.4482263060987703
P 4.581869212442116 1.0249182721450758 8.235548897303426 2.294051369038372 1.4402443163345582 0.20840462339277013
P 8.204790605951827 1.8357193598220873 12.555367190924814 1.9068409189558706 -0.7791694705935807 -0.58396437661022
P 6.471595849169746 7.756827010944506 1.3565058360806823 -2.601065254865624 1.114372931481171 -0.3692569509278737
P 2.108569002705131 3.039548117211739 5.980671340889635 -1.9223235879725022 1.6747646629777737 0.7155657777000064
P 7.061405933419878 4.129471776596461 5.8287107781615966 -0.4408770863680213 -0.6057249082157632 -0.12840166320556598
P 2.2571618493631496 8.659955778172952 10.321449774917623 -0.6237272583304548 0.15740627796803214 -0.440520474359551
