# total energy = -381173.6351790637 ev
CRYSTAL
PRIMVEC
9.18417518927070 0.00000000000000 0.00000000000000
0.00000000000000 9.18417518927070 0.00000000000000
0.00000000000000 0.00000000000000 13.44196874016057
PRIMCOORD
 96 1
Ni 6.247737270462368 0.24670898942491873 10.71186454038236 -0.5398589016505734 -0.6837301212466483 -0.3975907648755604
Ni 8.14966057191861 7.840833494725122 4.7151877215817 -0.18324072253263282 -1.0189940030585287 0.4622833199579393
Ni 6.098512790885856 4.508621843787811 10.882349467261411 0.981170247342536 0.08535599696900138 -0.07867215719092258
Ni 8.495178429264001 7.7072129289103355 0.3931469902284418 -1.210335243211109 -0.3959041212017569 0.5115587691542997
Ni 8.792194657076925 2.3572747107006675 0.578343129034232 -0.6110172669629541 2.9348260697694166 -0.7001802963828715
Ni 6.675122866049083 1.3540505106723169 4.090686764540598 -0.8491867803229827 -1.1403840108329522 -0.5810628866927089
Ni 5.264405994040783 1.4781379025702885 13.268446875171271 -0.08143300776551136 -2.615706916038198 0.23955379530206483
Ni 4.066752803820731 1.8832886098596915 8.157003320036619 0.08906172795536274 -0.3706072943081811 0.09490533122033333
Ni 3.962273626096556 -0.11430165316158741 9.73596418016125 0.20621841437472868 0.23327541849252084 -0.4270196116596387
Ni 9.25351578023843 7.987706825435829 7.279148622772124 -0.7454941898283225 0.04359202565833783 -1.6827417676459795
Ni 5.914195577652166 7.948664896418119 0.5281791637802373 0.7632219461253889 0.8270344125956595 1.3544543171519319
Ni 1.1866413640868507 3.597533289938163 6.387986973977692 -0.3445656188287808 0.34403751423945267 0.0707601014326975
Ni 7.409057863365538 8.060978175636556 9.019601265364107 -0.7601114255208652 -0.9527518441008432 -0.32842834694728595
Ni 9.216962762715383 0.36127514683390916 8.998309591865693 -0.49946404277329465 1.2410720101733335 -0.18504332295901035
Ni 5.413988656452318 5.156078646883905 5.597948605268511 -0.9349338420828157 0.5156416809744216 0.8557929727855905
Ni 3.953429265324019 4.473896477140913 9.733369650651134 -0.0097989883682928 0.8510544296593406 0.8656701226899864
Ni 2.9251965560707274 6.580856491210746 11.568938204292733 2.2427239224089894 -2.0720782629325476 -1.5554037698182372
Ni 9.056607062727329 6.706045984139563 3.0126271492652443 0.29946461272508423 -0.1927736017237325 -1.26185937923233
Ni 6.91407673788695 3.5164737591194597 4.766051520990281 0.10707359115175108 0.06333732660606511 -0.5757000797188987
Ni 4.996586259370014 5.391661926402436 12.88073967194758 -0.8712663858308414 -1.2307462027672933 -1.9870269416881587
Ni 4.064824127016751 0.26405605965043044 6.514596340401249 0.32151850720133013 -0.09420033473350874 0.5133662546766836
Ni 5.869183934717375 8.515916296994416 5.045267898737521 -0.8920966923126313 0.759123607686299 1.2601462531959653
Ni 3.0635469721428943 5.730567177562754 6.813008562853244 -0.2216100663394506 -1.7344924178557095 2.541879745644403
Ni 5.902191860591204 2.999193456116761 2.186538137419573 0.4766634999390113 -0.7303411362369681 0.3056661135501058
P 2.071775438660082 0.8326896786029117 8.450280670102398 0.8975582296478349 0.44876163132242064 0.41136724983436246
Ni 7.196453390340141 5.703657544059603 13.048119429172221 0.27581226341346693 0.8351835240653551 0.2879663822774976
P 0.8315664539689747 6.449853415344217 5.3764510953417135 0.17524690569387882 0.2999528652154124 -0.12482628714948181
Ni 6.107788807895474 7.635227363245596 2.949316037130786 0.5966782246324627 0.9432503323683109 -0.7946958483639539
P 2.420471020644413 5.10585039240311 0.5701453341997912 -0.27005890586945747 0.2634745677837204 0.41269779572032794
P 4.5124240923442285 3.1589889214141342 12.017967227290207 -0.1953177083018249 0.3407966387046518 -1.5587575167818188
P 4.507914662293018 6.095977958514911 3.6215352135549312 0.3425437033027456 -0.6096129304162597 -0.05779865617602304
Ni 1.2687019700085724 5.061683693591968 9.78477164272978 0.24047733555759873 -0.8001460728452477 1.0027554297124794
Ni 0.49438415408687886 4.39072458601309 2.862588033343433 -0.2500230702645049 -0.5068531361485142 0.41168349552320066
Ni 0.4990598177102419 7.204278307659145 9.423989686107173 1.2713858306655266 0.8596627401536421 0.2716285643494225
Ni 0.07384627957181791 2.8510527092205815 8.403354126626512 1.376047212831359 0.8726388406983359 1.9666820594832195
Ni 6.316141007776859 3.386793204489946 13.246106368858502 2.4864979264399887 1.3497823655975592 0.23581901084998097
Ni 6.911036775876868 5.7338459281295195 3.978204496497431 1.3487467252441934 0.06584878017400918 0.531020477423337
Ni 2.3289966350842173 6.562019747758541 3.3907901575618133 -1.463703832909079 -1.3209474436437378 -0.31864092854321896
Ni 3.966920818776622 3.3505891856266636 0.6526449436987994 1.862594547542986 1.1375113172708475 -0.2619195645917747
Ni -0.11143251681128571 0.7184054753743127 4.688948532872315 1.0257696312194655 0.6391708465790347 0.42813212799752715
Ni 3.3893923260876906 2.9513071663265142 6.047273358709261 0.8606153338748985 -1.4144283837127187 0.5849174845521088
Ni 3.727966946938755 8.163491939855723 2.7148339402255752 1.1260639946658544 0.3641931632517212 0.5045771956301439
Ni 0.880179212022054 6.300160542829596 12.225860218408739 -1.905655897508834 -0.0814270942282404 -0.15852033696781734
Ni 5.766835485652835 5.488132503302465 1.9636565722815391 -0.6059066852092663 -0.37340902542303434 -1.6031494126336325
Ni 7.635172258194053 1.0628754183228757 12.2928551032388 0.5512997964976635 0.08741750748372042 1.869503101737361
Ni 3.9956305506301537 6.785920756350108 0.6770316842588383 -2.6822645493537745 -0.3106118875911554 1.5806455751041617
Ni 7.9302322566772245 4.6547145196016695 6.611594088961033 -0.7225380952527815 0.09955851372162855 -0.606702184527368
Ni 2.528798367801291 3.6119708134422424 8.215865617676563 -0.30183337006757693 1.1564901723661953 -1.2893511568946956
Ni 3.5891665062789926 1.7928244835777716 2.577819821653309 0.5647530937890919 0.5489665203787965 -2.4350110714146065
Ni 8.510865000603038 4.203321489893031 11.864835799559348 0.7119934869677157 -1.016880813370268 -0.7466686697523979
Ni 7.185726273639908 0.9188124452408253 1.3162714057524507 0.021455598770614665 -1.3246894271846734 0.5747613699547134
Ni 2.964936482407973 4.133108470052901 2.5552644056395253 -0.6963059010291298 1.4773751597485847 -1.2631068784861859
Ni 4.478047724357099 3.3869034145930303 4.093630292710482 1.2563515620402235 -0.31072630168183263 0.3393488505145317
Ni 2.3604799878653773 7.943420732346345 7.58469786781637 -0.1698648154463591 1.3786234581989676 -1.5178265828954116
Ni 1.6892178025030165 0.10085326533269244 10.620499446507724 1.0117928573243995 0.4386435690518123 -0.3940223307980117
Ni 8.322010804792367 2.2384957721012695 6.590234452565717 -1.6275489245239194 -2.0113961145611423 -1.4460899764820578
P 7.60674723577349 4.306891434266758 1.6700439998188779 0.604854589795668 -0.3875953442257454 -0.008194105775018145
Ni 1.8203586409984007 0.9748175459583022 6.260503274069664 -0.9306329007146167 1.3551078915755306 1.0863545918913742
P 4.796720237426141 4.031301887328527 7.3469902885608835 -0.6201619095766997 -0.21997664450108564 0.9884693521071105
Ni 3.1417777769824267 6.794507960215446 9.17853892869247 0.8266364058262925 -1.6086109499688361 1.7849588020363774
P 9.047046336284742 3.301453848001459 4.850950955483957 -0.34237735292821037 -0.08017676676090708 -1.684616358960873
P 0.6381927255143092 2.3557593217832546 11.98352840691133 -0.24378248867143174 -0.6423469303141711 0.04527661244961235
P 8.806356655323292 8.896021758357849 2.514185426549802 -0.17941697791116845 0.04652231193125536 -0.26248932105231565
Ni 7.939324590181703 6.3296509295799765 10.617515507966708 -0.3877334124655064 -0.4651040772361861 0.6146618056940769
Ni 5.791880731578804 1.9814215224812466 6.2280537460514624 -0.4972325823396146 0.38737808600861673 -0.01968153758932739
Ni 1.9262062608358756 8.375095337778102 4.882311240316671 -2.764731654810755 -1.7738110129496742 0.37402429040953
Ni 6.672101272389514 3.361279565625867 8.299555496288885 0.09073371634114696 -0.23026491380097117 0.4637676178129497
Ni 3.7545275817821366 7.105677002099481 5.329794566618385 1.5790216663474934 1.626018346812006 -0.4937209696419304
Ni 1.989769937789903 2.4711584838880594 0.6289111979995368 -1.6417211022592437 -1.1198601798479875 0.5333509253287266
Ni 3.4881038417504393 -0.0646464912168332 0.6575098013324577 -0.4729752524541467 0.9843604721450595 -0.12934962894113208
Ni 6.845425027840519 7.009720739013846 6.613126009393909 0.6083834288845329 -0.21909938410245494 0.37787246051102663
Ni 1.825262990585664 2.5953560858891156 3.9599096193853924 -0.6010218463131392 -1.0423231647027726 0.7705097380360537
Ni 5.205039485179226 2.4334941811589066 10.073264037486638 0.4139699775645322 -0.9866356413324816 0.7206704459164234
Ni 1.633341280239138 7.614314996185297 1.2405892095467492 0.23552179132453632 -1.926000265493141 -0.35614946701163824
Ni 6.323864899168036 0.8607096788946385 8.308790184509848 0.32952852199000027 -0.23715547027321737 -0.2325987041404704
Ni 0.48791298420076307 5.693261057668625 7.57169950457507 1.2903613433267647 0.06113697652063664 -0.11425391095027418
Ni 4.568346535484392 8.126507266095592 12.093241646114496 -0.7553692828501893 1.8005484289445186 0.5714991542636738
Ni 3.196313409658776 1.2320662949082088 12.137116288152464 -0.3976391016149926 0.5585492789712252 -0.819349385246576
Ni 5.464226095108369 6.9796884859233 10.42380288344506 0.18955020969042838 -0.7144746015183566 -1.0199995615049078
Ni 2.059055355929071 2.6465211262461286 10.133672031822343 -0.46803873438447785 -1.6024760407156917 0.9175575555878972
Ni 8.591024482246551 2.1126450185539447 2.9764286409071166 0.37247597208580363 0.9107400184454315 -1.1470776208030438
Ni 5.835496379874524 5.7288221842639135 8.449231837288044 0.2037666104001265 -0.8382871026913434 -0.19486390859385794
Ni 2.6313396845462282 4.664036457487573 4.786321914200111 -0.761288990768734 1.8525037389658872 -0.17259198456953503
Ni 0.6402261019162195 0.34046380570143897 0.42793848293719 0.6901553080467017 0.9769297268986271 -0.9045580580044357
Ni 7.921608316110857 2.0090750741802172 10.269086267064832 0.055635587086433215 1.0724948031901465 -0.4229814370345232
Ni 9.01003410999884 8.431881093392429 11.459600597857579 -1.4587968825257651 -0.5505060969517745 0.4329902274207769
Ni 3.4182122680443063 0.6160010028407048 4.424558169242528 2.0974316540956717 1.548389286173617 0.18398865644225088
Ni 4.903513827315091 7.7427556871551095 7.736296456696828 -0.1418343916717041 -0.07046699567231089 0.4369330141186088
P 6.832190631295114 7.740037171279024 12.108121846865965 0.9173300129581234 0.24717891594749042 -0.9804112576893246
Ni 2.272302721222462 3.8942097032665752 12.11386195640162 0.29908408945721393 1.281234184214516 -0.01997772867350753
P 8.275300089435023 4.528248426312122 9.42851932134395 -0.503611746393081 -0.354995298802537 0.21192960582689307
Ni 1.7242921678096814 0.3420829757992565 2.659547042013199 -0.8533586523124851 0.564187708203925 0.3431882788652799
P 2.1386546028819033 8.22721174778912 12.470181322266827 -0.5520009363297461 1.635386161180151 1.172817448771309
P 7.733865405506288 0.038525778368263784 6.382300132658528 -1.389547561310639 0.6445465090686513 0.2907753124812024
P 5.341911249035008 0.5657185617258942 2.4280902124376595 0.2319818964920779 -0.3850743775761046 -0.04543782061782497
Ni 0.054805647428906576 5.324755209654843 0.695862917205889 1.081485179614215 -0.289786723315688 0.554980073562728
