# total energy = -340857.3206171334 ev
CRYSTAL
PRIMVEC
9.39084179141347 0.00000000000000 0.00000000000000
0.00000000000000 9.39084179141347 0.00000000000000
0.00000000000000 0.00000000000000 13.74444620256331
PRIMCOORD
 96 1
Ni 2.342611200833074 8.819850362943596 4.569258653707151 -1.0241431513596362 1.9453164493232498 0.01967896648616611
Ni 8.56799737908208 2.8334611062530217 13.406813570529495 0.27083537902416577 0.0335976334497873 -0.2968091773801082
Ni 6.354172181480925 5.799126482120959 4.886233368501442 -0.8919866490973284 -0.09517375439037157 0.5521140648688427
Ni 7.0483338099554915 1.5733510111914037 2.0753703837430453 -1.468080621820536 -0.4590840962943513 1.0641569727484124
Ni 4.908123420531017 6.611096219866667 1.337730097228267 -0.3731729981528283 -0.5698014548462768 0.5894074020026623
Ni 1.9717292982779184 4.397552747516857 10.417479517211817 0.0428911429365713 2.650117275197268 1.0458597171011215
Ni 8.810863327425661 8.283013505662286 2.3784767034977485 1.0010453889999082 0.7691984754237978 0.6189545195321599
Ni 4.772247331806894 2.488460363454842 6.724538526826118 -2.2104090123263673 3.9369803755627877 1.8554116566413015
Ni 4.354430002377513 5.8173634967247505 12.94744646194745 -0.8546238921781539 2.6262664367215995 2.0189525867521616
Ni 2.435298808525872 7.512908140266578 0.4849702994243591 -2.4075807431177956 -2.5353087772951044 -0.6007534231431008
Ni 4.95780097318501 3.5966548121490436 2.0307967535592693 -0.4160232605491352 -0.10097827688729061 0.23122162128728568
Ni 7.435715421397804 3.816372335673705 1.6754754757201185 0.0019427255486676222 0.31677122232433186 -1.1238268778052194
Ni 3.8220162315423343 8.21832938795327 12.460440228040031 0.9559659801627663 -0.4728428406413404 -0.6262698222466505
Ni 8.015665632976747 5.442452923075348 3.202277023631641 0.6863310492046051 -1.479875043352303 -0.0866052959950702
Ni 7.561158284980419 0.6815093474366227 4.354693885029607 0.7601481922960714 -0.07169598298340556 -0.21583716841141537
Ni 3.217790694139088 2.6442450366074093 11.094970523480077 -1.5787056777689714 -2.0148622187328717 0.5181490207773076
Ni 2.2555111439586355 2.148765446223677 5.283585236588886 -0.6270138995015265 -0.9880867719567111 -2.3615947633059844
Ni 1.571989339143232 1.8532920026121054 12.8961658926133 0.39430592347670157 0.8594228562286941 -2.1286993538607013
Ni 0.9586546852798017 0.3447049312842664 0.614812772348825 -0.9192233733260944 -0.787403685577915 0.8739179645210756
Ni 6.784685928904294 3.973405990773905 10.283786799185624 0.227057462607267 -0.39433960492811443 1.5917920786392843
Ni 1.7277834031375106 2.843377835100397 9.039831769120351 -0.9283456473423366 -1.4140301198330356 -1.514357907620521
Ni 3.770347820445498 3.462816536076322 13.786779234272213 -0.6241764300527315 -1.225137341220948 -1.0801019261134432
Ni 3.1858430506364637 7.562247622618956 7.3110970737174625 1.3665307887004916 0.659318010950871 0.6075079682581151
Ni 1.080641719112573 8.918191257346734 12.029881404576447 1.8352022715729621 1.4451684931090532 0.23516697908827885
P 8.032907218359115 5.128629774759448 11.686957915964857 0.6273350302863712 -0.2372534293036624 -0.7007107149650449
P 5.351324195106664 6.981856041479572 6.579837864145668 0.10795265132259471 0.9208398258835948 0.08094938326087349
P 6.4314306362416795 7.682544304943652 12.908632234985355 -2.8264502148664743 -1.0786857624922066 1.1533788804307232
P 1.0150748622826724 1.2224903831652296 10.59347703806428 1.8638163357652289 0.8925875159061208 -0.39311524560271005
P 4.903991450177944 4.46896070789133 9.364420578374348 0.08943428080343307 0.7404885090836151 0.4330642751918219
P 5.855030162829696 4.428702169474001 0.10393783606321114 0.18729406666640003 0.22323088977232525 1.0836042828397467
P 1.2708626088213195 3.581216268375289 0.2769988407124792 0.7862320338673169 -0.10539260390490236 1.5704758336600115
P 8.687232896293372 7.35152652545394 9.153168898652632 0.16125419095921262 -0.04436747037178165 1.0835911702136243
Ni 2.6297174044796727 5.197549162080365 1.1222572341572172 1.2032112305718181 -0.049841863222791584 1.6101816368900657
Ni 0.6092872010857608 5.954272578037142 1.800453492638012 -1.3866044195219152 0.10552450149707633 0.4905993932938131
Ni 2.173763866859769 5.19672276800975 12.554575903524746 0.15344497932743897 -0.5029502015496822 -0.44277918848674064
Ni 8.410447227687746 0.7795441003999662 10.891030553114955 0.19659528946266785 0.5132073605013161 1.2741286835179861
Ni 0.0294468623548438 7.109862604849433 11.46927257058657 -0.6227181003396501 -2.618951134007109 -1.094927935382682
Ni 1.0334621303538476 5.040158654995126 7.320058753962775 3.287810508789512 -2.0584210771604288 -0.575090471159358
Ni 8.68825649803993 1.7849172841104572 8.291791125410054 0.4797115427367158 -1.5343680321938609 1.2294704213786634
Ni 6.305377367947816 3.63862248375787 3.882530815531432 0.8556273937420038 -0.6520466741004384 0.029458157360117008
Ni 6.330216144274813 2.951663630876047 8.26765572312725 4.066583515275623 0.2157008999438672 -1.4269493989978652
Ni 5.627339814691946 8.792889256389794 4.93936862907362 1.2364928754430833 -0.8260733342339709 0.2994013635873166
Ni 7.24458362004304 8.147963811008777 10.752348480887427 0.30391005009094757 -0.2451929958657132 -1.0626371936697765
Ni 6.238824472738205 0.3454505641161618 13.52427421865731 -1.952618896521934 0.6805218987219958 0.6674977185481858
Ni 4.313927302075685 1.3435758961936943 4.107074292611649 -0.6972597803019668 0.1177053598339844 -1.3367286177373945
Ni 6.505402296403399 8.293982008781352 1.8187750248172065 0.9945078449917066 0.0581246720568741 -0.42007069114563134
Ni 3.8697217074369052 1.0732699083690223 12.873845740033337 -2.941146869781122 -0.47595541812839315 0.6820175094309158
Ni 8.160021651766382 8.69121461317906 12.891080751826507 2.954527919073718 0.027390990418443145 -0.6907602886205523
Ni 1.813080418403335 1.1694227366533751 7.3419121817096755 0.6599520449904441 -1.04734015830139 0.7984116066526443
Ni 9.12681819681008 2.471754056050031 5.266184945981593 0.09369408452105155 1.0849178594448476 -0.49071380738449033
Ni 7.011474756237737 6.017256953396372 9.264072861097455 -0.48706489777799333 1.5317753317660199 1.5786737960897714
Ni 9.148201143387233 5.014840945740842 9.380446988839246 0.2133221152990455 0.13772422615807248 0.502741942193618
Ni 2.7238418109543354 8.806891001381684 9.929730467725015 -1.7494631802329292 -0.55080923001449 1.9960664261826073
Ni 5.484852573402906 0.2986682079618341 11.179278683113678 -0.44296147970087585 -0.530234491186932 -1.143420740776747
Ni 2.501372770808196 2.668332545597483 2.1806661355177437 0.65878810658933 0.15300634912812355 -0.166727555368958
Ni 4.662205448631188 4.167420780534109 11.70022060171405 1.8647427042342404 -1.6437569017423497 -2.3694456268089708
P 1.8586823457545234 0.5107209264815449 2.4940676350407966 0.6371491881633156 -0.4732169361513076 2.063345768155556
P 8.85143176361947 3.650764842090878 7.563115336393101 -1.1177891562515716 1.2878038670122338 -0.7046077360266059
P 9.67275477970986 0.5551039225785767 5.940830527211258 -0.27337691449909696 -1.0001665859393805 0.21049055938752134
P 1.562382508072337 6.8417259014601255 6.179392652798446 -0.3864442613404377 1.0478034710910535 0.23896295579560137
P 6.903254696354068 0.7206165686601171 9.480808792378708 -1.2333332467681792 0.8352521725197615 -1.8592770531339786
P 8.184794692201397 0.8986688056790633 0.5134893466181037 1.0230856566293993 1.5291070409052374 0.8935205692433515
P 7.404077675671661 7.317879139601529 3.7500213435608916 -0.6952602333734349 2.6410276541911744 0.599034126459149
P 2.8063873095986818 6.770590275495287 11.266775972592514 -0.5261631493310358 0.3254461243905105 -1.42507223657981
Ni 4.824441630039575 2.3120815744288907 9.509328778656624 -2.066866122603989 -2.4116055480064724 1.87756299592736
Ni 3.9976625349147867 3.81634416314857 4.6350123882871115 0.06407960408872834 0.5529964674737959 -0.04627394336587514
Ni 4.334173956805743 0.4899305420163891 6.389531517777347 -1.806626002597166 -2.9062212615485303 0.721713542468957
Ni 7.111815899925433 0.6835565509297362 6.782815273235357 0.05333804930150813 0.9520427338489603 -0.08718430842699179
Ni 1.8651338540103444 6.349345288841198 9.052971434843123 0.5801707138957427 0.4037277310112337 1.4747978859397117
Ni 4.661585653078228 8.441437005335793 3.001223798008645 -1.9962479460657943 0.08663383524016047 -0.07723311075155086
Ni 0.810777100848343 8.169750563779527 7.952522552392592 0.4457313291365292 1.0131642837506294 -1.0871336361492439
Ni 9.052837145806647 3.2139028856705143 10.787452386289297 0.8705652459987586 -0.8595218437004036 0.6844232906589309
Ni 8.601926490185836 6.188667987156925 7.288514916653748 -0.9273470308744932 0.8913914387154905 -0.16506302318234153
Ni 9.411689380129335 5.127681299746583 13.36320250162115 -0.8525287002120221 0.8601929016254992 -0.570305905286521
Ni 2.1932310817277703 6.976907067897597 3.1677102743756707 1.4574056586051933 -0.5585883597392767 -0.8516923203536557
Ni 5.995357510525085 6.315416177737442 11.416837866806073 0.686024830818096 -1.959587614530283 0.22416497155082038
Ni 4.584900039661876 7.0215135660273615 9.807033486258852 -1.03186468837361 0.11691037473651479 -1.0587142044662865
Ni 0.22519989691585235 7.010657753008834 4.561025702778653 -0.9925514925962842 0.13139905527099305 -0.3635691565144771
Ni 7.090226354830625 3.54924045234753 6.110093875472384 0.8848402678605342 0.02532896568309186 -0.18204078868726067
Ni 7.503573643605319 7.762206815182559 6.044628439732968 -0.14476030706924745 0.19867711169236107 -1.1653332245791221
Ni 7.679858524214154 6.166777935127349 0.8208487785839587 -1.065699634645184 0.9782399610696186 -0.019702877745566068
Ni 3.868914095049714 7.137227517596832 4.953828647141033 0.469494750104714 -1.6634317544634576 -0.0823416356227098
Ni 6.704074943652522 8.275378751350813 8.259010514247617 -0.5192525382541315 -0.8225203267753898 0.33278893790882685
Ni 1.8915315100614545 5.157271841979614 4.885463319481096 1.0993808289477132 -0.7183608239466402 0.06475863243362395
Ni 3.6501168740127823 9.13768340067032 0.9904229637057358 -0.4015978291524245 -1.5338612677607713 -0.7561280153930848
Ni 6.383405871728916 5.3008859842740375 7.373620358748656 -1.2254515300272573 -0.48538108231766725 -1.4041948789101688
Ni 0.24418817885656546 2.096740183141802 2.546323912828775 -1.167734377821447 0.27171546763627397 -0.0007880431189341268
Ni 3.9494029993592354 5.155093166702539 7.617722141861476 -0.7508587965743455 -0.15321743669766516 -0.5288262979854957
P 4.378883754194336 1.2911092635513777 1.833921513413733 2.507328490032095 4.05798188964954 1.9120972822588036
P 2.680014752686626 3.424971443978857 6.767765510308459 -0.04368278559993122 1.3370780306570134 1.342381702258114
P 3.78632164219681 9.482402418217152 8.419916013385482 0.9433282367940979 1.222977357455152 -1.5803054181559235
P 0.41384030796454824 4.255506875788258 3.667443916054726 -0.7038448897186524 -0.9475584728253615 -0.9072381759397602
P 4.03077464278964 5.490026927185958 3.1310944434582453 -0.4940572699354266 0.42163546452958994 0.18831453751111438
P 5.450472701896994 2.0581156511822805 12.331722777952606 1.9306138530057524 2.9430862528956796 -1.2383342995271962
P 5.958141604822292 1.908256599149689 5.263339520942999 2.52954847777256 -1.1193068784476787 -2.224281656543402
P 0.17157255623799061 7.735104846003084 0.4583914001282165 1.0825303330492775 -2.3537153605579078 -0.47978661894902536
