# total energy = -381161.6050235356 ev
CRYSTAL
PRIMVEC
9.32086161644332 0.00000000000000 0.00000000000000

0.00000000000000 9.32086161644332 0.00000000000000

0.00000000000000 0.00000000000000 13.64202314280503

PRIMCOORD
 96 1
Ni 5.645245152785679 7.5605703879528185 8.349286794163726 0.5125247326119947 -0.2759217924081377 -0.7318082077007977
Ni 5.64000682849344 6.6669420904541115 0.7392356796312132 1.041210134144252 -0.2712614108179909 1.7196599808285675
Ni 1.9900785462414616 8.262282142431538 3.1867905083549357 -1.678181916189439 -0.3384415082089139 0.4046587274659354
Ni 0.3873405263089629 8.850092966570077 5.226845651020126 0.1828360308950464 -0.28850091462472893 -0.22404592947445284
Ni 5.305648876516119 8.396847423227047 5.474857936189566 -0.8638590376231767 -1.232505351550245 -1.1036421753272283
Ni 6.417525151421966 5.170067621792041 7.375327581931485 -1.1274503334904196 0.6900223820132633 1.8692565329441935
Ni 6.0200090403624 0.9585014951392662 6.984811438031123 0.29892750927469164 -0.186102360351144 -1.160488494892311
Ni 1.7420038112984313 2.898331275794484 0.18261711927200192 0.32481106190967285 -0.6189303511624438 1.8197800234806207
Ni 7.534499937694105 8.140411875312237 12.912952201010638 0.5989315394430136 -1.261780960585911 -1.1006720369553107
Ni 8.83076149934213 3.3023067440329164 13.082263790163115 -0.927500525733222 1.9404475512667225 -0.6439808663731683
Ni 1.5925065100115157 8.08063718903797 7.459253553034267 -1.663017806854491 -0.8305030878705504 -1.3656805248850543
Ni 2.563488639007206 9.302182723058591 11.466502662221506 -0.48618120962145944 -3.653977250827836 2.0078227953875873
Ni 6.534017281323075 2.9010716091430937 8.749612212948703 -0.898726281814007 0.9685330181944998 -1.1007080323995688
Ni 3.337893794117924 4.901803900341906 6.299545411988755 2.370241640347705 0.9931137928576573 1.9779650885962063
Ni 3.091748477552997 8.7249324352601 5.531690026415683 -1.500559568284848 1.5974428491671586 -0.15372008736569653
Ni 7.242682398652346 5.776669303178192 12.843473565589303 0.3643037206876565 -1.1974349902096733 -0.30525525126493236
Ni 5.4710009636057055 3.185087586916871 6.338452553021977 0.5560748492888037 1.0038604898512002 -0.8466863824986322
Ni 7.210693201195105 0.7818963316830919 8.862103828995311 1.136408828235288 -1.8898148167115196 0.8312877885553748
Ni 6.236234390774139 7.313399776597595 3.3527316739058564 0.5589948511490761 -0.16171596108697955 -0.1405151586396483
Ni 4.253817592874708 4.384095277274436 1.3112290014140024 -0.9209097598895817 0.5527493844599963 -1.2578659418022209
Ni 2.927272551466027 1.0444491611512776 3.410901307790225 0.1213658394047071 0.48493268192633904 -0.7599985540920846
Ni 8.247145062982073 7.643209148050692 8.821109747020751 -0.34912032807899873 0.21747187580136093 -0.6122328845376102
Ni 4.967059253313393 1.1916348887291617 9.703489628583734 0.4423603557817672 -0.8294311949626103 1.0641705995951674
Ni 1.6807098245621785 6.844299447451895 5.460710732255824 -1.6136549401506466 0.38906344413083965 1.5158344921660476
P 0.42405819692181573 4.4336729408161215 7.834136747641131 -1.8776606978474888 -0.3258662426470646 1.258568367185884
Ni 6.971724948162252 8.227067926815726 6.735571595371847 3.38041830222492 -1.0658225333762936 0.08849865636304112
P 7.486497499784782 8.85220880218278 2.159082546956849 -2.4290934203785906 0.7613411841629081 0.9131157177664597
Ni 2.025097023760942 5.565328084312956 3.782114879134001 -1.795893189560694 -1.8655973389250515 -2.8253384698595343
P 3.5975170767443814 6.505281064609591 0.2531191853112875 -0.19895144839967027 -0.8908453364040334 1.2147297727343789
P 8.77914256708158 4.80896811751145 11.384936733308754 -0.08006029578770084 0.3370883366151291 0.5292016790470434
P 2.0340823344686285 1.1307789824942174 6.817819811363235 -0.06520034795673287 -0.30012281513437344 0.4099762830241068
Ni 4.047546922790573 7.566274755331556 2.5818348911502964 0.16365405864995689 -0.27776758736762486 -0.8021049963438316
Ni 9.016246647768442 2.74575809013668 1.621531673438628 0.7935475936921237 1.4854959890835062 1.1503084690355156
Ni 7.3874260604569795 4.191479669624699 3.9603474650482275 2.3114345975118256 -1.4475454779816619 -1.2263742989518425
Ni 5.7300743153900955 5.772857070730637 10.05883629700459 -1.1666264894692489 -2.0893450204327952 -0.009441862139190191
Ni 5.6840012958588755 5.037133491799274 3.040260969442841 -1.6547709934646662 1.2961491536531355 -2.94696141958037
Ni 2.0609543788361187 5.75287314318159 8.113579910650186 -0.40558715281747565 0.32305551267114685 0.6898508894324055
Ni 3.1484286377329167 5.923416950254768 10.340040170794436 0.2769450914663295 0.7458867972810509 -0.621742109579626
Ni 1.522255175152766 0.9511752978195134 1.252864561519478 -0.6229788102002046 -1.5658817865314258 0.5109941549000814
Ni 0.30897351714193244 6.8310638237953425 10.603876482922837 0.789133523784828 -0.8871282925637625 -0.121805498045287
Ni 4.365173927962606 4.854444601891951 12.2181239029195 0.004472176838740685 0.3790212294034892 0.7573714008818828
Ni 4.7524650537044 7.575660863093633 12.454225990970388 1.1252278719178042 0.8121531246084529 -0.2169676824714328
Ni 3.4424831835898666 9.010271975399533 8.299342820756051 1.296739736049283 1.307414956374942 0.6285933281735046
Ni 2.17665423549018 3.130318203391594 8.322685054786405 0.4710250707063114 -0.16658614469508728 -0.6291975374164067
Ni 4.805137243340434 2.8660438107618837 3.1373927374446375 -0.11740299810221716 -0.9129941045869309 0.06094825754859826
Ni 6.231266371472067 3.5123616839794174 11.095235029879696 0.09298934514454309 0.04002204891889236 1.178121891703358
Ni 6.625967582289183 0.3184052971264845 11.20452120157737 -3.5854326689892186 1.3475095104029826 1.2388840013830793
Ni 4.047705377439983 3.455327331053759 10.03043376714104 -0.0673778152240259 -1.67408152086782 2.816015135576079
Ni 8.578604226961374 9.13025010758765 10.788534870913702 3.493862315679389 -0.8905411749000534 -0.1575158069627029
Ni 5.4154299859716515 0.5140334072873451 2.4531631912266425 -1.0840195160002946 -0.9308879541482161 -0.3810490584667954
Ni 0.20455749569816756 6.972684996920438 13.015363305096287 0.2843951199864715 -0.609669237575492 -0.8584545787781538
Ni 8.050335067553853 3.99730747806606 6.130903060708492 0.509128305335936 0.1508373665012628 1.1492558594012852
Ni 3.8051672343645517 6.9878686806785515 7.057837593426883 0.7184166168852402 0.5090635135362717 -0.002746195286569464
Ni 4.2667549489559 1.9866111856779143 7.841202892918618 -1.9764892753816283 0.8811476495002953 -0.5814495806081663
Ni 4.219470217399786 1.9993528036627772 0.4429888670953756 -0.4523730028227629 0.6972476961171089 2.31300297044021
Ni 6.045874431663054 5.466797254965491 5.172727795729773 -0.42349797165962544 1.6639256633807407 1.617954338856949
P 3.8070686901574646 4.462847238030913 4.181497958798079 0.7104785929850861 -1.8037543374763259 -0.22581947643510783
Ni 1.2216760260848405 4.410808866992516 5.917759187184679 -1.2772345761368198 -0.15518793016047466 -0.8105580122071913
P 7.675664388594432 4.907144754113176 1.6396076205915497 -0.3103802311963235 -0.16956142527332735 -0.311007066147045
Ni 8.718100243612037 0.6190636735191147 7.070688265493986 -1.2360773851722195 -2.0370896626725044 0.25442659864883926
P 1.8823107429196009 2.81578572431391 2.519736514046748 0.021217514617879588 -0.5140342272779858 -0.6453234964439919
P 7.183140733921328 2.0738637723321207 12.705702840444856 -2.327955992205616 -0.25564992953297905 -1.1837394950004516
P 4.196289234277361 4.713131017203946 8.608075859665352 0.2168951773622845 3.0420498133457867 -3.7980371893959495
Ni 0.7960929361840023 0.2668916906034845 8.948539908161973 -0.45129648192913246 1.8210545193176702 0.8675393146882414
Ni 8.085502678861012 2.2700306283009737 10.512693288877106 0.5053089315898459 0.3280977030807446 0.4799462844553412
Ni 0.3858967248269912 3.690576560256357 3.7969024262685913 0.024531923703093234 1.0469948591468292 0.06592951281327356
Ni 3.4662327392778187 9.067129231952324 0.6514490075998797 0.4930797365135057 -0.9723971291355964 -0.11291565175482489
Ni 4.755382483425878 1.1429333861900923 4.823437823261048 0.7004949994098129 0.8000059477229576 0.3824302550850382
Ni 0.6867806660734866 1.8260966258261795 11.836078558159329 0.8064236783238434 -0.7803002417639142 -0.31239006253750073
Ni 3.092801734928483 2.884359304061266 5.8050494629735905 -0.49502631871691516 -3.7164941384151344 -1.2838428254819567
Ni 2.4523373628773677 7.130915945648331 12.257808403820999 -1.1205453788404702 -0.18551717727163533 -0.1978386749514657
Ni 6.388220362142954 2.953706515332209 1.1982769347979352 -0.26544711812905897 0.985741411652986 -1.6241509545859643
Ni 9.1703298130265 2.4141031880610493 8.405587595271236 -0.805493196089774 1.1380394218601755 0.21321644295911665
Ni 0.47964688419315665 1.3827591585021033 3.6210298825443927 -0.27323704648712294 -1.5328976182959213 -1.3820628228978198
Ni 4.311355272333785 1.5398156786520207 11.978119170062271 1.1209516131399533 -0.4297277546194212 -0.980080613822783
Ni 8.966752871982324 6.317325887824837 6.832007095002415 -0.05714328198021126 0.18904858746366154 0.5839648908308523
Ni 0.20066044340886904 2.0505709388689373 5.701642890855181 1.6690724976890028 1.6195710485247656 0.2185247425459075
Ni 7.25786608241046 9.151930431971548 4.267306743970314 0.9680208544447716 0.5949969802752979 1.2972439293792108
Ni 3.747098265786867 6.436474463318985 4.718393575736684 3.733377030213403 3.5369424346983145 -0.6504898711362798
Ni 1.365552847748587 4.296824048896769 10.347365436028017 -0.5051117279773751 -0.438065070840523 0.3667472971321426
Ni 8.251693643506297 0.870636527869401 0.46580820078267693 0.8409929316582807 0.7565584180622842 0.7256110777511503
Ni 9.082667108456175 6.27331277873594 2.9340991505970537 0.013654871779273258 -0.395082653741726 -0.7314595661121274
Ni 6.097894160977991 0.18295546655279968 0.05238324292240578 -2.98340732111223 1.6982774013877333 0.6993729699902278
Ni 7.1980820752744625 2.0368506304024283 5.104162604757975 -0.2643590272712028 -0.17598018431547757 0.6096828644222468
Ni 2.5642622705307927 1.6634755512234722 10.394539249329544 -0.38698882098999804 3.533495356689979 -3.008139790861903
Ni 7.290060338825762 1.7807319917864377 2.825345200104163 0.9109685895164698 -0.6986741441509903 1.1456928246403753
Ni -0.2606066335389688 8.084002020122488 1.2293592124088508 2.407475584998499 -0.5524488225004421 0.595169244187104
Ni 4.808063993923644 8.13990854877882 10.289673030264222 -2.5089865944608083 1.3716827652150765 0.4048736716902189
P 0.3669679188257774 9.261385311266533 12.840022050490695 1.215081756757159 -1.3778459566029948 -0.432892525500648
Ni 1.862653045531104 6.37359593008864 1.5067890692842343 -0.19266612961159077 0.5484882951907972 -0.15164006490821627
P 1.968612601677351 7.9783500524133295 9.612278471952813 1.0941710026119995 -1.5409320585646236 1.4341181488321624
Ni 7.8811427854315195 4.7960121197067975 9.29617915601832 1.6150978432447605 0.0027505661619436498 0.40673283638614466
P 6.7650721227471875 7.471640046187217 10.421483064332355 2.194566645977472 1.4287581700718297 0.8734047723300828
P 8.213617923339386 6.359577354046771 4.835265064710201 -1.1892254578156873 -0.14204599346187796 0.522320378546178
P 2.886847974143167 3.244125925114472 12.195805099507096 0.7300945674438006 0.13541974639461193 -1.7615633059305726
Ni 1.3870001505892375 5.008425237670981 13.237673314045347 0.4708229819978343 0.6577192990051833 -1.3903749423079408
