# total energy = -340888.1744256851 ev
CRYSTAL
PRIMVEC
9.10010047590631 0.00000000000000 0.00000000000000
0.00000000000000 9.10010047590631 0.00000000000000
0.00000000000000 0.00000000000000 13.31891689874385
PRIMCOORD
 96 1
Ni 6.564157394838664 1.8425428771931194 11.218710540833886 0.2075142503680168 1.4749027869486921 -0.7915670729269851
Ni 4.660607442951371 9.000399937921184 5.565375849036314 -0.12471058750722391 1.7789902431577684 -0.0483105141799297
Ni 2.9482415054211617 1.8434983877603761 4.851349192417323 1.6062661038857433 -2.191523488275774 -1.1568059038344014
Ni 3.602402239966302 4.352559936168488 4.8787723456975876 -0.5603048282097511 1.424053822617625 -0.5154290507429833
Ni 3.3151939636502528 2.5387187763956285 2.5690457717902886 1.4819409247423962 0.015919242333417745 -0.21398340303212823
Ni 5.086392051821548 4.226032136862434 2.7954671958476656 -0.08308314177442465 -0.0239901922670103 -0.8049758901337234
Ni 5.113756054447648 4.663801578276201 11.60348099611715 -0.19254245954953292 0.16135497820313502 -0.3353610695113773
Ni 5.691139239888561 8.267377731225132 12.018085221340362 0.7971903326510335 -0.08512973989080823 1.974183510066587
Ni 2.00719099808239 6.639815631564105 0.1096280024065084 -0.5736241710264766 0.322118088458542 0.3645412906197593
Ni 2.9236075329872224 1.6029918279315727 0.38277753324298897 -0.2891426619737859 -0.4171792285304493 -0.3156211678802887
Ni 7.902618397250411 0.05408553814697906 6.661629482809541 0.4945378091162709 -0.4828462317109556 0.2614056010698337
Ni 8.725959102803811 2.5800332333036753 1.537229040642654 1.213619827499652 0.5832835484931116 -0.1112770877101374
Ni 6.81806840291098 0.9997734567721688 4.724206226307969 0.4022272352063072 -0.2871117475866862 0.04998404522761069
Ni 0.9737107685376652 7.372209931315958 2.4581528553947454 -0.4586511225219908 0.027621618372010492 -0.2140057716296314
Ni 7.877911624011348 3.972849136841361 3.609213665295745 0.9828538056925461 0.3745413392552646 0.9386164331407255
Ni 7.728233168675763 3.9642495417360513 12.48801623843792 -1.0626618762601248 -0.26211599687329695 -0.1847317052558625
Ni 8.486917659178133 7.463966246074513 9.175069089635816 0.6842569402843958 0.83898001499331 1.1010631017461425
Ni 7.10626859019685 1.350609636766866 0.27522890383284365 -1.2038437219494944 -1.1881556217902762 0.39145842672557746
Ni 2.159071677772985 6.815238271611773 9.069116617878022 -0.8779551107049267 1.5149826856887136 1.1514850058421202
Ni 0.10508250213655922 5.1335851737433815 1.0499232013921147 -0.306098315991518 -0.8143673586509524 0.34665566858859004
Ni 6.611141214445766 2.2348937163099554 7.146784058268656 -0.26100373764572465 -0.8554751844348558 -0.2098130737045225
Ni 3.5553638197553568 4.662054358953217 0.2818692472702449 0.17048419419791286 -0.36434691522076607 -0.6054428581989701
Ni 6.104029006151094 5.680473921937851 4.371281573216269 0.4302903119911106 0.3151637686278959 0.8637392242158609
Ni 5.0841989275671775 2.6323588119867742 9.453527619185987 0.2361164874857417 0.7333292723310145 -0.050721437614267485
P 0.1585319432487646 5.776762086815392 12.296437279713038 -0.04293742279347444 0.11356459819273346 -0.8189480360430993
P 4.173924960594709 6.674550715709041 12.53937447642293 -0.21522061787333902 -2.8079644973574607 -0.7223722590988785
P 2.4096247487089433 8.48075689104449 1.2119950837900488 0.5963632644952052 0.9831247999657456 -0.09493129936226231
P 6.536920793621531 7.6133261978876785 5.397771105448932 0.19519480957071544 0.8696224224695153 0.6981483535545073
P 5.011561924254395 1.308730973619106 12.504238987849808 -1.428644784422417 -0.5249171927390767 1.2276678209522858
P 4.405140317669522 6.194593207725737 8.192092598625955 -0.2182421783084822 0.9436079728180459 -0.2429070280450139
P 4.739150411579863 1.0647117749430546 3.6491303467454053 0.32937348446937464 1.239267609974743 0.12173890647340971
P 0.7172262520042038 5.530213060161272 3.664673318639446 -1.7051419897180506 -0.47315008746911413 -0.2683000141968218
Ni 0.40841706679770734 8.945162327033112 4.494708058224027 1.6649649032785327 2.1553377823838367 1.1743315714229905
Ni 2.2577986696221917 6.403122013903687 4.89532815879292 0.21529877940944214 0.7014681619563597 -0.21260477751704676
Ni 6.562464776119523 5.996456716479283 8.924593369555302 -1.5377189509439646 -0.28574289226361754 1.1563436194860022
Ni 8.936244228405384 2.4829988601736086 9.976148218992265 -0.6604930050955786 -0.173279754665179 0.1148671190542409
Ni 2.526624742644352 5.588808608185702 7.242680918818656 0.29432034951998337 -1.491810104226992 -2.0190862841165482
Ni 0.9913376634783893 0.2951171737827415 8.88274564674972 -1.1112189592332218 -1.286484891090494 0.7130916051279009
Ni 1.6634073960841107 1.3048634308468767 11.320599817655678 -1.0227717249334065 -0.44950647990824516 0.6263217585305084
Ni 4.247553874877309 6.828888422572581 1.3952501804590298 0.11556671622442678 0.6533682211253393 -0.06375153132534828
Ni 5.880448633513693 8.09425741663952 7.589651376061252 -0.3281259852155188 0.34537294522142453 0.911387165111127
Ni 5.437637736345068 3.1701474595407033 5.154221471965933 0.8176568280355015 -1.721360508459442 -1.0365399823620922
Ni 0.8788877198632497 7.776791305693679 6.885080634017846 0.4421541533082321 -0.2909388346422602 -0.3036043459250707
Ni 5.541306082842088 4.6168268587697385 7.194626017366161 -0.43937607634246273 -0.19882469301381886 -0.38271256221214733
Ni 0.8334254370832453 7.628641667265705 11.313488089005096 -0.06740558313816779 0.5957598265832513 -0.1408260050118478
Ni 4.693267704150266 0.38199310456777447 10.203502403365297 -0.22312676009429316 0.1680493595041751 -0.6641779101463335
Ni 8.339031923668736 7.243880312083078 4.229048820224774 -1.7485488959487756 -2.7491955068483684 0.5338409775912677
Ni 7.873607276408372 6.514297943429151 7.124035626687437 -3.2128235137596604 1.3549340850018277 -2.0899016642672135
Ni 2.270447809512541 5.227152408529403 2.223872584424199 0.926792443922604 -0.13136743070210924 0.8303220822079957
Ni 2.3138188891653497 5.779328315196024 11.160680109059232 0.46317292165174423 -1.551174562228238 1.4709438023009442
Ni 1.3656248028237554 3.165124203987126 3.634532875307917 -1.8841308789528648 0.8986437494025297 0.22825662512169076
Ni 1.258107113755788 0.8708341307963727 2.369262162327897 1.1570236762721622 0.37343242246180197 1.1774366927108755
Ni 1.1684529222451983 3.483391123789334 7.979789070702308 0.12203535466790598 0.561268220564285 -0.4023755878587135
Ni 3.8187116321919126 2.8611808425931256 7.063913991785589 0.35350971539594606 0.8822861339801128 -0.5512000376950056
Ni 4.561825850498321 6.7759622372472075 5.9912614690236 -0.8894320009962747 -1.9174732018587366 0.25813490073836187
Ni 0.43706509362418794 0.5299507308722329 0.31307713240690915 0.1423982345949741 -0.24890052662428747 -1.571158718659649
P 0.4457811700176961 5.849007785800631 8.015071070895742 1.7631478768088733 -1.1292789020587262 1.2392156736908853
P 8.801025832987616 1.7482385342552145 7.872212230980178 -0.5420402255726084 -0.4500201863198702 0.4354867685903855
P 1.9706085935074238 3.2269775880408686 10.24680250223311 -0.4928601643035318 1.4553284643611903 -0.2880085483693427
P 4.123601404052528 6.085410200240551 3.402877073362102 -0.21155448187566145 -0.25906538297243126 1.7799400086655475
P 6.660354558709801 3.9673162756519136 10.233429904341838 1.0578870805793008 0.7690233832985143 -0.4943550036815034
P 6.468105832577775 7.952878253088106 10.014506963212265 0.5277603186148265 -0.37283335542522245 -0.19587846590130137
P 2.39960553790371 8.602780140533476 5.375408518134871 0.18050918253408266 -0.35836190128192474 1.072796136480649
P 7.043887400305954 3.974641856667547 1.5656249946813918 -0.015253583724960827 1.7222660509928467 -0.635892175827763
Ni 5.376803563563066 3.055549892174396 0.6104201908063264 -1.2319325097659106 -0.2817651385627922 -1.1224677926741637
Ni 1.7550272093330566 1.0022213838444738 6.709524222490761 -1.4346066584328065 1.5751526703103906 0.09314618243738151
Ni 7.125324200938137 0.7156728648248638 9.073632087815856 -0.17775244572455193 -0.07782754980244017 -0.39483274251444905
Ni 2.714341618657389 1.8403224526368278 8.79164362922722 1.2755283920789902 -1.0498472409939597 1.5685457065168342
Ni 6.465257501077287 2.154867431277056 2.6594944020867968 -0.1453876562406012 -1.0072389194051297 0.054021448521777926
Ni 4.256226270787743 6.956690235968311 10.312664480619011 0.9442065256339932 0.49392537234325257 -0.40822279066810985
Ni 8.420441423998998 7.5323444022875226 0.38106489430243945 0.04046196466978838 -0.6853794839246132 -1.0042009039097546
Ni 7.832320119802247 4.0384608624596465 8.113884513701034 0.48228367433926617 0.43619793572479715 0.6166271569505638
Ni 3.2211262233290023 8.609295812592102 12.321156793092998 0.07477590746030993 0.52763921965593 0.6829881008743012
Ni 0.26586399026366503 4.91082381016363 10.034272381803516 -0.27976893406836983 0.5616091488434715 0.33910742392768695
Ni 8.79501066646422 2.4799594265596685 5.859777754908709 1.0029850292247824 0.15109010594201722 -1.2151357499235458
Ni 3.52773591421068 2.776185902610492 11.68371385343459 0.7309574296647282 0.8655107142939868 -0.08156233425452404
Ni 0.8983155247207362 3.5348885933141436 12.234037889620863 1.691650897210151 0.3368052581570715 0.37669232415999643
Ni 3.2483628245461356 8.534247282609577 7.645271191176226 0.9564071814652432 -0.2572956926665182 0.24866501357471368
Ni 5.72623832805912 8.216899472972063 3.3004408804918115 1.2120180302301709 -1.4787974940174082 0.8028189916917206
Ni 3.308314287566006 8.220867116851338 3.489196987997998 -0.4282185170637464 0.15420602586317958 -0.9155940041036231
Ni 3.6006550206433188 4.5235417271035745 9.483242177807538 -0.03772271136175439 0.06541066419532605 -0.38986100033147053
Ni 7.169232186528738 6.165445585374091 11.286943095436646 0.9258208240379538 0.31758960446056916 0.10410370989014973
Ni 7.962305957351705 8.903019760966776 2.3889211097416534 0.23070148711775748 0.5895850652311072 -0.09345882858179388
Ni 4.699983578422984 0.22382789537482356 1.5607773710701767 -0.3098600970267954 1.0491890385846705 -1.7918105348508884
Ni 6.312967316857868 5.636329333730596 0.17319948546118524 -0.8604759800835569 0.7511704142774934 0.5339178535757901
Ni 8.0283908882033 9.088352410611991 11.418281207941288 0.35089001838491185 -1.64105852897458 -0.4079669659035619
Ni 0.1281685474515424 5.322557863644814 5.842822447395256 0.9417076704715396 -2.0497526028521538 -1.3847629954378022
Ni 7.303112867152346 6.245526471010834 2.2713150491035843 0.16270172203901656 -0.39342634908522567 0.4841035011568243
P 8.680403998997273 1.6564003185908955 3.6290855550644903 -0.8196820859956464 0.6157175006521008 -0.25280988898102263
P 1.82820111858363 3.362687388893226 1.1462650568634365 -0.1671039648717703 -0.05899859002139517 -0.2404660227036891
P 4.891604397610812 1.1731303739744354 7.900035788688625 -0.36207945934282804 -1.7857890112471566 -0.0848291779312539
P 8.568490961319926 1.8712354945127387 12.14128511384217 1.1209629259938632 0.3385150417593267 0.4438999323547452
P 6.389035058112133 7.851639633462112 1.0498440305165422 -0.06609560607749262 0.11973550289013572 0.40739720944302094
P 2.022115163132874 3.3418481584263917 5.891636297241172 -1.8024122216261345 1.0713524620555872 0.9401848060691099
P 7.234543608825886 3.994580177170968 5.931926082817093 0.00797479067536046 1.5761132344514468 -0.8478688328425076
P 2.593201078930535 8.82065475006926 10.25715113668153 -0.11067493534976423 -1.3364141718207694 -1.516195217939576
