# total energy = -381165.09506896196 ev
CRYSTAL
PRIMVEC
9.29991075111959 0.00000000000000 0.00000000000000

0.00000000000000 9.29991075111959 0.00000000000000

0.00000000000000 0.00000000000000 13.61135943365040

PRIMCOORD
 96 1
Ni 1.794715336975108 7.825028432542355 6.407832734277769 -1.3581721323231513 3.117102114395935 -1.6246353504215503
Ni 8.059739574900595 5.43246834612199 12.381028569245064 -1.968573105858345 2.101948825239735 0.5496838581607953
Ni 4.968514408806518 2.432875198636983 4.322504492652822 0.3053953763872224 -0.9677537168263138 2.1768165210829027
Ni 8.690357209109719 1.9853635031667207 11.381342125038506 1.8784793370940422 -0.7206233947285718 -0.3569771051192562
Ni 5.273151578559623 3.2471381663966326 9.854093145355467 0.26494292479913084 0.3677775381688698 0.06656997461074987
Ni 2.3815210926023447 3.6052126221466634 4.462416066870046 -0.2620712596782906 -0.20991077562465138 -0.18021119167768962
Ni 8.784379304729095 3.9669326428307006 7.575469982997535 -0.020093171205449265 -0.2042551200007708 0.7892129708725117
Ni 5.7074016015913855 7.919413224673023 10.618330034306435 -0.8299335885203255 0.5270671492025439 1.0654996028192358
Ni 5.170368967205979 1.5055253186387973 6.61066936323088 0.9641230620522621 1.2315974950239952 -0.03287001125514339
Ni 0.08603347246041977 5.055654570621904 3.5830816250205086 -0.7909451230722702 -2.261868870768556 1.9125677941373187
Ni 0.7292050559154976 6.835871347055904 11.406332844657536 1.0434773329118738 -0.23146381920507877 0.6668140622176
Ni 6.555934739712795 3.6022645505036035 0.49913084895545984 0.49937353994201733 -0.2252309509214895 1.0152700172397222
Ni 3.9913635078348646 7.262644242008737 5.1271950624875435 1.2382147432301966 0.29056113958786733 1.3343408342315086
Ni 2.9043806633157514 1.5713035859301765 2.9749121148871565 -0.2722947371785117 0.4457174451794582 -0.553614303563453
Ni 6.217166898256119 1.2666571162665259 13.55012125396527 -0.04371929526482148 0.4436865307923584 -1.0637430251394455
Ni 8.567096194733931 9.22194009591521 2.717548250421135 0.5113867623528096 0.8345212078910079 1.8894962570298364
Ni 8.620672979389049 0.8589295081207072 0.30198669524751387 -2.270250409964032 -0.3632945626968518 1.1073607618293961
Ni 3.1763844469631795 1.1439075969707655 5.368374292630478 -0.08371203360767518 -0.1432335860120759 -0.11714100269008212
Ni 1.9139401901739606 5.257490529200273 2.1728496997727156 0.12090046973251437 -1.8265775060184286 -0.18369323668901913
Ni 0.8146833237163251 0.9852232233255226 4.479934308365419 0.3442126063647362 -0.9460551488069577 -0.4364969550224547
Ni 3.0254933983554273 4.437852213145074 9.156946741073908 1.9367215085653873 0.6830660053000881 0.894241506569776
Ni 3.0070795754744815 0.2780636053591576 7.785248065182131 1.198782762486819 0.4347236651721158 -1.106571176048565
Ni 2.4538743966496983 0.5864886286776204 11.425211663065781 0.41735303510415217 0.9907843733935324 0.00249911227276989
Ni 7.5978781174579595 1.8045918419748883 4.35687324206637 -0.9649594419106284 -1.280234282195092 0.9431680570671498
P 4.820469132825822 3.94368286646587 11.865865604499472 -0.2930494532273598 0.5720092611308729 -0.37084435001965166
Ni 3.5353516941256204 6.267711912073262 0.6311672589223883 1.2900738939933332 -0.6070189444368385 -1.648959786099528
P 8.385840938193711 4.450035095960247 10.263440797918388 -0.2535933041142665 0.25200179125743055 -0.4981617790221033
Ni 2.3824417837463923 8.353719047168061 3.5684630956333576 -0.2631148704514565 0.7100199081811126 -0.07593316099320471
P 2.4613422248180816 2.3830741776635156 8.210344186263532 -0.5999826064153473 -0.28449770700260685 0.08992124774218063
P 2.300472372194545 7.412261202871696 1.5978780803151782 -2.0641001298230774 2.280431721372408 0.6189444922298308
P 4.855492595941803 0.28247548292214786 11.775540223322103 -0.6369612405222256 0.39376624892314765 0.6420977904178425
Ni 3.9445849577888255 5.1882433952752605 3.214322502044255 -0.8806545119139607 0.23115631526698902 0.09759650489925127
Ni 1.20869077383373 0.23595826036244907 1.5654697520447132 1.5458937734452731 0.3201869328741002 1.3504274553807256
Ni 0.40420015207574667 6.950855441045811 2.650812092343525 1.5250513827786252 1.1766291092079155 -0.9307902522280873
Ni 3.415327048619818 8.773107813147424 9.71230391919902 0.4219295987312411 -1.5276355985660337 1.3220167654485169
Ni 6.927317367454056 3.3303816656932725 11.861836883250973 -0.34360222647424693 0.3931365857589487 -0.8938792381343508
Ni 1.233940030965936 3.387204119128919 9.947548876422594 -1.2292228241442316 -2.4771689357295785 0.7308034205853672
Ni 6.7988670029936396 8.210891021003633 8.79930845112848 -0.3409627319688709 1.4286478697462106 -2.0938506216126327
Ni 1.0278540132680762 5.362551618637671 9.001423407023227 -2.35335257790185 0.6238640410186352 -0.07013892290893083
Ni 7.124233673353627 7.225723597141386 5.656866817675844 -0.42075100504210766 -2.1058422467568696 -0.3165166831113646
Ni 6.79063658216049 1.0493554064502717 10.74419409364403 -1.9229177699130753 0.5673383380177648 -0.9043040330121007
Ni 2.5833942508228978 2.8945134582265166 12.015563474584178 1.2704756601464315 0.21330386046660038 -0.8047853713894721
Ni 4.310136541617786 6.5444865498307525 9.053581955320087 0.5361727110482378 0.2036570814054557 1.1431852277271732
Ni 5.596900064484618 5.51980380605884 1.6383996505459142 1.487292933082929 0.4313843163862377 -0.9300497745176369
Ni 5.45546702490208 8.6588491121801 6.7354174333029615 -0.2079323117420419 -1.7427819115580117 0.7452705038532906
Ni 8.073559241971852 5.397668080859111 1.417636514024464 0.5744119570350946 -0.506936697001256 -0.9253901642584386
Ni 1.7806538722296588 4.100581657286294 6.946489133044496 -0.9141593285396256 -3.1105550573060365 -0.5826415440337386
Ni 4.759006024027755 8.34382394234719 0.24549066867202968 0.6696420185846983 0.9332731665509411 0.7047049237261025
Ni 8.212927701413193 6.676145383429516 7.697291371220811 1.3792628915551794 -1.0248075244165125 -1.75944625958757
Ni 5.152913035111264 0.7371285797006318 1.9615334123838237 -0.5421428125887437 0.15087901837247564 1.946856797227176
Ni 1.370937013218065 8.738279648152908 13.11093762838889 0.2725148236091178 -2.1396671657261153 -0.8963264141232627
Ni 2.779919960479539 5.100907935338411 11.968182290334763 0.36242938648307904 1.8395893448970642 -0.34250693652753916
Ni 7.4155068716522266 8.872802854199819 12.263712057690238 0.21426648149018584 -1.854759110658967 1.706326496944455
Ni 9.232337395905562 3.1554224485926476 5.392140214030609 0.5670226065495589 0.16503911192294157 -0.06936682062959666
Ni 7.304586838570892 4.752542586198333 5.718853511437647 -0.38442620246914433 -0.2609741699593699 -0.4355307344544435
Ni 0.8938934518091943 0.9684554846112067 9.394900762239514 0.8593256685291975 0.25132250580221877 0.96708985799007
P 5.005211855820767 6.386760066971741 7.199388110457416 0.987824776544576 -0.41100112474419537 -3.3601826919043356
Ni 9.077186988267773 3.3388631841111622 0.44900712108604846 -0.3955030291085963 0.15614643741900205 1.4625362949635394
P 8.915070947631081 8.640072592787863 10.82213292396527 1.1931340488414743 1.6124904875289006 -1.10974803111465
Ni 1.0402042944730745 5.787706329155512 0.05892888317430006 0.20438418937946734 -0.23341940026955282 -0.2510512544187031
P 7.129218425406247 2.5486776847549324 6.428140948936921 0.41154799838660094 0.061525984428939196 0.5556742714162752
P 5.986371018237717 5.525672049613323 3.8981709642361864 0.3514286644972012 0.3373531602407415 0.58573560957803
P 2.5861377244339474 6.6159563623762425 10.249570911330183 -0.5815740220011726 -0.2886698361024254 0.9846291524254139
Ni 6.390312632800287 8.92273407392093 4.362671736291758 0.30456670983834 0.8778792631616688 -1.0320132981363324
Ni 2.060488180556762 6.241235066748993 4.61659184388262 -1.3103593837152465 -1.8094151353065286 -0.9460410077395706
Ni 7.272037151660128 3.8779417988166744 3.279507435042804 -0.5681873162816214 -0.09503414348871375 -0.9837806883821897
Ni 6.703738218019298 4.7625678897668475 8.199741358250115 -1.332954495406943 0.1012245885701418 -0.23017775340380361
Ni 7.534517826908522 1.3732247912123645 8.373353948303688 -0.5771483821296511 0.6365498640164199 -0.47964726515768363
Ni 4.1474067068850635 4.046493377551152 0.3461761501975658 -0.5464699792091878 -0.11726955784814641 -1.0181959326372658
Ni 4.890516059057783 3.203512286025664 2.3670150921327995 0.08078688954108022 0.020261321352197364 -2.044124458032099
Ni 7.359586509539535 7.005994610672643 2.9172954490908873 -0.3186542982796577 -0.131045014365684 1.3957048391612865
Ni 0.07912735888901043 7.819699583799537 4.618252807906124 -0.8851148616781597 1.0162573208536563 1.6868951276927209
Ni 5.3815234361513715 6.514215341003743 12.494124781394147 -0.6504009109668992 -2.505325857779769 -0.8670957993929195
Ni 1.0437289605699827 1.6480278479341182 13.015590295516718 1.9852513378449743 1.47923303889293 0.1821937693253572
Ni 4.94324655185322 7.4573006696456465 2.935085247974201 -0.278493666900372 0.3534238405503591 -1.0257480339529108
Ni 4.338938364578539 3.39499744416641 7.606571673836296 0.1933886095999121 0.0003041615039801213 -0.5030011093922756
Ni 7.843795652024047 9.259269936846582 6.214687542104573 0.5756843959896151 1.7362898760757646 0.1115236565033047
Ni 9.325671298144538 2.4836713100388654 3.057328852136263 0.7801115227918758 1.0680341963156317 -2.2522758277634827
Ni 3.483337294442221 7.791325556723897 12.054165543278236 -1.5030522527997145 -0.612302561433281 -1.091858552428739
Ni 4.493567977225755 4.658818087716426 5.354422566829471 0.25767595882407235 0.31928704676765013 1.6835071850570944
Ni 6.956974782185034 8.64542934126232 1.3418217832719148 -1.7134502524734299 -0.33568888516444123 -1.031806838552481
Ni 6.171522937296683 5.594621586400864 10.282470274877474 -0.07241897719235915 -1.0809203082496803 1.1208017178256504
Ni 8.18911063050506 6.83219788239026 9.935217195038689 0.06773905521818656 -1.0601925887840258 0.8902956345481506
Ni 2.6447736604260506 5.96953818014958 6.847507395130974 3.3574490950232567 0.21098935340081082 1.7075693682126203
Ni 1.5035816373346973 7.450102538883095 8.557270839242154 0.28674793648936425 1.5513136589092638 0.8261790065738998
Ni 5.104116404476757 1.0311647814224283 9.128022159293948 -0.22977897530348815 -0.4446321825350794 -0.7705326208541892
Ni 9.033551807986258 8.907677518747064 8.107116109194738 -0.0965850329156014 -0.9690300124355762 -0.004504829848889016
Ni 3.7550620807732713 1.5410416770137128 0.09103682433413135 -0.3741834416952136 -0.780799549997836 -0.029038810434511283
P 7.190569935277762 1.6255499641445996 2.1484848641334278 0.2119702292568414 0.8651242774888456 -0.761019024936799
Ni 1.2655597268221062 0.9584487808637835 6.639770643311212 -2.044656933496801 1.0127629345471525 1.101329982254284
P 2.424402980129639 2.9562648642515077 1.184067400681265 -0.8359039471711475 -0.45512562586723554 0.40646826987084833
Ni 8.988103145148287 7.5806639830374385 0.6900384826513036 -0.9835881127554092 0.9062426447957102 -1.7591071310805961
P 4.355464305618661 -0.040547609980264854 4.011158367431882 -0.7039137952833747 0.8996369665537344 -0.16953468580044995
P 0.008421068999341703 5.911311440221497 5.7428231008787325 -0.17621929690947716 -0.3427560764238678 0.37204222698249473
P 6.934366699647873 6.883375290124526 0.07304986734724367 1.2790595451607003 0.004532597763030903 1.6022181590686149
Ni 0.36599332957989295 4.089551963378818 12.07578039536909 2.4663821295267203 -1.137278632434751 -1.2282252361176524
