# total energy = -340890.8300698082 ev
CRYSTAL
PRIMVEC
9.10794418628253 0.00000000000000 0.00000000000000
0.00000000000000 9.10794418628253 0.00000000000000
0.00000000000000 0.00000000000000 13.33039696173481
PRIMCOORD
 96 1
Ni 6.509720890253234 1.9810780302490052 11.50383889566584 -0.5250328923813344 0.7033496952497887 -0.4150254154122401
Ni 4.473876792100136 0.4755339588780695 6.216084415481772 -0.514108789269663 -0.954519220413911 -0.7514362663443704
Ni 2.760408375547801 1.617270310914046 4.855956868898789 -0.38210346787323873 1.082666858627142 0.5423163620521306
Ni 3.3955235338861085 4.210839366344238 4.708762473421516 0.5952774876301942 0.3289981034078269 -0.859178858538688
Ni 4.894791320974205 4.381258108495159 2.5633416105341156 0.9979328115128554 0.5327071210971407 0.24037500565177958
Ni 7.395932959625627 6.1914984311644075 2.406123011774746 0.09103839206575934 0.2380615270272545 0.7741347363831507
Ni 4.851064081325518 4.914810582117262 11.176084973071003 1.6549656259739753 -0.22208237799017883 0.24525264545905504
Ni 5.483656339146707 8.149797493206504 12.407720376602166 2.286797515689436 -1.2048379675419636 1.1048148554790909
Ni 1.9834460957163365 6.372710087079897 0.3299325428247819 -0.085893100419394 0.5378179599611447 -0.866804493404746
Ni 2.594734872275647 1.5284223161685893 0.33032145203807056 0.4606025898214067 0.6043881916822107 0.1543633773766503
Ni 0.6126941323347309 0.09326261525320896 4.770028881033435 0.3636534886981672 0.8768927308786835 0.008229329888327763
Ni 8.982099641420685 2.4934727497149103 1.5303031066262966 -1.5847133174156323 0.2106566526517404 -0.18311962357373623
Ni 7.087046143244549 0.3743911503851097 4.876259387103515 -1.4858613428427248 0.16318971741902863 -0.2002241444645068
Ni 0.7966955515296197 7.255115035816349 2.1494866491359264 0.22379164737180166 0.7381061248943674 0.9276401366348798
Ni 7.603685164663442 4.003679177673257 3.9678193801425747 1.188139166730044 -0.7109825292046982 0.07737786385953124
Ni 7.655655093727263 3.6486879482320558 12.980700229460927 0.25069284263801983 0.533151664833727 0.03631683215316325
Ni 7.915859948866468 8.668039512787898 7.1294026373054145 -0.29521355075821415 0.5808741677206706 1.0498050749021146
Ni 7.012579592241078 0.8879699025846808 0.42262408998259976 -0.45892391656740317 -0.991803558686666 0.11067416401881584
Ni 1.8708354748006188 6.4723145638135025 9.49981431103839 -0.6305265406404754 -0.1045657371282328 -1.1762383015274
Ni 0.25297952308061333 5.027056885268775 1.603726798029731 -0.2944530184431058 -1.20881366436026 -0.31938423446714675
Ni 6.443633647826476 1.605384443856863 6.918396163838842 0.8115951952224538 0.9280389147351952 0.505099129571885
Ni 3.500765828020783 4.536211561555586 0.43662937563304455 0.11296938781089576 -0.278195933154295 0.22839520758208406
Ni 6.291403470053481 5.732831473974612 4.787091703519969 -1.035275770937688 1.0449983975420907 0.05161129641838853
Ni 5.122517247434549 3.151712978136121 9.414686000665466 0.49679498058156374 -0.4382825861679677 -0.4364061950808613
P 0.11703617095639618 5.542584737506841 12.51664319094972 0.41437184098864116 -0.06405852104280581 0.3595983447921871
P 3.922363452702736 6.3326988886261 12.486116094692587 0.44221868799758035 -0.07417606909278193 1.5962807105382573
P 2.5502516732662355 8.364635678758102 1.489645244141036 0.05226409951103902 0.8197581906492204 -0.08413240897454544
P 6.389696402835948 7.758802560717759 5.9560216442706055 -0.854382208480993 -1.3069423876138975 -0.22721378567947317
P 4.693487540362818 1.2322957294787857 12.615940729966983 -0.14614895988665796 -0.23574856262336175 0.19144974070598642
P 3.8791098261475154 6.156013880930856 8.364677575300986 0.4962072263988938 0.4768825579283529 -0.15331102485273596
P 4.833604152476001 1.0945471828329334 3.9612607495924768 0.6749703727761471 -1.2383127022606417 -0.45023358788225687
P 0.19673341425943772 5.9064106727300105 3.776754750294164 0.5587793927041602 -2.2695230448797044 -2.0465423234449722
Ni 1.2980004382531296 1.0015095337991209 2.475868004554122 0.985946842795573 -0.7158681394317735 0.9402040893428195
Ni 2.0028369087161395 6.611748080118803 4.817645212815008 0.19361229557494397 0.155346567225526 -0.1962625887135975
Ni 6.067785226384547 5.950775468466055 9.331011318171718 -0.19799268403082676 -0.21162338744038392 -0.7601821308578004
Ni 8.763882408606086 2.2505912042636447 10.16886657990679 -0.6492061193278498 0.04880365176626434 0.45624302730113037
Ni 2.5898803380676174 5.274820288760385 6.778733127342093 -0.49993609731370675 0.548703496525397 1.2359963954226392
Ni 0.5273627148082614 -0.05480705365256648 9.262146152792896 -0.5480380950272561 0.1459389007583809 -0.9073795866136308
Ni 1.328102193520555 0.9708066542207576 11.47115321665579 0.5773484139555992 0.6271193147311392 0.5452219657346997
Ni 4.264330322073614 6.765526608389668 1.5710137951873675 0.2988514046211176 0.9852755277601613 -0.3416906112738309
Ni 5.401238552939466 7.965753266674321 8.011275682106128 0.4956359272764561 0.2080914630277255 0.30555658455543505
Ni 5.353276119281898 2.772968230468763 5.20258700565149 -1.2198490962388153 0.29220073207381936 -1.0509684990825965
Ni 0.5623636332098314 7.29577289830161 7.070882274841191 2.0027325253488732 0.052061753692245825 0.18022584696570898
Ni 5.024761683354284 4.709317147217518 7.102408512566656 0.07408710892340144 0.10517560279808984 0.18968750659924105
Ni 8.34302252739665 7.0653692362743605 9.419111550706145 -0.4752069699981428 0.4602362076209235 0.42705843531737414
Ni 4.573144274901852 0.20733779358103027 10.683020043379395 -0.48552866363912517 2.378239828061833 -2.1905989195789752
Ni 8.485725795635688 7.339263331403564 4.912197512953502 -2.375197955911716 0.24239023630959547 0.8782050219322036
Ni 7.344117865611593 5.845214396287702 7.081773554402094 -0.37040366293780724 1.283816857340028 0.5476161769984891
Ni 2.432112530278709 5.484002441022702 2.677756515177058 0.31136059283172185 -1.0465973665980943 0.11304549246446984
Ni 2.3981763305430275 5.0412288462963435 11.469206849000527 -0.6439685250779943 1.3620694104950284 0.34934427116434674
Ni 1.0217747094330156 3.269387615974286 3.7675967124964647 0.01577243234290832 0.08271778801520592 -0.07643966831597804
Ni 3.611955609656102 2.3271434744671877 2.6917271906399036 0.13905862869877986 0.5361873663362573 -0.49874027723339265
Ni 0.9779654982873828 3.123059385981409 8.276017204204095 0.31749833029834357 1.1048567644606198 -0.5427627055609298
Ni 3.4804824364986784 2.8857883340988986 7.129683161983852 0.04975470282562399 -0.5712713545235839 0.01795452759589166
Ni 4.251488120885393 6.933522637408626 5.855457190228321 0.3149470246313995 0.7247857536363775 0.6788509387774759
Ni 0.9583014469644263 7.49163923628224 11.556774266804803 -0.725628304142331 -0.35597488910698694 0.3628381918857235
P 0.13149685381209703 5.544788859980281 8.245570257855084 0.428849465779526 -1.454476143663224 0.013277948055828746
P 8.47084341496792 1.4842396793146466 7.986867302698814 1.3019652461142803 0.2637460762775522 -0.5593928579184431
P 1.7703839592652375 3.0604787020351223 10.733488983254693 -0.398959620198629 -0.6228032038542887 -1.3254206489237432
P 4.243518669793413 6.249579790722765 3.811187332983575 -0.5575781733072074 -0.7759962150719216 -0.6558699045012704
P 6.931664616811182 4.12341221087918 10.348360477564055 0.12132573019539104 -0.8024248415770955 0.2784371026308237
P 6.42437945398825 8.177540290950702 10.08973767231591 0.023393953443908096 -1.8887148987791214 0.8070517988261455
P 2.272432054227725 8.454868081007538 5.8961013907974245 1.1966047809988942 0.2941362585336354 0.9744177591100508
P 7.131620421695012 4.101580468859205 1.8785990863558242 -1.0560916792417747 -0.5934244935818555 -2.088356174156965
Ni 5.213414529603658 2.9857935603731285 0.35370063376150607 1.0276449938653076 -0.18675670610569126 0.7874723340323212
Ni 1.5580595662866534 1.1256872437283425 6.994218887719565 -0.9231931566071198 -0.36492849875584893 -0.4472374813684104
Ni 6.777913412372632 0.9758888870314152 9.224314485363454 -0.9774110374104198 0.16760070200253072 0.32760970770073256
Ni 2.505030730784309 1.4660511149367197 9.147251259495615 1.3288620705051244 0.6933535032690253 1.378924020158522
Ni 6.6059281038356295 1.9460579851648143 2.5714604319094208 -0.683415675330023 0.2989077117803497 0.7104130298544733
Ni 4.107792086738898 7.045996639162768 10.448551505898031 -0.08144380639878877 0.2199704738534986 -0.8833726821760722
Ni 8.309550832810329 7.288759781340667 0.21281166798820808 -1.1146840349636868 -0.5903833927626865 -0.25372417326517593
Ni 7.746379324958374 3.5625085811093995 8.164228119846658 -1.3011872302976752 0.9281019067626468 0.39002118005841857
Ni 3.199265554308958 8.469659382234253 12.627392148090353 -1.2245580716787106 -0.057875789270861615 -0.17230993455274196
Ni 0.18457066570145894 4.624085006281795 10.442472864002273 -0.5300761112321967 0.6555045507420517 -0.3743667613506133
Ni 8.834833293184982 2.7215265621630387 5.946970169418935 -0.7851611694006413 -0.8600280939128607 -0.08361484590817858
Ni 3.6981623006110738 3.0551778785659414 11.644154971754926 0.11592744199795518 -2.199570784060283 0.47166424695220704
Ni 1.1952992605237835 3.4810289131449856 12.991844709867953 -0.552264731514094 0.21296421773899454 -1.0614079492483655
Ni 2.9812760200969883 8.37078354102906 8.169440596258019 0.2902868028805581 -0.3119874277824433 -1.206321751176342
Ni 5.840970094334715 7.798750003562819 3.3079515621097793 -0.7325165466217319 1.0100694468753895 0.7424584883257922
Ni 3.0534291532977584 8.713970874910023 3.733017491906962 0.9665118739994129 -0.9328669322514579 -0.768625119418831
Ni 2.9347708574962397 4.225767286732531 9.16175474968861 0.5092272928076457 0.14033903807310025 0.15585230321735094
Ni 7.319653927745238 6.001534040963896 11.453703306544789 0.09978374235855718 0.06310798420407841 0.4028322157801578
Ni 0.6994746237683251 -0.12103000444649181 0.32885416224273556 0.2739047619781089 0.8536836397520716 -0.321070363920318
Ni 4.557788281140617 0.4683559881288235 1.381642332148099 0.6143489024393484 -1.056309965900168 0.5574699298641174
Ni 6.107386567353614 5.5438052020169275 0.3262201448075345 -0.47590373895485133 0.30920369438971906 -0.04803206370756244
Ni 8.065439714904873 9.112315918291602 11.298857327224804 -0.25040667885616874 -1.385517871325956 -0.10243095017341713
Ni 9.343384460238525 5.211847963217577 5.865761007394444 -0.05280094585111551 -1.3286730944227698 -0.10308015372164182
Ni 8.258182028057446 8.722942199853568 2.719041004216751 -1.3075635661376641 0.6559912605704831 -0.6730878110414537
P 8.410849387147486 1.5704099384931978 3.8060950814344015 1.6922257958770146 1.9664645441557747 -1.2571439760345318
P 1.9996855600557675 3.3117668798954147 1.6833621073128577 -0.6271380837842168 0.42390574862100544 0.30382648923820577
P 4.602544718473183 1.3161616787987411 8.221308516347863 0.2607599970660348 -0.4433959961351332 0.7596841081754594
P 8.609001819098502 1.6682839058468295 12.55486103520922 0.457248071526877 0.4862354598981626 0.5477786707182825
P 6.376571855380469 7.848871019973302 1.163166433720916 0.20921786332268485 0.032836329803730545 0.29325642703184335
P 1.7762403673248306 3.488105785714665 5.913391001092175 -0.5879444443038906 -1.2751473545904877 0.048520830418522884
P 6.808561644286365 3.9727121677158452 6.087752572246203 1.4637781377904404 -0.13932576631723748 0.6326659555809814
P 2.385334129354807 8.552104492273811 10.235465688792258 0.3723564157888039 0.05410963736021003 1.103723165076809
