# total energy = -381165.25199769303 ev
CRYSTAL
PRIMVEC
9.30558055294827 0.00000000000000 0.00000000000000

0.00000000000000 9.30558055294827 0.00000000000000

0.00000000000000 0.00000000000000 13.61965776173671

PRIMCOORD
 96 1
Ni 0.6498487128617575 3.899336083384354 8.654420810540286 0.765479631811314 -1.5918476144675682 0.01743645030889255
Ni 2.0359959136579375 2.1614072244785216 3.043421800276677 -0.386098962185877 0.6909032419563198 -0.3921186860173957
Ni 1.1233231717523775 5.8702487657683315 4.371991651175159 0.009024829206429618 0.11854431079551196 -0.9145498791098249
Ni 8.565331042228784 4.687500155795263 3.3879032303430887 -0.5966861950522626 0.5511694415673863 -1.008552753120547
Ni 9.341407165336737 7.206148622568228 5.684804362308671 -1.0380006260680188 2.6052895773596165 0.14452068025461565
Ni 4.800125598761912 1.3485275297822767 5.622494194077267 -0.30218329720782794 0.33284421662679453 0.5625432306219668
Ni 5.983134764994013 0.2338082979263682 12.699337120310448 0.38725081640213305 -0.4799485984481864 0.6079985347412883
Ni 2.7582020302109926 9.261304726845708 12.409687893841218 1.559552244768972 0.5211261011277607 -2.480863868082663
Ni 2.1995973275880916 1.887162456266499 8.666501315378698 2.306338671046157 1.826262545881171 -1.9350988853602997
Ni 5.916236945487507 6.995070136010144 3.5914358215279885 -0.2908516742450926 0.4924117639122036 -0.9080537298625201
Ni 4.227730025571666 9.216833356777327 8.147579331006394 -1.8247548509873928 -2.7051108578243284 -0.6343677687634365
Ni 8.939517746940998 7.52425059252377 1.7890369691149892 0.1527286699867047 0.1864970246864014 -1.5917424563482716
Ni 6.295662692122402 0.31737892633672793 1.5029834190204021 -1.0740343797631244 -0.4323988736936811 1.1867443432650464
Ni 6.798722383668055 5.353286536687176 1.465557304084637 -0.8376975487364605 0.23919846884517512 1.1836289375645164
Ni 8.067268447508141 5.913659299639224 10.388993146494942 0.4162150648449671 0.5268678887075442 0.18503972341458455
Ni 0.7987138092275072 4.097321617926072 12.548308476436663 -0.14162099010931736 -1.3559542987362259 -0.5490922473233834
Ni 4.706427706897813 5.06122158147349 13.54126325454037 -0.14893732126507253 -1.1976208809682345 0.8277445512888068
Ni 5.426493539894532 1.0342315423247401 9.577017023682698 4.82536850867558 -0.5306510098990603 1.2759829631179056
Ni 2.675112500321774 3.913880705986756 1.193749667452633 0.9374524947396113 -0.3211595812000146 -1.2346236834448285
Ni 3.8153811344919215 8.677472595000088 2.6772704644814014 0.6238085051903515 -0.42815809613945616 0.18993587516462127
Ni 6.410121334482955 3.031488323613004 6.6352382200544655 0.4962259954519712 1.0460443223081017 -0.26394996475824223
Ni 1.1260869292142544 8.516076603691028 13.619793980454594 -0.964844513599319 -0.43597836351482333 1.138318129442859
Ni 5.501766382012786 7.102856677023338 0.8893743595577456 -1.7100507398735774 1.706142920178739 0.42312901835598093
Ni 0.17651197656519735 0.6853764893388598 5.644708476275894 1.3575306420844104 -0.1216561169516163 0.057295234177043255
P 3.131783872179024 7.860098304835538 0.7889866857429961 -0.10889933150658018 0.18560485188943518 -0.6198744602432679
Ni 9.515607635661091 1.072393728692271 8.277033916632316 -0.2226163961167779 -1.4202560461380893 -0.34170089568647605
P 1.0251865179040525 8.011220935074189 8.209139469435012 -1.3814935806579112 0.189995267647647 1.3865293433096058
Ni 0.956548554810439 2.348933286336235 10.554866983227084 0.6134410459130984 1.065999682384106 0.9367477553631027
P 5.4709928267049515 0.1850991664164428 4.02674716349301 1.1782787289961967 -1.6868185088185144 -0.5566860005102413
P 8.239738079826067 6.979548427436371 3.6163598888205497 -0.7162090677109602 -1.2039069710872623 2.330079209196206
P 3.5889763565543387 1.071565532011776 10.204025188766083 -1.7618564116909594 0.9662015418478457 2.2133575534317305
Ni 5.144785695977374 4.745352950881081 11.326026037503873 -0.231190253828718 0.24246479830127274 -0.135279878382638
Ni 6.473054976619901 8.607308516675 10.705690904325916 1.0638309568675612 0.2751334921788875 -1.943263423448963
Ni 7.131713282711149 3.4609129552400346 10.732222045401864 0.7649088469095086 0.1815021425749713 -1.2605069789694936
Ni 7.016928945026804 5.170785488396511 5.30728067636471 2.549273724115629 1.1016529128113413 0.9884019892042848
Ni 0.3138139583783273 2.89909782728263 1.4112555185862001 0.30717560821609674 1.2253702831673605 -1.839904819254954
Ni 5.335001070651527 2.2713619657900908 11.649792314419162 0.00662213330220795 -0.06698366510940076 -1.969140805436357
Ni 5.814340837044575 4.554774658560419 3.7403939737005354 -1.3938659861803349 -1.6939463781125472 -1.4422716311772323
Ni 4.437636008964106 8.23732793443002 6.029817141031894 0.30085326554249475 -0.5466453284447876 -1.007729228777987
Ni 2.7659721900785583 0.6402360480196069 4.569804101916235 -0.279219489322803 -0.7827101367569875 0.8464693813918197
Ni 6.988072339338994 7.728833783767411 5.499781501653802 0.14984312090879354 0.6805069863236602 0.36582529953850546
Ni 0.6887339428481026 6.009962754093644 9.018542599189313 0.06712481867295536 1.5487538686018876 0.4514507481188096
Ni 3.8838981250366986 5.873645302716429 5.023828966628172 0.4310372174594641 2.867205028186333 0.6507086720153052
Ni 3.342759997349632 4.529565840499058 7.996891271385487 -1.2214130982918254 -0.5284552877993222 -0.15353033995239365
Ni 8.1988400527387 9.207239303096536 3.7023546209979767 -1.0007193731190571 -0.08224419081289706 0.30156186157374515
Ni 8.559226581302887 0.6473883173300397 0.8095306162096136 0.2376874315172874 -0.47844810264325993 0.07739431891976348
Ni 1.4431652852950274 -0.1278633313296901 2.543961507337939 -0.7235932759901732 -0.3547680132830793 -0.07166667240736689
Ni 3.803544435867318 6.976058834681476 12.37469891048547 -0.5140200862105987 0.41376711752510675 1.041605826920774
Ni 7.797518274764422 2.169893914058426 12.452330717306033 -0.2626132482246897 -0.24217529208531197 1.4749860906911179
Ni 6.200503824091587 7.03669399839053 12.179324521882481 0.36720546771548374 -1.7417359867920004 0.6881539613459567
Ni 8.803442240661454 6.738887499897457 12.676510530903096 -2.9358429410697053 0.5011931096492594 -0.8135456340806053
Ni 4.171561540588877 3.807694724850473 5.890543306672732 1.688979521025575 -0.6563445301448438 0.3073111053526965
Ni 8.811333373077858 2.6948031090400617 7.049439852247542 -0.8351256742442261 0.5253483667392242 -0.026990669656230936
Ni 3.1603985327691624 3.578851884774803 10.258353960448492 -0.19479680280134837 0.4724543469536702 -1.2231051412822675
Ni 1.4104747803671718 6.084537677660919 -0.3043492522689843 3.5711594468996557 0.7434707316403906 1.6875736418169838
Ni 1.9429959403448178 6.5368354265987 6.954252136916621 1.13557321970787 -2.274270329756703 -0.30143304930536474
P 2.375863636823344 7.633916860834268 4.653973079164301 0.6674977185481858 0.8572903832667236 0.17890918503681444
Ni 8.947594990970995 8.80526613447468 11.723216137656355 -0.7268269524361225 1.3166416171795323 1.070968339243291
P 6.903428777476263 2.4597255299089795 8.778809438044167 1.027829856182604 0.11017614133647476 -0.8769708924147864
Ni 1.8194922735635763 0.07147058185252007 9.96870473397926 -1.8700916272509793 -2.01780047542559 0.461091099422051
P 5.456541259909348 3.7950391351260544 1.7156959655458457 -1.5065949758456505 -1.70754417140164 -0.3695616266524861
P 7.2794300704210215 8.085014189864365 0.27878309990952205 1.0139924360788795 0.3432445860245121 -0.5400813020740247
P 1.3489090585901453 4.379392379489739 2.707969575143797 -1.041559804174187 0.3567701313147727 0.22097757496177428
Ni 3.187086938158599 4.2109148412834125 3.8121967647833217 0.8682715648685755 -1.774854366612524 -2.743580988875068
Ni 8.42028495617399 1.2308305453451804 10.380222636704305 -2.4752542352053695 2.293395480621928 0.04127828992349665
Ni 9.149442341494797 5.005146152297499 6.523203681460979 0.48642212198767193 0.03509812925471375 -0.09274251924105963
Ni 5.864749167586616 6.334448352395474 9.720649592032242 0.7532679202364705 0.6048522758028229 0.5402911040919858
Ni 4.451408268370091 6.602411853648686 8.073283574859511 -0.3329997683680523 1.164318924381995 -1.8413186688833447
Ni 4.651347974854551 1.997349837095061 7.776062397391192 -1.3569040642440051 2.7985444895951415 -0.4785954268544015
Ni 8.79027484399965 5.259542116919679 0.8013612469308876 1.939411910913357 -1.4391233153562377 -0.03933942102957096
Ni 6.4941600336015055 8.482027483983932 7.722781434093321 -1.2699904929798966 1.1676736997868407 0.6305473665760818
Ni 7.542256891139028 4.625180681983179 8.255937234673324 0.29982893804303845 0.5373842148578358 0.35495776069638224
Ni 5.182975799086944 2.148304966881476 0.14320078940600434 -0.6198361508061647 0.734356170933632 2.605867304239957
Ni 6.569646904075393 2.236391593595704 4.131822988854202 0.7262111732289944 -0.1947942316981871 -0.13194850001655986
Ni 7.1866906533669335 2.4801791962430033 1.6907309536982933 0.3367137268845298 0.7949334182960567 0.18321758260418125
Ni 1.3422555684041457 7.373639769222505 11.231696296711622 0.6380799275077012 -0.7859751806615044 -0.3919785608951056
Ni 8.574794817780058 8.647899459599937 9.427554509037313 -0.11824143484311249 -3.1655859209289354 -0.9759699340885191
Ni 2.9915766880776857 6.2099769052235425 9.859188285517707 -0.8743969610400231 -2.538624986152531 0.2436765592211868
Ni 4.059029153429026 7.998276872348698 10.348080230478487 1.1511769876833982 2.710588335999132 -0.36647424597641404
Ni 4.449817014073859 1.8688956013922087 3.1542307938946443 -0.44234364361121886 1.0428247869295395 -1.3532124743250307
Ni 5.396110818975247 4.065142919935601 9.071291283272306 -0.8719767816343047 -0.12251897917254383 -0.347385347665763
Ni 8.130844174711985 7.056328773624739 7.69838871545757 0.837768511183712 -1.4039447105725757 0.05134647279277609
Ni 0.759863009889677 1.7370541343219386 12.908616838123143 1.0548431515466543 -0.8221693711938745 -0.21057874822595346
Ni 8.78701789076175 2.834414735977898 4.803667302768614 0.13395524603394351 -0.11525921228633697 -0.6897994673691797
Ni 1.7774124377298834 4.101267184134274 5.420787357821728 -0.8683558970522658 -2.4468957386673345 2.9509337739645565
Ni 4.263351788413633 5.542887743036467 2.295198210701193 0.24805360524295988 1.2690594965251951 -0.4797531946079286
Ni 7.3012702682763235 0.9583910597850235 6.103200019714096 -0.70090097659898 -1.01213018605916 0.09854189953165608
Ni 2.0707057295932927 6.504507839317354 2.3591154527159848 0.1901284507914016 0.8837295512948585 -1.2529523065506871
P 7.30340124625198 4.968435636516004 12.204616159611891 0.4549968135988551 0.7933889566270723 1.1080289915410142
Ni 2.09436982126182 8.780569123350704 6.649797731585955 0.5469752009803805 2.057549473188753 -0.8600512338413124
P 2.6983578408597144 2.3824705991059454 6.517047109283276 -0.18664512022849145 -1.0785050139399683 -0.07922134482617324
Ni 3.178944555063844 2.7524604869316054 12.35834156076666 -0.9210208315461493 -0.19767206746661442 1.4802375688980443
P 5.760145135165886 5.384609121255114 6.866254843776917 -1.3009537741306305 -0.25859332843201915 1.3945105617428692
P 2.9413730803105973 5.044657647863589 11.987083322294353 -0.6238725256590675 -0.926274880856237 -0.1483606228259961
P 9.160013481146958 1.6123500476330133 2.9067888897144187 -0.37656402611224826 -0.8822838199872676 1.1278244290003867
Ni 2.901135749451489 1.1421111391447318 0.6786076099524316 -0.06082972969286299 0.34899820067883763 1.5978387990539964
