# total energy = -340890.51716107095 ev
CRYSTAL
PRIMVEC
9.04839566520326 0.00000000000000 0.00000000000000

0.00000000000000 9.04839566520326 0.00000000000000

0.00000000000000 0.00000000000000 13.24324168187507

PRIMCOORD
 96 1
Ni 6.2885807863614955 1.947133339277629 11.53283735281573 1.0163473094643012 -0.028906398621705055 0.21509231982559085
Ni 4.654911022570736 0.39513168140355776 6.0026849583397945 -0.1463093967239222 -0.7441106792172345 -0.04085277235030384
Ni 2.7864172911375884 1.5522251532501798 4.801575565153916 0.36356812807321254 -0.417794493516945 -0.2651349862052788
Ni 3.5954343590670685 4.349002857571744 4.75817764924738 -0.8987455650877167 -0.1833728772351229 0.15737979560547088
Ni 4.975305669235706 4.857522701186964 2.5808956484340535 0.1167990459696311 -1.0254752399074984 0.1600303458544405
Ni 7.433239047868608 6.0795085531484485 2.4523704248988345 -0.8693503997550511 -0.25962716901317223 0.07659599138818421
Ni 5.2649267218057405 4.151349699850554 11.58354546768413 0.8602836615670925 0.9002193214197658 -0.9258586192544248
Ni 5.667697963778059 7.5864012434713635 12.319618892921367 -1.0200245012055724 0.6585556788635497 0.2560235108223139
Ni 1.7989477613615 6.524182916042156 0.47576465084142805 -0.10544788262287001 -0.5066435912408693 -1.0225408398695228
Ni 2.5665503217424597 1.4364509290676757 0.4461474417289487 0.49795917609299406 1.8123117401280335 -0.3624676959201822
Ni 0.49931219605538263 0.15844826842553092 4.744669299166719 0.4688296057168893 -0.3494671698954562 -0.40944483600066905
Ni 8.668200299398496 2.121143038789449 1.3946192904730579 -0.22242844847568788 1.1025764530668754 -0.7300171772386459
Ni 7.0024539725184844 0.7977382425724276 4.87608186579976 -0.8567489089409568 -0.2520159323248176 -0.2928959583686311
Ni 0.6664360663680715 7.2894600387040915 2.603701225192911 0.5339183677964224 -0.7127182809488823 -0.09691901921625244
Ni 7.448241288094837 3.6356997203497685 4.097471931935564 1.165999140297895 0.9469077266152404 -0.4102624468059579
Ni 7.864232236321992 3.9182449274090008 12.731139028786773 -0.5674396394823196 -0.8472705371368764 -0.5246690812840125
Ni 8.110583860205764 8.960382047978195 6.801543392311504 -0.3025995588096402 -0.14926179448402682 0.7427546794099725
Ni 6.831348808056495 0.6349937958239695 0.3666970976213366 -1.5141190521368377 -0.676987403206176 0.8255814821992169
Ni 1.8884725893460017 6.812184305765088 9.163581872321023 -0.7737087045893256 -1.8795077783585565 -0.5360904357470767
Ni 0.05535446610854926 4.640388347321582 1.494619446268117 -0.25853213617678056 0.6794764881766169 0.21597832197496997
Ni 6.132197361856124 2.333327920155586 7.0950534453937415 1.6490752286314696 -0.6317550137309378 0.5562501985244033
Ni 3.5101713255014775 4.434709262531234 0.3683185701475973 -0.6333341852925995 -1.241778549322055 1.3442629784412268
Ni 6.192269661531595 5.801170850133363 4.557793685675602 -1.097103602877762 -0.08182818632140101 1.659265024680278
Ni 5.324465166129373 2.726996475959276 9.437769981025042 -0.36484905166816517 -0.03197423891375139 -0.06469898284028212
P 0.15238131904574434 5.72393374363693 12.365519595104486 0.6514517208289168 -0.4671995263126341 0.37370804472069186
P 4.1721972037596196 5.8780550691938345 12.372935660297138 -1.0847473953052544 1.9930415233133547 -1.52049050288082
P 2.386559632610895 8.406357821915627 1.3302309060039137 -0.2017927745032073 -0.1940054172483046 0.5389579871028589
P 6.292263483449599 7.915500446890032 6.000354091583295 0.5630078289632111 -0.5487451483966098 -1.3659121812798862
P 4.601842181239716 0.8487865771226765 12.715459063715585 -0.08363335785093984 -1.1654774634664702 -1.3825395054239222
P 3.946086841266724 6.191699612596581 8.25414208851291 -0.23310006925692114 -0.3127333048095324 -0.267586533069565
P 4.724601766975084 1.0880243522333115 3.774098553375253 0.33814197469062407 -0.9998536826846522 0.12061302039908259
P 0.13916613698880434 5.395169330862635 3.8417715055175705 -0.21878828061993932 0.19946309792876615 -0.7358978043891391
Ni 1.3835178136735649 0.9629664739663016 2.3983904101113733 -0.02520169607660821 -0.014800555347942253 1.867701529752248
Ni 1.632583956295496 6.577251757373174 4.981472150969225 0.6507660076158018 -0.5492382859829444 -0.9559958049594375
Ni 5.766452155472303 5.1377696157145545 9.049040944485224 0.510331838725734 1.0382713632309022 0.8077195143171315
Ni 8.696494633045912 2.310743124254099 10.201136987334893 -0.5691314253624457 0.7186387601983752 -0.06178566584822908
Ni 2.4415919758291826 5.069155630409675 7.004959473313805 -0.4745449109341118 1.120446648479077 0.4040925705498202
Ni 0.738475774320508 0.012465974885207976 8.858271806284007 -0.021006427048338015 1.7087430768057477 1.2750044012547201
Ni 1.3470437302284943 1.2171359118159728 11.333685780751077 0.7602376666860843 -0.07833662822837477 0.12462728376479829
Ni 4.282479051695248 6.957483445422975 1.632719682232404 -0.6560809920708119 -0.2322230659686065 -0.7196746576620573
Ni 5.731823944769181 7.6373346633950305 8.202718245537216 -1.104770889615033 0.46187117212118517 -0.7331654930596405
Ni 5.3938482650767305 2.7725551487813873 4.881339888595575 -0.56103013641155 0.4794562321928001 0.01856259349353577
Ni 1.0591509212550878 7.6825585455727685 7.028784804278632 -1.077230518102919 -1.4189126447363176 -0.027019208901321208
Ni 4.761817818875252 4.494989675309964 6.983465913945059 1.509383337224065 1.1123939533779295 -0.6030306492130518
Ni 8.322252983011651 7.305050424656922 9.196596754054099 -1.252240110975011 -0.09122325438305579 0.3409056534786903
Ni 4.621296232196527 0.3207348663468194 10.557432953991182 -0.5092234361529037 -0.3326683531705626 -0.2352453977346981
Ni 8.120238498517818 7.263780691441102 4.572056671965472 0.03851769645922399 0.3938279553990185 0.5145762158243848
Ni 7.5722405040539655 6.418560991940367 7.044173411005258 -0.4679119789986264 -0.7127902718373982 -0.8042603521239375
Ni 2.3402589913336866 5.458707166127156 2.5732280378383323 -0.5405312451272497 -0.5229880940371638 0.6295698331541609
Ni 2.2738256694151295 5.505577856339377 11.170250941403546 -1.1457625015360462 -1.1972120755655895 2.1165259517229615
Ni 1.1704552379154227 3.1280666195223477 3.8696088951773966 -0.4402556507339386 1.0486053981670587 -0.48317533291560016
Ni 3.750207169121132 2.6766059597832417 2.672803823870659 -0.7318498595720105 0.5816341858151467 -0.40924043329934684
Ni 1.1446582615071133 3.354937047261928 8.13519097256718 -0.44460749994473103 -0.18215057479224758 0.6451928844033985
Ni 3.775081209158467 2.5309358358978065 7.074579640230962 -1.2279110473113433 -0.098167804021689 -1.6993958312628925
Ni 4.028173887908668 6.783301826391071 6.126402769189733 0.9487198401233146 0.6069757499037288 -0.6767644885620925
Ni 0.6592869288513387 7.496840221903687 11.115212264308203 0.5237200871071819 -0.10561577565930198 1.1988172152691805
P 0.327761850520335 5.716477865502785 8.135217212914982 0.7569510255150125 0.5343793665932409 -2.055851002440408
P 8.313086958072466 1.623327447398372 8.140792834403163 0.28840526958712914 -0.05728417843344973 0.21754643779303823
P 1.8411766245314685 3.4215965790753318 10.44572598371802 0.1260997545452667 -1.408733904431103 -0.3421994325894494
P 3.855584786536485 6.274220982236631 3.8520884864017355 1.3892765670374396 0.34317130958441544 0.3597382128041611
P 7.114554548008679 3.930559794084451 10.418630562513291 -0.48202270736839564 -0.7364444209212284 -0.22203044170632083
P 6.333098893667312 7.562314413868095 10.199110146677066 0.35137184311733677 0.37323650440091205 0.6985481600960873
P 2.5668760639910393 8.436181334452206 5.769657097262489 -0.20210182110319386 1.5787540145084036 -0.2665192681473152
P 6.75918785160042 3.967079119508491 1.585229176908303 1.2271191475376673 -1.1307596003693106 0.770920343210911
Ni 5.118378903528302 2.5055188921128395 0.44951977884132227 0.7258329639539693 2.576259251565537 1.7828849502264843
Ni 1.4480147788922353 1.0948016006829164 6.790220229815061 0.35329245717881735 0.47103278401579524 0.6571996790562875
Ni 6.742520706548121 0.695026282557947 9.431823375309314 0.1820983813980735 -0.4623774223336424 -1.1918844927050893
Ni 2.7720665354085186 1.788424477053235 8.907311396968018 -0.5634518584791651 -1.1563904135635374 2.8171014266617225
Ni 6.4574148034792245 1.8828625839538051 2.612507123979501 -0.27106883519121056 0.38690783124041755 -0.47829486489484724
Ni 3.834646798669481 6.867533342836162 10.35996257386503 3.198756237033317 1.0898631192652648 0.43089272146179985
Ni 8.17774105378783 7.354780407940004 0.31360382562167427 -0.020192672897791027 -1.7268518705913163 -0.6670259211180899
Ni 7.884853530336211 4.101511135817945 8.294944019666186 -1.435108794880206 -1.0595367003675815 -1.3355327976570803
Ni 2.8161141261330536 8.502451785246475 12.37256467606959 1.2865291140648683 -0.903798811240908 0.03797365103029589
Ni 0.1948816340895288 4.878849770073104 10.014804277591407 -0.05744538660166235 0.039356390310435446 2.6279019154424934
Ni 8.532456265698931 2.461018881598611 6.184302549035096 -0.07537985959289599 0.20586283080752288 -0.8084872457210914
Ni 3.6320260716574593 2.7227708751235413 11.742848809512182 -1.6894230363208969 -1.1599351934920024 -0.9238079073729834
Ni 1.2413313221687683 3.4042598527342864 12.616028956855539 -0.14073935883531247 0.3421631800348752 0.17260663985755434
Ni 3.142127826586014 8.43092421649597 8.162842870113233 1.6098515072441566 0.661063789997384 -0.9403082190208516
Ni 5.743930698341372 8.026243763011147 3.506134836137835 -0.37692937987146696 0.17242229176089013 0.14870206532581487
Ni 2.7932035879829873 8.197231298327816 3.5092339116972333 0.9354241514556728 0.45240874115670476 0.3759315347345719
Ni 3.470991771714042 4.278850644981907 9.277963548390852 -0.13356983767006672 -0.24600392180278274 0.04004621728860845
Ni 7.21568846779671 5.8974729265674695 11.337022829119855 0.40876992142083146 0.37693657896031857 0.05872913841009241
Ni 0.5655265467957289 9.075450497288777 0.15809538098957016 0.7352953949184499 -0.39252723430972397 0.3744834894341357
Ni 4.366140519205325 0.3504262723048084 1.6884605148413512 0.8166026757393743 -0.22929740768137932 0.1596395381739251
Ni 5.860265923063096 5.3418923764283575 0.2595107058867898 1.2585711953993615 1.4508094934449143 1.0007844220290376
Ni 7.806865406988887 8.786164235363115 11.448994917389776 -0.344602128493671 -0.5766920113185229 -0.6559735199586704
Ni 0.23250667347957876 4.86767500126768 6.103055193522823 -0.9250340664706004 -0.5929845778309594 -0.8428402692796646
Ni 8.06108913521332 -0.3101690545783231 2.351563152198963 -1.0543525850634812 1.4169879169097788 0.6451455761052309
P 8.522240626847658 1.7041205734417937 3.6055387026500783 0.0032563021537685855 -0.6216616340506776 -0.20870801356580185
P 1.8769720782919992 3.587381286810529 1.5922742578734062 0.7551890485185833 -2.2981985584375257 -0.29028140356391946
P 4.7355322290940745 0.922149160540176 8.209578739228125 0.8311278659387428 0.23598716099672903 0.6907410053468427
P 8.383501574140324 1.4570450778945128 12.474392607815009 0.7537692853529212 2.981778527259555 -0.9634214079995471
P 6.312016131467606 7.666606223788183 1.2360009122066022 -0.3856562182215036 0.08961220114219405 1.3418970493122115
P 1.807598027740435 3.226929391966118 6.0356211190294635 0.651322137229588 -0.7503995975497398 -0.7085037286469024
P 6.822074202367784 4.232350938997235 6.209358461827889 0.3395324272802475 0.6353579005908476 -0.4761274249298832
P 2.490652377823519 8.657025530593073 10.282979727290403 -1.2923305512379937 0.7769457234693844 -0.854373980950877
