# total energy = -340853.0349029515 ev
CRYSTAL
PRIMVEC
9.46384451933871 0.00000000000000 0.00000000000000
0.00000000000000 9.46384451933871 0.00000000000000
0.00000000000000 0.00000000000000 13.85129307411256
PRIMCOORD
 96 1
Ni 1.024792385797973 9.201128034060316 6.73445744604755 -2.2034410656489665 0.7079501701362776 -1.2110644080676498
Ni 6.338722062491793 2.4104506206319396 5.42013577717995 -1.3888086262620856 -1.3569470016667986 0.13181325999027624
Ni 6.325870161860001 0.30601813908639575 10.359105101442395 1.3561869835723224 0.28052560972873625 1.2672638380773529
Ni 0.7591602561048846 4.662902359785399 5.314118007196451 -2.1210024994370764 0.12464965236230145 1.9673891128525731
Ni 8.372010094111342 3.907952568033301 10.968146072877365 0.9513454506716197 -1.9827954201053142 -0.10990437573232685
Ni 6.177789389263788 6.200814922575387 3.4108527867625664 0.605912341636221 1.974743753445431 0.6105668096890968
Ni 0.7965925996755243 4.910410281157467 8.535997696296596 -0.71087814241635 0.007217086573729506 -0.21202190843038324
Ni 7.724825098010365 7.993626669177376 7.175592783734997 0.21287654312119467 0.8282106922919479 -1.0648694254344049
Ni 3.904943065528949 5.526042820184515 12.486538510304218 0.18958646224500253 0.8478171536689656 0.7680034266744322
Ni 2.5869134624437233 4.3271251621300255 4.225946255764373 3.6733697964218353 -0.7848690920815192 -0.4454474793475232
Ni 0.3927552189689002 5.418287488377748 0.8826255695381426 -0.3521722275314451 1.5793890769892411 -2.3391305207651976
Ni 5.9121582059551345 6.415294027154409 6.671170826088108 4.083908122596999 -4.434144823668628 -1.0092883457349908
Ni 6.4762127932566536 0.9325757400349032 2.232953380632339 0.43858263390688984 0.7678087941651228 0.7782796117894597
Ni 4.736218761990477 7.155783064734652 10.436700107679604 -0.6906332761243849 -0.6188483329715987 1.5721611917822342
Ni 7.087501427725534 3.48853391398339 13.463650155481355 -1.862320725056309 0.728825728033706 0.2896324571260108
Ni 2.6863690027526386 1.2622213129337678 13.339971905550147 0.5410986875949456 -1.2964288896770833 0.9948590576835382
Ni 2.7250477346246087 1.3932955572270858 2.045309953101557 0.36665345186675563 1.8007862559869372 0.2930607660812695
Ni 2.509887233252148 2.6665990318985777 6.349335763934028 -0.7978356795445163 0.11746573301935254 -0.9997215279821622
Ni 1.3813427218088576 7.3856882356095666 2.6426185966917304 1.3349589274314815 -1.440415294694784 -0.27223328781295697
Ni 1.7135709778317403 0.3790326446566034 9.704811811847648 -0.10649792115393916 0.1538440145380705 -1.197526521482215
Ni 0.2924659139724584 0.2245552596619898 2.429737935423981 -0.23124398988478886 -0.3807708651047442 -0.9363165813629551
Ni 3.2611745172395152 7.788649264329075 13.07789250302729 0.8442762303952427 0.08151862550078219 -0.15835578636549502
Ni 0.2882904658437789 1.3976110702521944 -0.027677959195685015 1.2933145124178178 -0.6887735972078267 1.1992753858525218
Ni 3.934044386915372 4.4290318381264475 10.472782907045461 -0.9047508907415321 1.0128598651363332 0.7151705991441167
P 4.693186661715985 4.441779636470354 6.739859408404419 4.046611700139386 -0.2289577649537734 -3.150099395257562
P 1.7000566080952162 2.818966925986839 8.62587866527327 -0.8782520731200552 1.430819680586549 0.5841165859173683
P 5.562459693256046 6.821075281491203 8.638677568376684 0.2320657144551358 0.4693350845983981 0.5700125424158183
P 5.965714101150505 5.4200950826492305 13.158326662570492 -1.5867514308915835 -0.2746645229622689 0.1258830105487703
P 1.6917189612199517 8.800665460250082 0.4303153244383096 -1.7136333150185135 0.5838324790180461 -0.24540511187651926
P 1.9160215362377082 6.515364717346289 4.810969882999517 0.556225515934055 -0.07574212802832117 -0.7629530087347183
P 3.736997683635143 1.6848671379081566 4.267389376571945 -3.0061096478057516 -1.360436759987612 3.22559932536809
P 5.061623586234625 2.52299465768148 0.9472257710938241 0.7990150445645982 -1.4232770923526004 -2.7668304463213125
Ni 2.9328075097127826 4.948540110056946 1.3165608144415928 0.6528473156248628 0.3596309978023355 -0.09274534745453704
Ni 7.016986323449035 4.200782840013362 8.074430865034792 2.387978652616152 -0.6110213807280122 -1.1304376982535176
Ni 3.978675876885573 0.8913635370295521 6.71120099493373 1.5885074943507416 -1.5392721543636974 -2.9549626926182917
Ni 3.9847989841821634 3.1627694636538175 13.097824305619792 0.2867229967886998 1.8608569960265886 -0.28721227772029245
Ni 2.0585754237315887 6.553021354028103 10.92860045286263 0.6568255835463204 0.7227196151359682 -0.06534150152028748
Ni 1.3725792019376943 3.2180950977432565 1.6718098718538976 0.7810962553026484 -1.5080137105700482 -2.578558589122675
Ni 1.0424329916725394 4.92664077422339 2.8100396816083633 -1.9956959302170663 2.440511175297229 3.3703537189000667
Ni 7.9809924369657095 3.9187224229073663 2.038993783380159 -0.018218065669923462 2.249953350277893 -0.06944138262127394
Ni 2.6465262180252114 2.1790217708161417 11.08591036647219 1.9177688787222844 -1.3389878460852167 -0.7748914120435171
Ni 6.483357995743401 4.937637761361935 10.789215060458238 -2.048857087621078 1.067721035950587 -0.14241520387583861
Ni 7.504497337620998 7.600224123254709 10.569478790340952 -0.08226295986597446 1.6362150848393497 -0.19973794885670762
Ni 4.2955443135230365 6.305768956453575 5.145049266977906 -2.1097477524588637 -0.06273054626000164 -1.0811123696558285
Ni 8.398622424432846 0.1570912988049973 8.649120920620557 0.34029090271282686 0.6954929182095312 1.3046368794091723
Ni 2.952672119010377 4.678517702968358 7.495973253011973 -2.97818463926071 0.2367255818246504 1.693007668348362
Ni 5.880690923480385 8.08304107062743 12.274794456743303 -0.6615381585306414 0.7739848410688477 0.02476203743602832
Ni 8.241882234253355 0.7268677264025265 4.753985236994943 0.16148764712625738 0.05925955699226568 0.43665687763908667
Ni 5.102923802992461 3.7969322099246434 8.766455555681743 -2.007422474625375 -1.5558367435905978 -0.2661395162103933
Ni 5.4136785961776885 4.1969689107389785 4.273373365356542 -0.8572867837222978 0.5085374658294726 1.4116641907040204
Ni 4.912369296938602 0.22101578187385257 0.7934562816568379 -0.15557488118624818 -0.5833827930751372 -0.9938193035651143
Ni 0.6433966192063486 7.587012596537491 8.953184775847996 -0.7000859368968524 0.8145445076587648 0.7180746601647892
Ni 8.984917045964638 5.950467847897326 10.401116052911167 2.699825441055673 -0.3346524734801269 1.5351637886222784
Ni 1.5030950794141669 6.706430270995227 6.98184139105859 -0.8212535442478244 -0.27442206793415963 -1.8867881140700538
Ni 6.058592269633872 1.3761092158814783 8.269028325396384 0.5192311980978929 0.9220772978351217 -0.2535920185626858
Ni 3.10278761814255 8.776920674767632 2.034241987130363 -0.9991072914369309 -2.310219751268118 -0.7024037863967516
P 4.2827397321130105 5.695994537081223 2.923980582084452 -2.4602415638466213 -1.5722267549128472 -0.16595879552373352
P 6.460228360143916 0.5382031500660226 6.323516503769333 0.436045726417649 -1.187105069038575 0.6297850344887606
P 4.792112226741115 8.713626483732707 3.1303226732885006 4.040990240187551 0.0008176108052889145 -0.12091563924116594
P -0.013781250147287328 9.052772809977858 10.798024953166731 -1.7479212896671057 -0.4755419847400585 -1.5296436301349978
P 8.626928205612051 5.7593928304040345 6.681087988585939 0.5101613745861407 -0.6138948456210653 0.543562832864722
P 4.049247764228192 9.343047843982525 11.571037438251555 -0.2076338066650166 -0.15734354305089676 -0.21464186255173356
P 8.078810732201504 2.276423656900389 9.242552227179182 -0.5668302880330948 0.5216938007057724 0.43171676002499204
P 9.117609607642372 2.3489450961797895 2.346686076532655 -0.2845316455643358 -3.2048474375327194 0.39306305220853593
Ni 3.256773829615227 8.911108523853187 4.506573846835279 -0.9500570708774992 0.069793366644054 1.1460005856887812
Ni 7.7647909127143855 6.232433626559789 8.659052278884921 -0.6239152059715449 0.342664545151326 -0.9760519522793641
Ni 3.0493736806124794 6.814090964358462 8.665424285288003 0.6964226291126522 0.25191668774279197 0.4808271443983977
Ni 1.7251168679427762 9.075732096378983 11.950867884987142 -0.16650618338677128 -0.01445499908306543 0.2746249279735851
Ni 1.1500274381253 1.8141337879299928 3.8364891865526007 1.446595969584199 0.892923559089301 0.3489444646227668
Ni 4.883353150151359 2.4867859891857225 2.9304207281668786 1.2552603858585738 1.038946792031372 0.22272643933208094
Ni 0.3025042136780124 2.087118378301166 11.241958749629454 -0.9650512302934864 -1.7077092362245945 0.32431586744080915
Ni 3.4477826001980456 1.675109914379896 8.604894483188678 -0.4914923374217277 2.871711914917751 1.1495898457019362
Ni 9.051296450258743 7.619889991820885 1.3356039620493194 0.05351057032363042 -1.771961361335445 -0.012914136958506793
Ni 4.605797522957538 7.953954233648308 6.931228751457097 -2.921255015953201 3.4420304186097623 1.1553267481857135
Ni 9.371713828528696 3.788575635360672 13.30991473588404 -0.1750435314338211 -0.2258120202359401 -1.0198491519699726
Ni 7.541907914349625 4.1693628767603785 5.461329052496594 1.3564510358669863 2.169327154684393 0.23262184406892195
Ni 5.356270916330521 1.3951315430316276 12.523937730419622 1.217373123894497 -0.06889965118519102 -0.41734326491213936
Ni 7.942512445825159 5.915678756054565 12.603138751043586 0.2163609021253693 0.4376323541784785 0.6441814124197487
Ni 5.8182674061259645 4.391498231421228 1.7609148055935997 -1.349827874123514 0.6866064143531789 -0.9436023163910912
Ni 8.879839982109857 2.9254351749615553 7.313579419943971 1.1610543946981102 0.007759075120128572 -0.3902235258772118
Ni 4.413548988764436 9.355208883976527 9.359248999130953 -0.8563267338018736 -2.1657615488203215 0.04882113526776108
Ni 7.864378946844246 6.941322887844336 5.022783969008648 0.8817320612488556 -1.359755160539555 -0.7370591716870919
Ni 0.38752360581039147 8.082227180013046 4.457262485832366 -0.40322893699794427 1.2003089693233584 1.3185468046220452
Ni 7.47372091578404 8.524084609024651 3.0459127527324745 0.5907939979375437 -1.2767064715474916 -0.16860008980132254
Ni 4.44831915291849 6.906297199892743 1.0908263597731807 1.414474663569622 -0.06313652344916869 0.2561505233184814
Ni 7.95953790181676 9.272854510414039 0.61031575126936 -2.193157167224455 1.9073497402714896 -1.1860077222093381
Ni 6.052573264625168 8.345530257610786 5.035097376896737 -1.0496513229330695 0.5094877455578838 -0.5960621883150186
Ni 1.7145741453331909 4.223003946554929 10.784685664550745 -1.9476060166883749 0.6167248588706927 0.07803092406249788
P 1.8577621103987434 3.2177165439691247 12.852905692062789 -0.21951590281458325 0.11695459771088891 0.038872508695481436
P 0.5888280926651739 6.301084353498687 12.401007124192326 0.3126996233581195 -0.7006289538845161 0.8273506582844976
P 0.5402104314533592 1.7953291291999696 5.796086994115116 -1.0495073411560378 -0.4076571479726269 1.26874170817446
P 7.895704271653696 1.6434344273293737 12.92559748054055 -0.29448669989451864 -0.7930894231087825 -0.8262864786860414
P 6.499115296591659 7.536191752360226 0.3233379206373849 1.0243799499607906 0.5142818245124176 1.1969356819757515
P 2.652365409991202 8.921821595661132 7.8414934784290775 1.8448552212816935 -0.9502203359282408 1.4116369370105106
P 5.399861383421858 2.96386784688034 10.867502820102109 0.3566060949330826 -0.5269663619586215 0.22828207904298747
P 8.138669547736177 6.067857373255761 2.853768320827259 2.579015474154436 0.26456754373758307 -0.572135245185776
