# total energy = -340889.25711549167 ev
CRYSTAL
PRIMVEC
9.11196922803650 0.00000000000000 0.00000000000000
0.00000000000000 9.11196922803650 0.00000000000000
0.00000000000000 0.00000000000000 13.33628801719431
PRIMCOORD
 96 1
Ni 6.434006889787155 2.1981896320037855 11.11468869940515 0.7968959413390663 0.35240619791912214 0.4719498965134259
Ni 4.698723508291392 0.4053113166823637 6.128130846308482 0.25884658209340583 0.5596360842775007 -0.5290021614417276
Ni 2.7144191252576237 1.4239638477203784 4.835137885397226 0.881184930496134 0.3778529201270009 -1.7319948482448366
Ni 3.253401205171801 4.371959187015297 4.503170629806731 0.019976957342559144 -0.826727679988518 0.9783446049682829
Ni 3.606016182577404 2.7277134880679696 2.5534990186506628 0.6337339918341794 -0.07854694446696796 0.6540943006580864
Ni 5.420591918545842 4.496638259211299 2.5931606862343464 -1.1902639263825308 0.3689759293523452 0.12354973442990336
Ni 5.432847516887113 4.643432080235751 11.419236217799693 -0.8718649386467887 0.17230042147104518 0.4062666953830036
Ni 5.681194232717123 7.840995139210293 12.382743112286498 0.49126170946816033 0.5859009315113006 -0.16153444120379276
Ni 1.8249542686901539 6.6086833360341295 0.4189883821918425 1.0590767300120276 0.6512856275646978 -0.22770872303802073
Ni 3.2126980395283353 1.6255752744110699 0.3517183596533494 -0.922356005417805 -0.24718534370539363 -0.0542271367746808
Ni 7.9645443272469505 0.0009922934270368022 6.90777005139081 0.13290983548856466 0.5562483987521905 -0.09717947196649071
Ni 8.804266944896202 2.3550795147101184 0.9730088557881275 0.6916516900865701 0.6878184323834089 1.047348900052138
Ni 7.141660628359535 0.9016575823224554 4.83177739122008 -1.3857567268096393 -0.25948370145677246 -0.753920723329121
Ni 1.0000386007097248 7.673052438074247 2.6446259984955636 -0.2571712512735119 -0.057847764246403595 -0.309181582902532
Ni 7.740471896904784 4.0947822011839605 3.5231009092196066 0.4738586835003645 -0.26800665132611906 -0.15396151395254132
Ni 7.923595138439757 3.8472828984734595 12.379501984903605 -0.44068579629282173 0.5741880139497466 0.4583364194950494
Ni 8.345196833348535 7.676013828008013 8.720424984288362 -1.8261854127863322 -1.9084671417053842 0.8556366497133844
Ni 7.184632674290715 0.7657853673737265 0.35387971870654616 -1.5712240246799456 -0.06765369459323187 -2.724469207746282
Ni 1.9654881669930797 6.473798858527924 8.942514650170262 0.7460035253645733 1.7331929823179955 0.49415394341429086
Ni 0.010349374420830119 4.8104453605310455 1.147212390842602 -0.007101129821155512 0.3216365208364332 0.6625863972894975
Ni 6.518939553087523 2.074011718104267 6.852638082793141 -0.341371023150883 1.125517892354397 -1.2237695143391438
Ni 3.790296644178802 4.372742816351616 0.6097319634240692 -0.40949805783610765 0.3210829623258083 -0.3701648074541238
Ni 6.272360559248745 5.892865273213586 4.541272328292997 -1.5022259002436773 -0.6198670040441002 0.7655827330480816
Ni 5.236885510993142 3.6270921669367806 9.302021009750959 0.9762141888888414 -1.2583984172669231 -0.37275853632322903
P 0.31343351058964114 5.610366897470501 12.418257922766008 -0.39843820047752027 0.47149558258482666 -0.10970922900238525
P 4.110755482888235 6.049800715765055 12.588615295694199 -0.28394234871976903 0.9918161570921563 -0.22414645960805915
P 2.5924463078626316 8.62703003535265 1.3378566516124348 0.6696445896878597 -1.3067708950330397 -1.1727272030503482
P 6.484441638351423 7.966348497114289 6.030642800885855 -2.3103956147243503 -0.5831339102891248 -0.8250127541799405
P 5.111368137646659 1.0994137349178366 12.415590849431815 -0.9626045685252067 -0.7600054960706201 0.36669253263480717
P 4.166766756497007 6.335488280667579 7.993411045124384 -0.4988914580992763 1.074021267137002 1.1957619733826246
P 5.098593157070851 1.0220075580337444 3.804989694234788 -0.8715052413145249 0.7007739641028123 0.0919642463141384
P 0.2698017581009082 5.724630989068679 3.3091600772385252 -0.08750723898404929 0.1637877560143437 0.0876789886752232
Ni 0.40256223562692744 0.26670004384412827 4.931785807275566 0.985244931632542 -0.4982761931127805 -0.2707189080509596
Ni 1.9959221435431522 6.648484416743925 4.640561809992256 -0.11628431111674166 -0.2446273531702303 0.5985026794357112
Ni 6.236878551857733 5.917822956378452 9.03417468020324 0.12351142499280018 0.6342638961957207 0.8474402299455212
Ni 8.788147871687496 2.5722359605608167 9.912502888225948 -0.47483981646671125 -0.32764904557910024 1.5564535512389905
Ni 2.765163680768808 5.018079798748563 6.920626128490959 -1.323850733333462 0.046840871612938685 -0.29834901106340234
Ni 0.84510779134419 9.051438216721733 9.216308361901884 0.7983866669519798 0.7536479292837085 -0.6903579109758111
Ni 1.5969272437902828 1.0219984460647173 11.502001143668545 -0.14925588094675588 0.31384222160299496 -0.5813752757268053
Ni 4.455424823302323 6.946710051027558 1.5925525874604356 -0.7602001285799295 -0.9940766709915589 -0.6493542148699397
Ni 5.6099295229572075 8.213820463917711 8.08460454234318 -0.041363136327819086 -0.09797394284332805 -0.5364272502612051
Ni 5.477359485583851 3.1554475381318965 4.705202118269566 0.009019172779474791 -0.5116212469611189 -0.37631257222307446
Ni 0.7996855369416578 7.825805486842337 6.777541790057385 -0.12957588601932524 -1.3959848322955506 0.580106950537343
Ni 5.213075935925675 4.88068952975994 6.9809063595888645 0.47192932768813567 -1.7310774786368897 -0.9932503184355217
Ni 1.0056060137852023 7.466556995985102 11.243317810174343 0.12152807601418425 -0.8741537346809655 0.6553793380180972
Ni 4.500775093149542 0.6103834692094975 10.349132953650905 0.5225780030829388 0.09945258427138355 -0.5335861812679843
Ni 8.019170581563623 7.387720239963776 4.763414843595253 2.3018340983075842 0.3728287274395321 -0.6406700568323804
Ni 7.460397304922871 6.032451526737708 6.871629248639147 0.5143730986746432 1.2063595463928127 0.1317772645460182
Ni 2.3120163490886685 5.223855395284579 2.4676132433900744 0.19466233410601316 1.0356917754291841 -0.5167189731990004
Ni 2.2646614460555163 5.38576597292477 11.506522502699726 0.7558225683375241 -0.30104661250022346 0.30327498761010996
Ni 1.0920785998511275 3.385032709735379 3.321722748936006 -0.5501777670780782 -0.8915449335742193 0.6218747785027483
Ni 1.915208321902271 0.9625884080088869 2.6278089484593914 -1.4537431221519415 1.220524267928969 0.11691988781821153
Ni 1.0722053954033104 3.5179216660246784 8.201483769052098 -0.24915352317535797 0.39020347127255384 -1.6967925893120908
Ni 3.7943788063028836 2.747823603710488 6.483463012877926 0.5780336129480819 0.5446475812884685 0.6509819802813498
Ni 4.329579419070869 7.128266033889893 5.80896681839778 -0.08614712541172904 -0.47721114491236527 -0.10463747090643268
Ni 0.7496726725433392 0.2207602296008643 0.31709925572919034 0.2528497410800226 -0.4986148073991219 -0.23487875842389871
P 0.36622370314737956 5.827368439847742 7.773935603156322 -0.6537479730622613 -0.5170305909021482 -0.7135106949431905
P 8.901655669856435 1.44851149227903 8.066613870696337 -0.37619738680144893 1.5649209652800533 0.3243924863150155
P 1.7691525703690028 3.409616802170138 10.245856074305443 0.8964153742926433 -0.15623694025027932 1.1556532782871969
P 4.155431467027459 6.133940637760077 3.6583972477258313 0.07923368612134742 0.08183692807214939 0.20752144945686843
P 7.278567962989727 4.326709148827375 10.347252243243739 -0.5992871230102195 0.22987616300298477 -0.7637924739168781
P 6.3739863498065175 8.020182010125616 10.124029048414885 2.6074788717014514 0.6623015190592271 0.35866734833748554
P 2.4804784324592504 8.59922941785137 5.754781583382013 0.8406967405741006 -0.1544824194530178 -1.3773602752158278
P 7.01846680711493 4.07035301222266 1.3282079876097785 0.9499632256121123 -0.5682593071701375 -0.3371605846139613
Ni 5.509369832775589 2.727513024749377 0.3575910236912302 0.0497215355948434 0.6425618745384546 0.06814374685577296
Ni 1.7382356594605006 1.273488791209031 6.972771193641588 -1.1958339642711406 -0.6754771372092367 0.8832353852672594
Ni 6.703529821635838 1.201486011957931 8.939220673367013 0.821181039138676 -1.0367644396680726 1.5043054084805254
Ni 2.618989473638189 1.6969219918922285 9.154321459005228 0.9583740753836268 0.07510655132685129 0.3379267733560245
Ni 6.632875613800729 1.9113812949109446 2.4132548809627945 -0.06913722111729383 0.8180594627905587 1.0023252841535963
Ni 4.461001348346827 7.2095721335175265 10.147274592599583 -2.2684943465048737 -1.0434390234747706 0.37821210323863247
Ni 8.446777064061171 7.196824488848798 0.31142067663158396 -0.22092820978107755 0.7809239913908421 -0.0173397768300282
Ni 7.323562866044895 3.956407839540427 8.16694211686467 1.5509403347302448 -0.5208965016154578 -0.18505232182007483
Ni 3.435139427414675 8.537140460901613 12.345948070158698 -0.9800181360159639 -0.2793778692775382 0.7339095703145166
Ni 0.26965414420267125 5.168081032870507 9.95447170636726 -0.8680046843604341 -0.22425290327893638 0.6132078468563698
Ni 8.702176443918054 2.702163526916352 5.527184643420214 -0.14128134738171153 -0.8357501952021026 0.7520119363421823
Ni 3.5785344839920685 2.8886217491151958 11.698417836816963 0.3165701620571193 0.2053784349719366 -1.2354040132542787
Ni 1.2262614557422564 3.2416923249721474 12.43256735892596 -0.2985205036442601 0.26139788776034983 0.26023909156555824
Ni 3.0615304733709383 8.331009497573545 7.825613224295868 0.6262533671864182 0.290258520745784 0.7558760472832788
Ni 6.09948828286911 8.120477453205451 3.422584956489319 -1.1304595526303887 1.0655201716445262 0.4301776976726462
Ni 3.451978346176512 8.222558842214573 3.5343295886515396 0.0616501687116293 0.9285973583418266 0.4889572297046998
Ni 3.361132014977642 4.728346519598065 9.545567540297563 0.1577837159121089 0.13316591736342873 -0.30641738989383355
Ni 7.428669428770969 6.337410906132269 11.523952788251414 0.7417637762516128 -0.26969715165466457 -1.3339991346213735
Ni 8.326808879852113 0.1608554116268694 2.1956865741120772 0.24417715300668913 -1.763557453542466 0.9368989362289863
Ni 4.739645361191505 0.1961661140001753 1.6276537145461214 -0.014726250466581088 1.4788198626149114 -0.06561301001411925
Ni 6.089838707669552 5.735929830662119 0.1693085852931875 0.688832218359904 -0.3426390912300292 1.0228100343705095
Ni 8.443979689569893 -0.18767284767013856 11.096657935094587 -2.2088727781874993 1.0531071426921539 0.040017935153834304
Ni 0.2596492022110605 5.015182192597987 5.384606019267637 0.22119149074479325 0.3331239526507424 0.9093529082899178
Ni 7.300719159694286 6.4783730669794615 2.4053065103805706 1.2854824179679087 -1.4256088258095707 -0.6340805765403209
P 8.742469570955306 1.671244463174233 3.5400509940035727 0.23452805995269932 1.518436962785901 -0.6897339042385671
P 1.8625229169883426 3.356676262123455 1.231498104342055 0.618544942798567 -0.5572045920178726 0.4849509367587842
P 4.751026210506188 1.8695755810152157 8.23721179960684 -0.5413061756200613 -1.3558008038774974 -0.2625564268448252
P 8.56551513245159 1.7301168950574723 12.192207283948086 0.5212831955309152 -0.8715327521183507 -0.29030274372015813
P 6.453971213925242 8.05626540747241 1.1407766071188548 0.7808152337271198 -1.6642707054249855 0.4892858166887122
P 1.6874728800112626 3.124557963130475 5.941022940718015 0.9861139645010566 1.7932385255466663 -0.9504188250922921
P 7.077749277604382 4.227233782959966 5.800938262488119 0.04733683741275073 -1.1487794339854989 -0.2089864640381691
P 2.575343141999013 8.533787256299687 10.268247826992317 1.2930319481803925 0.17213818486156804 -0.32411197896011923
