# total energy = -340860.5261525752 ev
CRYSTAL
PRIMVEC
9.40437796030195 0.00000000000000 0.00000000000000
0.00000000000000 9.40437796030195 0.00000000000000
0.00000000000000 0.00000000000000 13.76425775399371
PRIMCOORD
 96 1
Ni 0.4437286510938328 2.65842959127835 11.188923692470627 -0.7313127561216178 -2.2365381053132514 2.021030809437429
Ni 5.916313049145298 9.118560206382549 13.58946548802592 -1.2534932666558218 1.0120435398826246 -1.2708482129945016
Ni 9.329923603382623 4.2579826387602004 9.61236623023214 0.046729285735738875 1.794290878070581 1.0042536115245606
Ni 1.7925026722315953 0.3374572980891504 1.4252748749414024 -0.06562612264024181 0.4997741178145457 -0.894123492934673
Ni 2.164756169159468 1.1300394726107184 4.2473745003034225 1.4702364918212742 2.448052992200229 0.7420337420835479
Ni 5.397501724459954 1.9188316827722847 4.678361159557638 1.0380487056971348 1.6101829224416464 0.06600510324621536
Ni 0.06533315485202289 7.3166437517083684 12.12223674210089 0.572979338353626 -1.3739923871848594 -0.06816842944612131
Ni 5.231429812218606 1.1338952676171712 9.18947297874025 0.9577009605760022 0.274312796049805 0.8550190707340436
Ni 9.340936130096173 1.5902991394663633 5.275826000185589 1.454206177831289 -0.11617169679827734 1.950213629514551
Ni 8.851250164276648 8.63478018998754 3.7065080281811693 -0.8359000905164056 -0.04179251055575383 -0.624643342386821
Ni 2.303235636159516 4.88538631695655 2.379000127160704 -0.22525280529836045 3.5059292741462524 -0.5487968275701516
Ni 4.839069754988791 6.861697558459177 3.760175052044155 -0.13988575258576552 0.37413844738989116 -0.37668435374019643
Ni 7.187361766455419 3.768889148758739 7.482071464052297 0.12373691074004498 2.0413939464748134 -0.22037773659424628
Ni 5.941526186736274 5.7683445646781495 13.231980626410568 0.23347262210499142 1.761494143255534 -1.35260749375118
Ni 2.4134643514537486 8.248391912828694 12.18165736446375 -0.6476457168192653 0.877095848028425 -0.3827349308096505
Ni 9.225318706170972 2.5524798680034744 1.3933423092233268 -1.7011557513767925 0.46255431423113885 -1.4228258637477949
Ni 6.092287771488585 0.11009893487694176 3.296828868307735 0.6332925334213867 -2.1424156750055294 0.8202238174317293
Ni 9.304559995742613 3.755835872005186 4.162173656352296 0.7263502699100199 1.0108492624642076 -0.14342359053569492
Ni 4.07954396936401 5.130003594792764 0.46560229403409853 -1.1088435170225097 -0.6747986230849734 1.1237286616644584
Ni 7.68088471852527 7.342693878947087 6.834215144441232 2.2047656979976615 0.4979825731317617 -0.507112817567804
Ni 7.290461963176747 1.616236414168308 7.569598951136586 -0.5572117911067243 -1.5685462207374663 0.3754929045352565
Ni 2.2951290622679004 6.36264483208739 13.554986216727972 -0.22125628254445767 0.9504396510278987 0.045994721562559494
Ni 3.7721336591909984 9.076579062702534 2.66778882832816 -0.0906522123709342 -2.9250049699139367 0.5089472996733816
Ni 6.985919988313413 4.925806333877854 9.500806795441779 0.7013804873385597 1.9597583357801927 0.6671832726315606
P 3.7856383460916483 1.6467348122315444 2.6614427540102223 0.1915219887048185 1.0905053808349543 2.4717714188630917
P 7.750082132324004 7.8046651426104745 0.8775770625930815 0.32460485943613776 0.3607915937693399 -0.03617850680308608
P -0.12773778637475441 4.627019838390008 7.570011803333618 0.06668593136332387 0.42631127273870456 -0.4121118413098709
P 6.8124280217791595 7.777524107516272 4.741924410457919 -0.403072356815422 -1.1528913992713434 -1.1906537056217819
P 1.1231084459771674 6.883233584226926 10.397616751614608 0.5461100247666079 -0.19535936017303776 -1.6017756722145575
P -0.47168034357719746 4.880919237375903 2.1151950967594506 0.6584536060680467 -0.7413832529837425 0.2809696392446903
P 8.735030860155318 9.417826325151685 7.554059156822774 0.4532163246596646 -0.3133413707071765 0.1294892398427899
P 5.430144320721901 0.5642673860601976 6.972780191281667 -0.22431306709291046 0.12409815073420563 0.01832219534795554
Ni 6.784055013158505 8.610883665325597 8.530605072853438 1.0441329642180017 3.6666669304803627 0.9929518133584966
Ni 7.278762916864484 7.584376990827172 12.423550193974673 0.13332558286974455 0.5385147289178532 1.0564194948948387
Ni 3.3267799315676165 1.09038121031264 12.593346239929572 3.2756003398765654 -1.7302184730707038 0.5086505943685692
Ni 0.9614001651577561 4.9931792983320715 11.897742012009328 -0.6202398140024866 0.740540188257157 -1.032912412911834
Ni 2.0045996107207023 5.686723967456185 8.400491740579588 -1.5856404572155918 0.815596603072363 1.1545189075724376
Ni 1.5899793906121695 4.05927753463497 0.11546695387616947 0.23102724588829243 -1.4869075247190522 1.1170707900283083
Ni 6.425522503826766 3.86750345714329 0.5166238663475358 0.23329367332496598 -1.63206892388146 0.44428534071862186
Ni 3.5801620897599635 4.056870013850453 8.103403675770192 1.1902670117063243 -1.3613122206140296 0.02616688820335493
Ni 5.691670670318121 6.442440979964836 6.086706273107293 -1.027639594548669 -0.506778831267153 -0.42421993742731456
Ni 0.007191527905938002 2.1404176387284912 8.771259345773265 1.0528813998345932 -1.2010959840010282 -1.0523638367682262
Ni 1.7045529285722096 0.3917384278397501 10.129998245908194 1.7755115405805486 0.8357332259212381 -0.09301737016900109
Ni 7.8450569463975866 5.689836816595541 4.990080555759812 -0.8971231989929453 -1.1935042876966993 1.6176280658657818
Ni 1.4104027914701713 8.281852689982255 8.314616602721234 -1.3748814746580322 -2.0223004201784724 0.6368447695490194
Ni 0.4010609878151082 -0.13528668064714416 13.048777699086891 -0.7344790696647415 2.0130781302492555 1.1371498201663706
Ni 5.8743507142214115 6.745478254337845 8.390595513542292 -1.0138991050341248 -2.6223925555884904 0.5543676367897097
Ni 0.45861954332119287 6.075312869082128 4.035212671605671 1.4393094632251147 1.3291078679673434 -0.8377050049356283
Ni 6.391459846477076 0.20281293646381296 11.230436498123028 -0.6261384388751087 -0.546260434301543 -0.8094035868877738
Ni 1.6769886964651035 2.8440155880035767 2.4854811977962252 1.931502169147977 -1.2491195630681584 1.2657106346576201
Ni 7.628483523949768 0.6728503351931389 0.9356434545146503 0.9202497577080797 0.05926829874301406 0.9387259621353963
Ni 3.792409498298102 7.508540086114888 9.248438429204787 -0.9296479110935278 0.17132005983564688 -0.050634791437732155
Ni 1.688170501983817 8.442140909713924 4.291902349563309 -0.61759903394553 -2.000183790785091 -0.7486530471722783
Ni 4.4591610943164 5.245621018717966 9.952934496585033 0.14506652545575663 -0.588233179188903 0.8925265807611985
Ni 7.5283363019407 6.551240229793262 2.9022211647205003 -0.34468954600115476 0.7790864239614712 -1.736626947700209
Ni 3.3978864341134476 0.270608157493127 8.09427860773419 0.3393390803225188 -0.6365084692555231 0.8467599160490449
P 3.817989406633595 9.35882325717489 10.665703595348639 0.7316703965713528 -0.44306200983448213 -0.43853172606429636
P 3.7804095118877754 6.266155913145419 7.158446125220442 1.6067535850451231 0.5325286865377473 1.4233565394402843
P 6.405886162428049 6.952543850562434 10.685647459910065 -1.0551897362527958 -0.714803445612685 -1.9654283895817766
P 0.4272314910930528 1.1034909133345798 3.005027004408407 -0.6815164014247811 -0.9942497062343135 -0.19153124467619917
P 0.7379671893496778 7.451709429470997 6.051180294530765 -0.19065758382199421 -0.9648907934562221 -0.4589935934630741
P 2.4264612019389142 2.0895493577775057 8.82544925305664 -0.6388805690321255 0.43951260192032693 -1.2415021557322168
P 8.261605064009345 3.987813665722687 12.016403633114015 0.3429635644489835 -0.594327207901783 -0.1938238973651178
P 2.178364304218827 3.4663314976670203 4.855424908880797 0.33213562059554413 0.17269405736503807 -0.7743260264583502
Ni 4.382148642346051 2.7017085391312685 11.400866399159476 -0.9688119828874991 0.15105925270408177 -0.6135600879894659
Ni 8.976055665570886 0.2752228858093867 10.51909968613865 -2.112713519955407 -0.3562821359347606 0.5397761121287801
Ni 7.4817470130090715 0.18062988948522452 5.522936378646708 -0.5861369587815066 0.8964932787184303 0.8069250434402941
Ni 2.2422106268988498 3.622425364781914 10.307983624281674 1.751062406399249 1.0027569723743763 -0.30181434390418344
Ni 3.615644808197395 2.0096215486071554 6.447673575919935 -0.5075110814474872 0.22671859121060955 -0.042637375054552375
Ni 8.629222202551409 6.766431208665595 9.125069916878807 0.2686345147181051 0.12681606388600095 0.209264143179588
Ni 4.93861509680173 3.9840801276310724 6.1306416465491145 0.5197096803962082 0.8036630848595707 -0.8772472860046248
Ni 1.3663150671037043 0.7679314187388495 7.040060052393046 -0.32831958928356364 1.0377165191686966 -0.7573698582199859
Ni 6.779898278053986 4.091205398164013 3.0678332028744935 0.9282052651097304 0.6794263516649719 0.6061247147573433
Ni 8.030849839440231 2.0002453836768295 3.589787470708999 -3.4844906446565025 -1.106446991765875 -1.2845465364172004
Ni 4.192424719272436 6.9076661584385475 11.736782319683853 1.5255404065999016 -0.40049148346212315 0.11985454496650326
Ni 8.23470854274482 5.415934305466413 -0.07527546334183281 1.3561782418215742 0.6586654649685366 0.31540390966316006
Ni 1.5577317782289326 3.2909680598979265 6.9307576683381695 -0.715744983590348 -0.10619941607691387 0.30722728738963867
Ni 5.464357448120623 7.716442671987219 1.531659080482859 1.1500343894385225 -1.5999188215114768 0.7524618793954073
Ni 2.8011786459196903 8.260100363519022 6.259543694928256 -0.5032548772742946 -2.268638328281906 1.9690860409390216
Ni 5.981852159876934 2.052543130093622 2.2587143699642747 -0.6381431766454687 0.8069643813186618 -1.5610663674206533
Ni 6.1802751326602285 3.9265253338762136 11.421994274919225 0.6239946530592286 1.331980561529448 1.9578048115982476
Ni 0.9077350221703824 7.421878742250341 1.3711160021056414 -0.9211856392587877 -0.1205669976524956 0.47110888866936934
Ni 3.8130144906374643 2.822300879052601 1.0759708818043767 -0.5207725744430838 1.1297707540934803 -2.4757766833677426
Ni 7.863743445611786 1.6146470742754042 12.391438004635564 -0.2018339121537879 0.7203066348191015 0.5876554523085621
Ni 4.166346378899524 3.9097573277871756 3.358025037249176 0.3680860705482242 -0.5636452054368939 0.649574815521178
Ni 4.213104946636314 0.05225448627769572 5.222792831404152 1.321087311655712 -0.5158262861814019 -1.24413985046538
Ni 7.465750165921324 2.524041028736368 10.046008685851776 1.040656575633627 -1.5013033884294078 0.259710729865914
Ni 2.2673391250872457 5.513899711764512 5.948485426504018 -1.153392250167162 -0.19132709908519308 -1.1319875592391406
P 3.7992464811510076 8.359194295184864 0.381408658973682 -1.2767998025922462 0.2831617618000027 -1.0482007065294723
P 2.6134954728860764 7.132844586815401 2.824370782664602 -0.3888004202774401 -1.0013477507316755 -0.018555651515000302
P 1.5755530746611968 1.7194024415360858 13.143145930775313 -3.424476211776083 1.8449138424337712 1.0169080670637776
P 7.061117395317311 3.5767106830102846 5.365734675795815 -0.2681956274084736 -0.5127003389579106 -1.381369653485537
P 3.31272038636116 4.799975755374584 12.293299557781078 -0.2633393277574368 -0.6809348178896983 -2.2149673211210112
P 5.694633049408446 3.269328585971467 9.227861649999618 -2.363561143003736 0.57007219200916 -0.5124943935946916
P 5.489768077650955 5.4962759072716025 1.9857278452586309 0.536460674602302 -0.03354209762150352 1.0400158567258349
P 5.5186959445774155 1.915756451145187 13.752585365992816 0.6531548195629526 -0.5165073714088266 -0.7342412426223226
