# total energy = -340887.81964801607 ev
CRYSTAL
PRIMVEC
9.12718052926326 0.00000000000000 0.00000000000000
0.00000000000000 9.12718052926326 0.00000000000000
0.00000000000000 0.00000000000000 13.35855129412498
PRIMCOORD
 96 1
Ni 6.708842553188206 2.253062693104613 11.769912362461703 -1.1959324375222178 0.1293059201873902 -0.23706702432446913
Ni 4.837706716633114 0.7278798449569887 6.36406697102987 -0.6520477025417029 -0.4498697767849349 -1.1818253086968742
Ni 2.6656933839338004 1.8235923547587847 5.370124346182034 0.7478012406949444 -0.25372237349296306 -3.148085707261643
Ni 3.9651939229456596 4.791787872917004 5.251272943435448 -0.5127522752417686 -0.9483112918309862 0.4266316321926007
Ni 3.7692333634972615 3.29570612620139 2.7876754094978438 -0.7562812531414974 -0.6437859767535429 -0.11096881244109923
Ni 5.289346975747464 4.839349609073762 2.606306473076467 1.4027823148333582 0.9755688419953584 0.22701709628763483
Ni 5.533562937049783 3.2217120761106512 0.5589567314915428 0.04565507883495363 -0.056199944230335475 -0.00030724682777366445
Ni 5.351220130498312 8.269444336920156 12.649359074966714 2.0181367757190856 0.5888124487311408 1.7249603099955584
Ni 2.464722002541426 5.16599313499548 11.6544270637824 -0.9975497171418238 1.1763213481595096 0.3365903139327881
Ni 0.8949556171447282 7.723401652730128 11.293986502202486 -0.384881287728692 -0.2462006111946211 1.2887978554943866
Ni 0.6053291960648766 0.06928990140235033 4.73250683735029 0.8415125516071765 1.0697591494265384 0.9263579274883466
Ni 8.881805112631005 2.56098637238317 1.7884965213544541 0.09898927148171985 -0.5703408722895145 -0.3515158248943688
Ni 1.8616709506609141 1.5036207975821427 2.883723465168236 -0.04893426380685766 0.12684666001362024 0.06603569937383465
Ni 2.0249562049008696 6.883710199134729 0.7166598023053856 -0.21257675249258873 -0.8493986392234726 -0.5890592746346242
Ni 7.827697941170595 4.419490191505724 3.8695182562284804 -0.625661242128374 -0.6163757030613901 -0.3102539900311044
Ni 7.780163586554515 4.094553448286235 12.849469763263794 0.31981155181255244 1.2124877707777377 0.08207038423919415
Ni 8.196618565898321 9.210602653086017 6.939032776637505 -0.027862016517590724 1.3707967630656974 -0.007113985336961942
Ni 7.059855650312868 1.0412652288826776 0.40562284185180086 -0.5449211466648294 -0.9711491156611081 0.9538916141322411
Ni 1.9931479818138802 6.776027726830481 9.410003246761528 0.20800790217498372 -0.09478140404795934 0.02674924306938619
Ni 0.17685280764564007 4.9983815973284855 1.7534298949268459 -0.9853704014668127 0.6030974978952451 -1.1547135400817468
Ni 6.591275344699392 2.3577970861959203 7.18523024876685 0.6729098907026927 -1.06274055201686 0.6056318342813247
Ni 3.4348408615638206 4.374465811451744 0.3752402843160845 0.18628002357958887 0.1639620768086789 0.5293158360274045
Ni 6.274717352927207 5.958679610427896 4.78922769886366 -0.913252243344324 -0.09172616216140331 0.9399189540022328
Ni 5.122310450434696 3.0426824359811526 9.767812442282336 2.1021951369225857 0.2918405205209232 -0.7236295285447473
P 0.3626831097613986 5.992541449065695 12.793030018901378 0.3266946520856309 -0.9992546156480727 -0.4301216476237302
P 3.9269601649796915 6.384845909531976 12.916022423316422 0.14212955431461974 0.8920097890257799 0.12501243501835888
P 2.403223062179837 8.81673744480112 1.7565157945611962 1.2945488990455511 -0.3772268565072278 0.0990419790965262
P 6.478061801178296 8.316093355054331 5.9978160465181976 -0.6277767458094802 -1.4272502180677353 -0.3603431933780117
P 4.885286707150324 1.4685724255149861 12.739114852589426 -0.36172079045182864 -0.641169107955986 1.4648808839363159
P 4.3605833703282695 6.440193130421361 8.358071082348932 1.3929645574119882 0.746426986055237 0.7290072479168929
P 4.432368642804359 1.6403277030045047 3.8040480797506366 0.6452229663103856 -1.2700069480401288 1.7133461227953977
P 0.3158387699703898 5.8767540407209164 3.83331620858078 0.768657001098031 -0.43543586074779206 0.004430782077843982
Ni 0.7213009734502162 7.729452973219848 2.8754551526016643 0.9978181403118622 0.01713048903269953 -1.1296375709497255
Ni 1.9586289861998214 7.000364689600961 4.9451482313794 0.012381918604120612 -1.416090087685858 0.25583222074711426
Ni 6.281334558590928 6.220355867502212 9.629458080829215 0.06980082284322173 -0.3322191814482859 -0.13038398374291738
Ni 8.722097713039572 2.8172137028626714 10.70257716870001 1.1214851170459201 0.3323215113541051 -0.7741475918989571
Ni 2.7454923206481623 5.83126417447542 7.247561587965033 -1.7420527467014708 -0.9834276759181451 -0.8856591642174036
Ni 0.5861000527651148 0.5901077976022733 9.553314579795293 1.5989461731855623 -0.19225501021610114 0.061600032199984237
Ni 1.5119812946689957 1.43280300620999 11.676749408460692 0.58566387579983 -0.047420398265492526 -0.9523746632670824
Ni 4.279059396551227 7.484406438516979 1.663861224498764 -0.7726021017887081 -2.1592229763708555 -0.0950984210677459
Ni 6.088495494779762 8.520870770600874 8.205943805935044 -0.6125416740272807 -1.3232956321609404 0.0018342249952613575
Ni 6.729323945614951 0.8237636113833166 4.538767833568857 1.2697421244145166 0.32910094753427843 1.4618685794725534
Ni 0.7724998909269647 7.693793080077561 7.031326823081017 0.9011906841940995 0.5743949877542301 -0.6895755242838317
Ni 5.626915736399491 4.367355738055829 7.848830101547442 -0.859448567260307 2.3723412031892113 -0.05312104819469561
Ni 8.503419602009103 7.841288312526846 9.120791199663929 -0.9414083940635658 -0.9166067616388537 0.5992300445200389
Ni 4.688176122993473 0.8071603578345237 10.674724665522893 0.5816737808038305 -2.0025882864615254 0.2333083286129853
Ni 8.216251130564064 7.425773432746299 4.741991803040964 -0.42686817368343904 0.6296109708047415 1.927510274379764
Ni 7.317114352157887 6.454331132591159 7.314300442494266 0.3909287794743525 -0.09743375406914188 -0.6866951174122432
Ni 2.249174514328413 5.317568217005706 2.760972018311156 1.818508870077681 1.7045899738693222 0.8080887247310923
Ni 3.518911318623867 4.854765416475176 9.628322659609122 0.8108881418531003 -0.3433232617812474 -0.8831237993900597
Ni 0.9806607521832194 3.594320081649608 3.9555875657579818 0.7644347354865674 -0.14808345790520946 0.5149371987082293
Ni 0.8838149809610898 0.3566755997367626 0.5263024187976193 -1.7205177008431722 -0.024213106911093785 -0.39887040291893244
Ni 1.2882102170725176 4.1301494511669405 8.376305363004079 -0.3909123244141203 -0.26285724591469567 0.2282496831431553
Ni 5.967907189636201 3.0123619432709714 4.904885501249232 -0.9768934743440529 1.125233785455075 0.8655518519445673
Ni 4.19675961245499 7.2857351065415115 6.1166802273171 1.0634064677356332 0.8439653840230432 -0.033830575396199804
Ni 8.700849637473858 7.62172486501447 0.597638634006599 -1.2037357356167202 -0.2468577851626458 0.6384581367827262
P 0.3215633374080254 6.0344717150231215 8.14271800307473 -0.9880325216800081 -0.5325412849432377 1.3742068171885107
P 8.66112814913108 1.8617074593818173 8.315110357744011 -0.5741553609395983 1.5918386156065036 -1.3264087238686253
P 1.811170262471441 3.4505669930929117 10.380996489649558 -0.043739606979795634 -0.3968119777280069 1.0642377053876768
P 4.16333587846803 6.270500595662878 3.8103531358506344 -0.3515947577614203 1.7264919161487362 -0.3697768279870858
P 6.848132450614475 4.177875476567764 10.625123917303684 0.3945368085405851 0.6242448213968217 0.2973894753636104
P 6.50269606060779 8.235646388543937 10.578769707090803 0.339265546772106 0.32899913184909146 -0.1260935838976796
P 2.4985199509176446 8.881157082834973 6.092474032640197 -0.07868269871388385 0.13608257678959143 -0.1909766577243098
P 7.230597810797321 4.160999320330219 1.6784081243426794 -0.7219778518739371 0.5338584610927645 -0.20202520222898754
Ni 2.7470530684667773 1.7234489333210656 0.3826743726100166 1.6935290880694707 1.8018640624321483 1.1400047731166623
Ni 1.6377447110005972 1.8155513089798356 7.324506455422781 -1.5994624507003485 -0.7606914663940513 1.5002096411445969
Ni 7.016127329850955 1.0784858698435797 9.679645706736942 -0.12680012304640098 0.24910312955339678 -1.163435493335777
Ni 3.1232024199333543 1.8792042638747182 9.335864074505198 -2.323457590114631 -0.07791676708213677 -0.6318920535294343
Ni 6.561338193558696 2.2934322112434242 2.772647507256028 -0.1620949416929531 0.5247405579518962 -1.4807415051176562
Ni 4.402057277274404 7.47920394578826 10.79288057713627 -1.5438371480265607 -1.7390108745513535 -1.5796024785516278
Ni 7.655796628797464 6.965142901109513 11.903671188671124 -0.9587384007015811 -0.6121912326663973 -0.23831940867433152
Ni 7.893103314668837 4.200912479457739 8.72684749762909 0.3713858243454185 -0.15369771876819335 -1.059315585495711
Ni 3.0726287143020743 8.758935012430989 12.806174983862608 -0.10957064654199193 -0.6490703650809339 -0.8780767238844556
Ni 9.133295436573304 5.466505543930669 10.572077658549231 0.18035774455788292 -0.6990482396609574 -0.19073497402714892
Ni 8.769011419400297 2.8972134375420016 5.940708192563252 -0.2835613112312665 -1.9910314348618614 0.8834744978612591
Ni 3.697046495091235 2.766420944905972 11.468382272931334 -1.3877506173112164 1.6527683612123405 2.0446250518176012
Ni 1.125746409052886 3.6355840634505494 12.971486472112696 -0.32919119325523954 0.21279786736445935 0.12473115633251423
Ni 2.968597114088155 8.750556260983686 8.28598826379748 0.747032737960036 -0.2225837431066296 -0.3881288481317122
Ni 5.538372961028792 8.146044860267041 3.9217229889661143 0.22062764782152325 -1.3333036512162457 -0.5031594893470109
Ni 3.232253969271475 8.56758367899663 3.7682731841375046 -0.1670718260822542 0.932686955030168 0.35318344240477884
Ni 3.904534683164847 2.985810975994055 6.995792885025846 0.8953519660251354 -0.16383557853314365 1.1248095534334628
Ni 5.07410981166213 4.8934007703710805 11.73276200078854 0.24994542294903405 -0.22881763983148337 -0.4211086454918425
Ni 8.04265216266893 9.250032071661568 2.5141858430572457 0.029614223322007065 0.5737159594093345 0.21313802431269746
Ni 4.822236146150345 0.49312785683082416 1.9971037017237512 0.24445046127273387 2.426401989589357 -0.6289196011646717
Ni 5.900703761633474 5.921194281240444 0.510685813431238 0.7888437604585511 0.3574329617097522 -0.02755914056519125
Ni 8.319935897929403 0.24338995149188244 11.53305108298535 -0.27572793122977673 -0.3102581037961625 0.6357060279588859
Ni 0.11251348879777558 5.111795938814549 5.953278145170254 1.1828146691933372 1.840430609851437 0.6205249493430732
Ni 7.484287785174042 6.831557491324382 2.6702943954856373 -0.6569029737514751 -1.153506664257839 -1.218314918982476
P 8.703341357675509 1.8352751454478369 4.02351569187064 -0.27234615924173744 -0.027590765134075063 -1.0359409153255126
P 1.9079275000453801 3.465791129709583 1.7290502838256525 -0.4999656650000615 -0.826937224896163 -0.5071017618242105
P 4.974796963624961 1.2227500804929223 8.435965176550166 0.128287763335521 1.4758769779365033 -0.12203381200600917
P 8.831249661360177 1.922028993494275 12.831849741837846 -0.6282806820290922 0.7841329852464431 0.14484901012831183
P 6.3972497474588685 8.159890792669612 1.3127303867491884 0.8380323063680599 -0.4788808193053043 0.21272433381404657
P 2.057814053713829 3.8557407776776023 6.338779205496207 -0.37795884957724585 -0.4185725093335501 -1.3283645620434157
P 7.140968900979749 4.4797934712577305 6.280054927923269 -0.8785968580539836 -0.5372762285250618 -0.4778369514218223
P 2.560320088226685 8.75867032420444 10.500796206421606 0.3287538486075048 0.7650230038898695 -0.18658084264945932
