# total energy = -340873.66847042367 ev
CRYSTAL
PRIMVEC
9.26981839285168 0.00000000000000 0.00000000000000

0.00000000000000 9.26981839285168 0.00000000000000

0.00000000000000 0.00000000000000 13.56731622554080

PRIMCOORD
 96 1
Ni 9.07213947838592 4.086182279888528 3.637248684892806 -0.3645585170109399 -0.8592089404456751 -0.6926587911948459
Ni 8.662997505660021 5.47287294722008 10.94247457554275 -0.39796537460615977 1.0624973256578023 1.059417144070582
Ni 5.23402680749025 4.283536712662264 6.795312649570828 0.5469546321550903 0.5667577829239465 1.1554769006103325
Ni 7.69004664095835 3.814029682809894 5.66396098278597 -0.6427469939660673 0.3377501385688441 -0.46562292585413356
Ni 3.6501671037520578 3.8630206728150234 4.978798117781978 0.2651640396710014 1.3790587459641734 -0.9024641515898845
Ni 7.440169417386305 0.4336124392189057 3.085330188920739 0.28461366375518077 -0.6751426366879534 -0.7634584876162271
Ni 0.010919846021956845 3.3258810482460173 0.15823301837096498 -0.9810406637432072 -1.2569763401084157 0.04410444651838211
Ni 5.2320801456357415 0.48697600254199475 2.336807188479839 -0.6182317824335224 0.2515114818845733 -3.7539466268346384
Ni 5.526322719853869 1.6732300224968388 12.826907212453566 -0.31094767366401926 1.3923289807105181 -0.25683957896570603
Ni 0.3000936835636785 7.69894566657896 9.669263170547016 -0.8259062125284873 1.713655169395384 0.10038255228482067
Ni 4.217572685249493 1.8712518821921207 6.257476861643376 0.1865867561867303 -0.31959686469858506 0.06470489637755308
Ni 3.7699053474410364 5.743449675178398 9.375965190819242 0.7456916505511093 0.5187316327536551 -1.5854687075244178
Ni 7.523384576757364 3.3759287975435934 10.380814427461624 -0.9186741856908436 0.6288496671586846 -0.914410011097851
Ni 3.7718334696588354 1.7813531837872503 3.6956012644544494 0.47834628695807296 0.3415790253966311 0.9701723535701355
Ni 2.6329806658612718 8.060366614414338 9.767640044819187 0.3821016681010258 0.3308312999618238 -1.2829897334530418
Ni 4.5096461219725965 5.412229795542966 3.0743806794800466 0.33382612092408964 -2.688180657727893 0.7941772568563225
Ni 8.75944069582338 1.5591000189125157 4.74720375695111 1.5681407577689315 0.5083130085234923 -0.2043505079280545
Ni 2.5679250806472704 5.172447404159301 6.849731118222694 0.6939330299215791 -0.7144689450914018 -1.7173467593143585
Ni 8.868416680402436 7.564718696801426 1.2365390766023032 1.416816424328921 -0.5705995252675399 1.4977601511628398
Ni 6.5659328483449215 1.7928199490921404 5.656553470938649 -1.2163827349567695 -0.9550509245476648 -1.423522118483871
Ni 1.5787056847329222 1.349694822277537 2.8864601408459927 -0.4546098625730816 0.3169092905640929 0.22684354682424804
Ni 5.677012887029532 7.360245043531202 3.948685845177256 1.121068598333792 1.1493450766809818 -0.6065947124152262
Ni 3.859294205836393 4.397685255883298 0.2164002015655125 2.033842616490116 1.648042930712213 0.2838580165360789
Ni 4.9956256190414505 3.2341191163518315 9.494096048005499 0.27432488023466306 0.9595251582689345 -0.4955382253563273
P 3.0338354209779776 3.517775558008775 2.7931844476144674 0.5277559477394523 1.4988988927529734 -0.3576630754426872
P 8.65044617160762 2.156206098418737 6.905018168854404 -0.31277084291568713 0.7919810205359522 -0.05027535121578438
P 0.806639199634496 5.6729990556819025 12.942758621306375 -1.316808995995332 -0.3973801915266511 0.5835473436774595
P 1.5285281579783787 1.6235716055701641 13.015600853938409 0.840557643893075 1.1357349420967149 -1.1547389940030437
P 3.135701454878898 7.409384350630008 7.440262115569854 0.2620352642340326 -0.40889333437257325 0.4023910144776812
P 5.3556468243052535 0.3299907017215862 4.301165126227592 1.0078593265979479 0.26584281090558093 2.7443723744281123
P 2.0912524812066384 8.256840414444369 1.8243558711351773 -0.2044430676418608 -0.36145570971590013 0.10054504600461393
P 1.3900556113943452 0.7485990129514092 9.524350881151902 1.9104772301568773 -0.6078874630847209 1.2125872724700795
Ni 4.298933880949591 6.628680248788577 5.661885470456331 -1.2729632024549755 -0.7034329989922142 0.47050699341931224
Ni 7.168814024686184 8.103202445031878 9.156391930430882 0.43025457365716874 -0.06738141476845169 -0.5896002347397588
Ni 2.705730200309758 6.758457705755807 13.34235638905417 -1.0395921389248548 0.8663728051839659 -0.5633389870503847
Ni 2.7000663412949746 0.33957383993678053 7.574496501202072 0.972942460116105 -0.6472091435024789 0.06758170370471586
Ni 0.4777849776432085 2.940710825785636 11.041990710490728 0.2228061435300808 0.007621521100999777 -0.06190702191744177
Ni 5.150477934658419 3.0613482418550304 1.512389404222668 0.3501721663822808 -0.18559919546248035 0.34514643103291526
Ni 0.7597709980326167 8.493600845044368 3.699725406640501 -0.9625636879849423 -0.4143271037936348 -1.2387389911647828
Ni 3.988747219161204 4.775402544386417 11.466308302845274 -0.1328111051271713 -0.39010911178653457 0.5371489589185782
Ni 2.133050092168441 9.2379209098432 11.739228440883688 1.3203666314396034 0.31492337048231567 -0.33326767731745827
Ni 1.9639593355584963 3.882987861551267 12.721394432011866 0.8811900727024566 0.09606515585638939 -1.3048765062238044
Ni 0.5414908773047503 0.19543558037429215 6.694167807537911 -1.1735093326320114 0.09490738810286235 0.8298343439382998
Ni 1.553241493712281 7.319087050035881 5.551176029844929 -0.07502607579790306 0.22730505984169883 3.1127608067081036
Ni 9.223636119758451 0.80530527277324 11.77447692517782 -1.8849225216162246 -0.3130436369610996 -0.5542604217878843
Ni 8.716632674660907 5.9569521315262 5.311224000785371 -0.7496704326931991 1.0477967862228341 -0.046703060483493763
Ni 1.7437269910851088 2.683482636258234 5.694975941037468 -0.3738108888471433 -0.6569775357431524 -0.48758374639594093
Ni 6.629597960805702 2.803925386142177 3.2976451815372902 0.8868390434581177 -0.09454614810870168 0.5562409425530227
Ni 2.6246470991603044 3.571549774284982 9.92517041095886 -0.7070921930113564 -0.3055090191469512 -0.5119092105151829
Ni 6.382649999833775 7.645505163763526 1.368317887352334 0.7657012609038167 -1.4221077546348475 1.475626295378278
Ni 2.8366756543896927 2.442170724846026 0.9094730025716573 -0.029684928658942428 -0.4592429904697188 0.5747960798473907
Ni 7.424447805456561 1.6775590276685315 0.7506661824445301 -0.027186330606804792 -0.24285714864368496 0.9825722698963851
Ni 6.64115742429414 2.6804328660195034 7.847878276194552 0.6865531925177403 -0.6911503249701194 0.08580388313969739
Ni 6.692577106708228 7.086182863871479 7.13913577424145 -1.0766152531164233 -1.1231252237525045 -2.054749541846113
Ni 4.062423735445171 7.04539566311035 1.7524628679026741 -0.81256707221742 2.030488612416219 -0.6968406904866774
Ni 7.927928719579281 4.7193664924316385 7.8892040534020955 0.41779243663441595 0.4834000473318965 0.8696872142691796
P 5.889588361541853 5.311642996575007 5.023895784078091 0.5132695811978192 -0.5693476551383098 -1.2606633020416997
P 0.4287569083646604 4.447028498985909 9.469213074595702 0.7249217649936095 -0.43109069640521885 -1.409572084061682
P 7.9155442422572655 8.0993832798697 10.99516978496246 0.48752589657481205 -0.3421135577438624 2.902237594310434
P 5.42746937691826 0.7048176608616791 8.135424333633171 -1.0177228496555892 0.5523691183024423 -0.6406559157649935
P 7.646700970331296 2.423149057581972 12.284214039708198 0.051432861858995295 0.5069153568450173 -0.03955436525385446
P 1.8739493993333682 0.41213241612715834 5.17684037107764 1.4974536756660144 0.9798898379682156 -1.34526493734318
P 8.770675715669404 2.1470753273392567 2.5544949678148337 -0.3451420601575411 0.5438235427252763 -0.8479428806135525
P 4.180104079459383 2.470629067195268 11.374213584472152 -0.26639585519557346 1.181357110811204 -0.09713704876432948
Ni 9.170816694772789 5.245363795338173 1.4623527787071176 -1.070272084507215 0.18851354089579792 -0.16703197398325426
Ni 7.438853103179924 6.097436228693225 12.962214116069433 1.4892359157419126 0.7197294221593928 1.2008206188524546
Ni 3.314757266220255 8.70430381624902 3.773328691359465 -0.1429312242803087 -0.17332012098481117 0.13082724192792308
Ni 1.4129520627307064 6.204641677966511 8.401777732349041 -1.0342211044209286 -0.04327500863855128 0.4338728871360463
Ni 0.4571716825676352 7.716966193460696 12.286235787091378 -0.4696179059461396 -0.7601186246097167 0.33284653061963965
Ni 7.750902998457626 8.665880419168365 5.1989006847983985 -0.04660278746020361 -1.6072078989737224 -1.4884262753564237
Ni 1.7551195978431604 6.166487105618145 10.90848864050854 0.9094223280752725 -1.428273002905295 0.2934379469150301
Ni 4.939098266713867 7.970504995282887 8.962718542525836 -1.1414368775774988 -0.20331152514057887 -0.2981842033507639
Ni 8.716743912481164 0.9291324333385216 8.859959825117349 0.5961151530401412 0.763198291976305 1.219716684426009
Ni 0.4631599852248373 0.4677364945466031 0.7828556266815803 -0.03473303260581115 -0.24642326872838852 1.1344455338613302
Ni 7.3932548666926525 0.21745510689428899 7.210933298344899 -1.2603113180189198 0.30437079177744997 0.6783174348715092
Ni 5.873329100147529 8.774698816835386 11.495587024118917 -0.8336771147231579 -0.5147441088608168 -0.3063849939940014
Ni 6.971264925726998 5.346516053225773 2.913106233706871 0.7403339857836218 0.617475363883472 0.47142796257168484
Ni 6.220724812812093 6.122455468432835 10.881489367568344 -0.39177415819378336 0.40282553091193857 -0.8676079631426478
Ni 1.3345757485408545 2.445628367092367 8.023710971693944 -0.2928676762338569 0.2599675830717264 1.0532200141209345
Ni 3.796602424302866 1.0597534437760376 9.824568780281535 -0.2298548228467461 -0.526959419980086 -0.32741276119857804
Ni 7.723084273574865 8.592945488352782 13.211798413381466 -1.159956790758557 1.4137377854035975 -1.5471826674600258
Ni 3.4102549349114257 0.1154759812094404 0.3335632897155269 -0.6923230051219819 -0.21194477533554468 0.48136424784879034
Ni 2.4599595062688913 6.4830792118897005 3.747333339747094 -0.12491421887759777 -1.6249456825731177 -1.394797496855669
Ni 5.02166453880009 6.610696801180262 12.97108718619865 0.9515519102554708 0.5651261608577944 1.3109337681614777
Ni 6.068291919785728 4.2678521800059395 12.481401615751547 0.30676423171029105 -1.7684754596693737 0.12256268792628569
Ni 6.618789352604003 1.2363527532533718 9.760897178947905 -0.7374116699305042 -0.40958521823327526 1.9495883372257263
Ni 2.211917706731097 5.240803044707611 1.5743238415966072 0.07300236049965492 -0.5966232030248112 0.7887265181543964
Ni 4.974749988106437 8.814929828495227 6.296157032692459 0.18267816516094346 -0.09797959927028287 0.30759649780359927
P 1.23621370597805 4.803110031448921 5.006312792622702 1.5661525236943092 1.0968734891448269 0.36423044424755985
P 8.06312902028407 7.493934363844158 3.2752048052639853 -0.8038880563861832 -0.8099111226518115 0.006024608927525108
P 3.958907673877096 7.046915913320537 11.238188269933785 -0.8240249363453743 0.60572645087766 -1.2972231034436046
P 5.5363248538587015 9.08289246767749 0.13918539561551765 0.24502510282928125 -1.0995600348380548 -0.005382347357835892
P 5.998462378119004 5.235166995147891 0.9565785115234196 -0.5024434371165928 -0.3149732498836446 0.20599035752432265
P 8.720998759106019 7.607072496864517 6.94208353754608 1.198445947972691 -0.8340902910011765 0.5307397129581247
P 6.217100313835365 5.824727442513303 8.770605265049905 -0.8507325275435478 -0.8405728134017265 0.15750912209448356
P 3.3699126854313275 3.306071446421805 7.553223195059636 -0.1916870535277731 0.3173823735457695 1.1876059199343934
