# total energy = -340863.97000939853 ev
CRYSTAL
PRIMVEC
9.26925544214150 0.00000000000000 0.00000000000000

0.00000000000000 9.26925544214150 0.00000000000000

0.00000000000000 0.00000000000000 13.56649229027337

PRIMCOORD
 96 1
Ni 3.968474083744285 8.211253239884869 2.6891907890572364 -0.8958294198821862 0.9211686699779232 -0.12548808910319678
Ni 0.30418822459102157 0.9617037769493056 5.598606107328635 0.203893622896294 -1.519465146940099 -0.29055368338869964
Ni 2.0421559836782546 2.598329840804018 8.18387742125157 -1.401830235332734 0.16313855246611905 0.31278601242433873
Ni 1.9939095097883908 3.0082533876446202 12.594751741666988 1.9729792053458408 1.2915291383826208 -0.7866030440534905
Ni 3.8314559517481346 2.850555547051296 5.557744449144449 -1.1261601539240862 -0.14936978081680083 1.5687984459575885
Ni 6.44034347435053 0.631619106872501 8.420300901045929 -2.54369365892469 5.19505740493455 1.200517485789739
Ni 5.233078585722018 6.534565454579246 9.146311615519323 0.8415184651444475 -0.35073163843017663 0.5905317454150927
Ni 4.929538282077183 8.256561359841383 7.545588158257811 -0.7518299022383633 0.7085806046314249 -0.7731209504066556
Ni 8.445691245191773 4.605957848451583 10.295325723001616 0.7614558553639016 1.3638745820245672 0.12796483277846352
Ni 5.614805057908832 0.06315607105640464 4.3405308687914435 0.7153431201662389 -2.525208198525993 0.6396449580019758
Ni 2.5954471024025296 6.152468212180021 3.0701247399150238 0.00991571645181518 -0.7393626230092879 0.12351733853007113
Ni 7.19288650522399 0.8200575057767459 6.244927180048728 0.0077490478177995575 -1.5646527992203312 -0.20530670119373673
Ni 2.346929098279353 7.989421421799909 7.987340473982758 -0.46629166978638403 1.2112636685626494 -0.5001662110466418
Ni 0.4536735049794618 4.20664759894122 2.9820232489676672 -0.36092837645752035 0.8145920730672487 -0.0812345186014601
Ni 5.315649112025746 1.8971570228599763 12.862309723122955 -0.0743043671405301 0.6645304083897459 0.47357663348357154
Ni 5.756355855751696 8.89693713220548 12.909277039780003 0.9739986692947612 1.343947246973021 0.20540388889323333
Ni 2.625414604820576 8.67582831603472 10.277635349242 0.45866860602348747 -0.10439784409180085 0.8233700763701948
Ni 6.507369459498966 3.8839384753147836 13.508495464715518 4.357624936934017 0.5246310289572256 2.739418372856947
Ni 1.2587092556004127 2.721091858133001 4.8303906195766 2.3433790116289064 2.985485029576865 3.053357525049122
Ni 7.619568865665529 6.826936305575226 3.147128151479414 -1.3889240687940274 0.8299826965907061 -0.38550375180403934
Ni 0.23449362083876488 2.464277870507148 10.264340456350505 0.6471070707069759 -0.19733448162153758 -0.9637764773461208
Ni 5.274901465681877 1.02834045337471 10.30653225267171 -0.16580272956184347 -0.635252485361235 0.9700985629094067
Ni 6.272949992702682 2.242446052422188 4.65839402574168 -0.7715785456202001 0.4168226165219789 -1.8302122745575384
Ni 1.4807913435787496 4.723593967593995 0.8564782637417895 1.3493794737321858 0.38397625941591934 1.2551315735901931
P 1.1498511212368085 4.1312978225241785 6.563143495626285 -0.7112920900253169 0.6200148424758741 0.3597225290748773
P 1.3839554333525428 8.32842589626177 12.651106960102261 1.1756695735081235 0.3835623118069523 -0.5310328187185113
P 4.304225049592247 0.6693607337192556 0.7044003726430716 0.2807914617956132 0.03603683901889923 1.7668698057451504
P 7.859308885009897 2.1819734307781014 2.6191059496564177 -1.4947445042649674 -0.09779962204899285 -0.8394528408646704
P 4.9742346311832195 1.0256709078453574 6.327995465362616 1.0560230307873684 -0.23092285909994423 0.116826813883773
P 8.066903126938309 5.1578771173899405 12.498795483769722 -1.1221080953418998 2.0403979011101314 -1.9783206721634121
P 7.830055115250739 7.992322698712018 5.740878053234637 0.5211268724587089 -0.701740698891456 -0.17562305808637496
P 6.150354821969284 4.544493416489299 8.526526566901422 0.16571865448846942 0.935630353929208 0.8254369862015525
Ni 1.0913343124631851 8.652163907227644 3.0998753417588096 -0.12403978669244442 -0.6336612296147152 1.3448607599262257
Ni 3.650334702985803 6.216147996161456 11.43328346274984 -0.7674876633802782 0.5070421122308687 -0.29402107311200976
Ni 7.978270507661676 0.2587308696240128 3.870859556072017 -0.663008829538897 -0.6515684489124391 0.06617119651043442
Ni 2.577168130930712 1.8362394769609978 10.618344439755415 0.6528452587423337 1.3013363542810297 -2.3044129147783536
Ni 8.127486979646118 2.911417477418413 5.6156457793654715 4.150488381620394 0.7730165636183074 -0.009459088530370807
Ni 1.0808415154519795 5.9194020566590355 12.53607642862756 0.15806165216384394 -0.06885157155607496 0.13784892466139484
Ni 6.199963876389755 3.197939428313625 6.936411772342494 -0.8993613442948446 -0.051911858377942856 -1.1191248443438597
Ni 7.266159968451536 4.36273258911056 2.6983617902612 -0.3021411311159829 -0.628132329376686 0.3791096753522374
Ni 3.8401968595057023 7.89250208827591 5.23673345309085 0.73500383181996 -0.5166976330427617 0.2052776477280142
Ni 4.61725707067478 4.928565010269607 5.427708847173512 1.6239216121839772 2.7854380341201703 1.921501863402155
Ni 7.429373015954459 2.733327275142534 8.902847209391295 -0.7969962143623563 -0.27315759939943923 3.273223612114272
Ni 4.199195117671777 4.355975301989386 9.560266361494353 -0.25537456438440537 -0.8896595436260485 0.8088088907265683
Ni 8.67765435933084 9.188649866074432 10.253880101732884 0.516812047133439 1.539683273759187 -0.7250274373335385
Ni 6.526102624480985 6.035564364207119 6.769191625768947 0.2900258359096876 0.24246376986000823 -0.22943136215608229
Ni 8.318479985313868 4.568120748275133 7.821055595270016 1.1744670685595902 1.1450173958399055 -0.9534964355763513
Ni 0.34819864880409984 1.214142676068719 12.324805073117568 -0.16314112356928032 -0.9835084085574093 0.5698911863466056
Ni 2.463332406465503 6.017155623160957 9.330856927193262 -0.3374632034560446 -0.4512566298301325 -0.4907749996397289
Ni 2.9171829542213903 0.7351705925709855 6.681660194023172 -1.3705810475104654 -0.49366671936522716 -0.5547548449257995
Ni 5.063219482161643 4.037029496018912 3.541750011653851 -0.602523113449014 0.6961932867106655 -1.333752051607574
Ni 4.737887159282406 4.312094647350651 12.744960023969627 -4.982611521592871 0.6853195772209553 -0.5327302610255923
Ni 9.188547904266018 3.6152691101471177 13.179318254733586 -1.2272513022401574 -0.7325489425215642 -0.23307667221815342
Ni 7.697300840697305 1.847557237694816 0.23036324067251643 -0.6234508647406166 -1.095425443844391 1.8249625961228246
Ni 8.628703422037395 7.748383706712105 12.59784489216402 -1.0878093220600298 0.35084862362401514 1.840220807833476
Ni 1.6038685155882806 7.998801908173885 5.522634363880275 -1.4939387205342207 0.5999142150712572 -0.11415183815477115
P 7.257474676225829 0.6312251635218152 11.79611919261436 0.8621605668748313 -0.7106590844270084 -0.3937104559845478
P 0.4178061215564402 6.604205369725172 2.859043404138894 0.08494796289730532 -1.1420464861370396 0.1743904712308545
P 1.2106018205402027 0.6532016409368926 8.954454715256658 1.684206010896332 0.5772381136299801 1.6786953654907477
P 3.4628640143359477 5.783690889661631 0.10939853194819174 -1.1128256415987092 -0.15544401203533875 0.31746953394293714
P 1.095514746608109 2.384478851541185 0.837108300919955 -1.030589678315928 0.36452329289763025 0.2946905883752086
P 8.584943267717694 6.635081259163623 8.901762706519996 0.9670114393436507 -0.5506606202517678 -0.29134301205921437
P 6.822079215792654 4.357847691562057 5.011855757710942 -0.888864815638895 2.491744262440592 -0.3811516454829307
P 1.841022412701088 4.022467495926505 9.988722857402273 0.17335945886317886 -0.5900743461626999 0.08203336035367162
Ni 2.83417677291808 0.7887784037322991 12.55179986641034 -0.0031598857852203647 -0.4031690302942863 1.0851055499756217
Ni 5.615759791205789 6.812948999312056 12.535764054723604 0.8167785391956062 -2.0767769539597976 -0.4342410691087425
Ni 0.8031244301759767 6.415075484374782 7.031716401591447 -1.2656435288651104 -0.8203662565468645 1.744482439188886
Ni 3.5502174763797667 3.850689656516908 1.5857869792545713 0.6334339440952576 -0.20459167740458314 -0.10095539406915516
Ni 8.448740830188845 5.641407820649256 1.0617505572149837 0.025800506002871693 0.596526786656263 -0.10088263184969079
Ni 1.5018603608989531 7.622395988535156 1.17613502159456 0.2642849795001577 -1.02862175595628 -1.585823005540043
Ni 9.333398556999333 9.040397396642256 7.4934921626376 -0.5647669777461628 -1.4668858301814864 -0.05647582359954145
Ni 3.264353642611583 4.409885290873814 7.270893777138482 0.22340161102223458 -0.7930570272089502 1.8251849965462756
Ni 4.201744162882097 1.6189866709993024 3.8333746875973564 -3.1107003246346494 -0.8718536257928792 -1.499911650288204
Ni 5.211963222125264 6.5776118762400575 1.3250159465367721 -0.6154971571111787 -1.0161735028905983 1.5462339303935113
Ni 6.234742122313821 4.983707810110299 11.107917770551484 0.29689788043917253 -0.36476831902890083 -1.1643904010498785
Ni 0.8658318692753653 7.177944465663864 10.700461699474472 -0.702140762543352 0.24071747659286286 -1.2911344740473636
Ni 6.131658734008505 9.035975961859265 1.952639077445023 0.4660134764243329 0.25498247115230926 -0.3790302282645537
Ni 7.236646659543693 8.19586627606985 8.064343885547148 2.244103319255019 -6.128703124333562 -0.8891885175269009
Ni 3.6197368912066596 8.050301890677646 13.429198839387368 -0.9271698818666806 -1.7318729779549915 0.5721843532561565
Ni 8.815367685475259 5.66138306584285 5.018285840119664 -0.48294213385887147 0.06957919375071887 -0.00375123951231612
Ni 7.5636289098681555 2.6864804588045184 11.677208550866785 -0.6573516312531196 0.9482758106073605 -1.9310355139242035
Ni 2.4698486929486103 5.678067725401304 5.569777796388219 -1.124182461372425 0.5816051323494241 -1.66851482541332
Ni 0.5434536580635043 1.6461363198030317 3.220359903058063 -0.2846254908297227 -0.7179610174050602 -2.697778585828973
Ni 2.420202561506898 1.2050866136306027 1.7509864281704826 1.9000917731574953 -1.585231137592315 0.8539093826096326
Ni 7.491245295150394 7.332546374983563 10.674699658190686 -1.9316986014294988 -1.7188572824216142 -0.7710836082616527
Ni 8.809231438459872 0.18301681147327825 1.5534715744664385 -0.47746954078007453 -0.3228097152089279 -1.1447564288690348
Ni 4.369795761656972 2.207955153412739 8.06914628672339 0.23723748846406242 0.03860022887070127 0.8703032505866238
Ni 5.478927044315842 2.2679828508019337 2.242025228231103 2.02523996242277 -0.7135461761668164 -3.3959886458593513
P 8.597549454939637 1.9569529888664148 7.457269766736196 1.1261154167290799 -0.7842286302840429 -0.2746316128418045
P 4.939678847386599 2.9529715489742747 11.08698501128434 -0.5648070869554789 1.0339069156146192 -1.2868386748854872
P 4.918507868257984 6.510845430240309 3.8241768055529928 -0.21723867674463232 0.30852929403051377 -0.7139418689433382
P 4.777578110520906 8.1535984718551 10.511887969442698 0.14190406856737497 -0.45041587909639197 0.6900583774575212
P 3.734963003968407 6.47194236570318 7.472328598913231 0.12326999840595544 -0.05504526180060198 -0.8794268101544468
P 2.442967852548878 0.4103879365316452 4.284203458122102 0.3259680583322515 0.37342985135864076 0.8788303142210284
P 7.050937129402786 7.4542609664624875 0.7331536026154746 1.1520154244242935 0.3709399950572515 -0.006430329006376022
P 2.497202265369165 3.794249160932781 3.526202689721965 2.0159611082240056 0.9790094922457915 -0.43539677997974047
