# total energy = -340871.16442949174 ev
CRYSTAL
PRIMVEC
9.26355805426204 0.00000000000000 0.00000000000000
0.00000000000000 9.26355805426204 0.00000000000000
0.00000000000000 0.00000000000000 13.55815358720706
PRIMCOORD
 96 1
Ni 4.149647944738741 6.6042685392754406 3.6704496377863123 -1.8823565606612616 0.6482848930651609 2.6078534814320506
Ni 5.587657873002869 5.854226023433052 10.528150601980748 0.6711934222322182 0.3750113369131477 -0.41036811914588683
Ni 3.404570696085349 0.5427250099412063 4.138382531625795 0.15334213520098752 -0.7179448194551442 -1.506178457133522
Ni 6.518978959034591 5.412974956243697 13.148386016165968 0.28831348120427125 0.7059187415285455 0.1616640248031216
Ni 7.280156271819471 6.2845831461928165 6.71077074141197 -0.3127703286950549 2.3810392451838416 -1.7982313507755674
Ni 1.6307289928161681 2.258668548176898 8.63168995803881 -0.9501635145483766 1.6953944234129832 -0.15777086039630248
Ni 9.365272057336183 3.7030240138000985 11.33861652881879 -0.2995905967799873 0.0069934005986976334 1.0073592470330779
Ni -0.27976686813705376 6.184536717757802 11.138375455017746 1.1870685593736847 -0.3109566725250838 1.8341748587497122
Ni 4.80851852089063 0.9984263015486893 1.198630321116979 -0.39518601208880977 0.557847110697878 -0.11747318921852028
Ni 6.992550580743369 0.34676092095575967 5.9585105297392715 -0.6153035530431339 0.6191039006258305 0.480545865712553
Ni 2.763134136444081 0.7068076370653616 12.674623565158507 1.703425778357892 -2.6646717759726752 1.5349257044695435
Ni 4.538958241165585 2.3019108378004765 5.221611150254623 0.5344631845562988 -0.5688933412097106 0.21140407234072622
Ni 6.440516621178612 7.891578902930234 0.5588158105145044 -0.8270040735783564 -0.059568346481936124 -0.44013789420915167
Ni 2.141243684580394 2.735491678809814 12.465488549140755 -0.15457086540176604 3.053794612586541 0.513984862097289
Ni 2.682846877624982 8.199017872087758 5.956896817902847 -0.1768384185507148 0.12592414819935085 -1.129021020411649
Ni 1.9815862592028504 0.02377214302314201 8.003432662632218 2.1280686622552385 -0.6887458292936848 -0.6108123500409998
Ni 5.548815773518794 1.5060044453671837 10.023461761961222 0.4734640191651071 0.18729175267355486 0.6143018512514969
Ni 2.0855604363097577 6.622749337861354 12.395826591563782 -2.176531128632 -0.06703714405515551 -0.3149344262259092
Ni 0.9653461352578155 0.20192704139133727 3.1517691194789883 0.41757209309349375 0.5008645226652471 0.4627749148823772
Ni 5.6105666524028495 8.327206990299214 10.249516667010138 -0.2548852834528127 -0.1439810057010617 0.19916073619699892
Ni 8.299657168246831 2.6552600013398453 9.202176925514914 -0.1243838002954245 0.07686184345506117 0.553646185242653
Ni 3.1376875846767596 6.489372627064378 1.106086448458772 -0.08313250695512135 0.2501014889109241 -1.1057311966457732
Ni 7.670318815599649 0.5627954351122527 10.16526645799803 0.43644887539333865 -2.0122587196717543 0.0517485933272012
Ni 4.393529641165466 0.48482962397517365 6.63916992110616 0.45065781990386905 -2.2238836497740344 -0.49320237813429907
P 4.1842936523634595 9.411775119442089 8.913279894427346 0.2731475720971102 -1.3816303633460916 0.008781345737055843
P 2.6498686104741807 1.7287837562406707 1.909204520941755 0.2510903351867546 -0.9953326548858471 0.16039364273113024
P 4.51654969390778 5.043034759988854 0.3655511223851655 0.12048009436564412 -1.0703034519657824 -1.6160679204675135
P 7.857646489286025 2.0859217150791065 11.581443105967853 0.3844573128173959 0.045526523676889336 0.6991323147343315
P 0.6226685907515146 8.693664088675208 12.878672887730813 2.6194460713656564 -1.5502060276673817 0.8668304615466749
P 0.45050165639631873 3.505747278619351 3.971413379770125 -0.9028500741743934 1.4607336945371618 0.07998213425159773
P 6.925880752461258 7.34559404686252 11.86697746543302 -0.22064461710238772 -0.21660952780106565 0.1537799940693545
P 4.679782852746056 2.146468331398667 12.368534296429038 -1.4466749024512504 -0.8420499121678853 -1.3097500322660216
Ni 3.1194198479291813 8.436331705758887 10.896390008952194 0.22131053282116078 -0.47320999417277215 -0.4175700362109648
Ni 3.2801518460565826 4.660875930483476 8.142172973620292 -0.377817181793059 -0.2278920426934204 0.0473131832636669
Ni 3.848943582384204 7.108669282635304 8.934443419464628 2.556426533110326 0.3280287975160222 -0.8135353496679602
Ni 6.088871952345914 7.9648073304097515 7.8577233768189885 -0.7420831072642445 0.5102549627412116 -0.0002748509279414621
Ni 5.2769303406884545 3.956474965835468 6.888613457869215 -1.1925172411930816 1.012101903924386 -0.5246189447723675
Ni 6.175625174780535 5.55819975796367 4.600823988171178 0.14553009535573644 0.3309621691127332 -0.11881607639965988
Ni 5.759033699488773 2.9992714982252795 0.37419031675169273 -0.07039834721790456 0.5990446679821103 -0.6513625035492201
Ni 1.8285522779300323 6.008529112177684 5.335676121296184 -0.39105862018399745 -0.5610208804401693 -0.3663914564546206
Ni 0.7399693226682935 4.722098786550792 9.19175079077384 1.33478769196094 0.2758811689781894 -0.7542719360209525
Ni 1.9447358247292867 6.8128653425624455 7.739902959287839 -0.5928645073133274 -0.4975395720570722 -0.320318573355958
Ni 7.679684272928149 7.253773658098829 9.686609142843805 -0.9848782923217425 0.10100373080858734 -0.8339517085407832
Ni 6.822517970194787 4.228897685040736 1.9289053301410835 0.8369334168769264 0.10274899563446821 1.6678427390469597
Ni 8.434321513631998 8.713126824429093 1.565573756297865 1.102172018539605 0.8355684182085997 1.3205604926179644
Ni 2.049182443303804 8.587086851717352 1.1205607581281896 -0.8283089084327091 0.6016929042382347 0.05919116564817548
Ni 0.6539016035396159 1.0035953670178317 11.46538461720414 -0.20799478954886114 0.7974500140703233 -1.0700270583759441
Ni 4.157929565759195 4.186516906328682 11.716590082734637 -0.5553708812432435 0.039892979540195814 0.16681677264865463
Ni 4.335474921998592 3.9540849678228533 2.236661112988651 0.00259012932467941 -1.2856739651534246 -0.9980865634819005
Ni 4.218809670173539 4.31664210820152 4.4182364772098195 -0.1933940089165508 1.9645624420370555 1.2555370365587282
Ni 0.4500579319590931 3.7564747445473237 6.654057385470781 1.7433470400328621 1.1705265958546036 -0.8605695682386275
Ni 1.703790676248294 1.1869304471249953 5.59016273913702 -0.14538045715174963 -0.2788019421694102 0.5972549230715392
Ni 2.448089786013858 2.986006082899452 3.8365915538957553 0.7981017887217093 -1.2662971032887096 0.4208101404148172
Ni 5.437866137096 6.118941462225549 2.0040439033190545 0.5681508066167312 0.31405202362095597 -0.6560514243844572
Ni 0.770936471336387 8.178758470329667 10.084446544583095 -0.5397869107620574 -0.4913162168551796 1.4136655374047653
Ni 0.7856266219115949 1.4707751335765948 0.4885897022438562 0.146696861970328 -1.3745099502512264 0.3850442956691175
P 7.955478927314005 4.859857160370893 9.804741742285906 -1.407478691867763 -0.07609514049236572 0.8821133558476744
P 2.1666165704584963 6.6196553094264186 9.954857702729367 -1.1894357740542807 -1.7737444213777969 1.649229494821147
P 6.394439682749375 3.391648032412493 4.016480590356824 -1.2568634686796354 0.3165411085913968 -0.8304141277011698
P 6.521804344282061 2.2273206672672603 7.812466263289427 -0.5996195666489738 -0.9794987731773842 1.1177202506868493
P 7.452643725287985 6.671503444607047 2.093623437356965 1.737590340054743 -0.31214657906812693 0.2571303707332475
P 4.157327434476947 8.256155498993976 0.6270345057257204 1.0418408257497154 0.6720634835419974 -0.8383529229322724
P 0.8945280856189269 4.569453874721887 13.504042732050074 -0.6048656455392615 0.5675476258150935 -0.6629468659527099
P 2.1857643452339754 3.4530191054108235 10.47219593145519 -0.07249251074277192 0.8788963915722734 -1.0482680694322977
Ni 8.791663270750579 1.8283855338826405 4.78418407988545 -0.4194250871418325 -0.8526485136193379 -0.9207156416009046
Ni 2.4555932681464845 5.299496368435463 2.72724989108957 -1.8755930166851826 -0.7693874515061523 2.165862336064244
Ni 8.556304047857209 1.97776040967103 2.5140750373458447 -0.6916581178444734 0.35424247979691253 -0.9585098296305427
Ni 8.162880731594703 2.976751788269213 0.14019654233529572 0.5800822679469945 0.2527651517860163 -0.5843664971446452
Ni 3.182004447050196 1.5075607231428394 10.415075905309527 -0.3753211548440826 0.33096653998810743 0.7393040018572107
Ni 8.918110840022612 6.835903811777064 13.79976052103178 0.45072466858606247 -1.049310137543567 -0.6775975259863491
Ni 5.128037169925863 8.503918626301651 2.7837464797691505 0.3815409105015493 -0.3131071432091833 0.023327876092663048
Ni 7.534626215255567 4.430092905335187 7.672870925880561 1.2299843849006042 -1.2546101538690846 2.0759230905999346
Ni 7.128187599738322 2.918141255611034 5.960517016442885 0.6512277777435688 -0.1498865725522193 -2.1102475749134175
Ni 6.56050749039331 3.8057198198770026 11.430160863548465 0.9166239880300343 -0.7449889680571299 0.10598755717642391
Ni 6.235254698839442 1.227032390522697 3.5465013765135183 0.5355818715417744 0.3101030662755369 -0.01370346562902156
Ni 3.9336958762501255 2.116296922378959 8.15589415600899 0.38269996380665705 1.7862394685210141 -0.4086660488531155
Ni 8.581713987968064 5.3471295846403555 4.735808852669664 0.5118104801537895 -0.35070849850172503 1.6040433852028118
Ni 0.20190295614004733 7.06941032303275 3.197365279238246 0.35372028874485534 0.10710598705158328 -0.49383512662229145
Ni 1.2083941114475814 3.403357169962665 1.7852293953502145 1.26552602945064 -0.5776811147046695 -0.9116111081964752
Ni 7.942102349289916 0.0791339458246398 12.792863621875593 -1.522349667576746 1.0098874127715705 -0.7392140132465657
Ni 8.914970493796734 1.7399092896249717 7.032506159921693 -0.564451246277957 -2.3291546404994077 2.0546610958973646
Ni 5.613873742676119 3.7071092429611943 9.275159868702438 0.0005242479345861938 1.0193511292876314 -0.20856223201655696
Ni 9.105688629780074 4.964766956854833 2.507132926839437 -1.3914859159839326 0.6244967895066277 -1.6668004138253747
Ni 4.121940642197155 6.334828685806846 6.277764241010315 1.1931070522582805 0.005657455396093482 0.33459796609310766
Ni 5.477727227980802 0.10245124814073003 12.40684929945219 -0.8925942007743403 -0.19205703527268214 -0.09165957058952601
Ni 8.986364736754943 7.988994480839735 7.806392148185276 -0.5813770754990181 0.4110756867358727 -1.1239469483228515
Ni 4.319513811239932 6.790429004630075 12.32373850809726 1.5912426338937176 0.230208606641739 0.8895140191871197
Ni 7.474746575125573 7.8589897052233475 4.058226815332971 -0.2895254992345013 0.3627137504927172 -0.016357358312100858
P 5.566342425611298 5.780163875716576 8.28716433367392 -0.5899599320720227 -0.22192502647670814 -0.5844063492436451
P 9.08003783715632 9.072589936372824 5.730421347312178 0.38354534252608785 -0.1425537863362319 -0.2209654907769162
P 0.2609803721309233 0.5573632845905591 8.97797936388278 -1.9190204917411984 2.2866851584812875 -0.04978529895324329
P 5.868065779366562 7.833885462532709 5.472857375441147 -1.3623283205833698 -0.6642707269704561 0.40730105018478885
P 2.1414196921859743 7.635876906255077 3.6527432726649525 1.807377793161526 0.26730859681783 0.8389941560606972
P 7.115496525020176 1.0870692898537495 1.1145885421641104 -1.081917639165943 0.7083042110415866 0.3500973472802874
P 2.693194272121455 2.92941500592635 6.396194200670263 0.4752905308508847 0.9960556490948007 0.6862510878962891
P 0.17887560319525486 5.88126634978507 7.06467942386592 -0.7062241885841063 -0.4485680272543759 -1.1620810361904115
