# total energy = -381164.89632014354 ev
CRYSTAL
PRIMVEC
9.25317822595662 0.00000000000000 0.00000000000000

0.00000000000000 9.25317822595662 0.00000000000000

0.00000000000000 0.00000000000000 13.54296165927478

PRIMCOORD
 96 1
Ni 4.501597255219627 3.1440819618154987 2.726510079903364 -0.6954042151504668 -0.7612576233101663 0.05208360806911675
Ni 7.587883864889353 9.038884019441214 3.2448805351527983 -0.11799409471899679 1.8482408499244751 -0.9285593060150396
Ni 3.1355135186379473 4.344802147613136 9.130258230601045 -0.5229634114468155 0.76549582976123 -0.8867269433602858
Ni 7.265817738282595 7.570645193572097 12.96144050474375 1.5564378675097066 0.7152338482818843 0.28095858350109676
Ni 2.6441419872583403 0.6541830555671383 1.0858095901168354 -0.7302416345446263 1.2806510580175363 -0.5064353318848053
Ni 1.7736677377531562 6.570459889571323 9.910346508397115 1.6058375009887569 0.15884892395182965 1.606863628260426
Ni 8.409492079383035 8.349281647680739 6.60039299630465 -0.46687685286589276 0.6860076044269153 -0.056826779181056976
Ni 3.917730952778676 6.250716310737315 10.594550575892166 1.1123882969509746 0.3230205456681534 -0.7529863844403097
Ni 6.857771078192243 0.5587975915806678 5.911624335915985 0.12442648060790182 2.1579037433388 -1.8470069775173736
Ni 3.8093022085513017 6.50570614728568 7.024084005077816 -0.12687751325155566 -0.25293870124940304 0.8134708149786118
Ni 0.52679732479781 6.80060494217614 8.213562504464647 -1.1696683616193662 1.9302657256377147 -3.6446379757047813
Ni 6.5482152487518475 7.136356519603197 2.261471243550405 -1.2121352725343253 0.7009765670319218 -1.8276254876669686
Ni 2.3424328530820517 8.210308161629285 7.665140501798653 0.5069814341962624 -0.48081506021353965 0.8133348036213799
Ni 2.755207887323298 7.786614376902606 11.996179471893118 -0.8943047557075438 0.48793161665366297 -0.7535821090427797
Ni 3.768199590198512 2.071573815616299 8.484272565758522 -1.2548572368828839 0.30647112594990444 0.03738435418572917
Ni 4.385997297749702 8.18813754623683 2.7407026048987517 0.42376973726377337 0.5828778284142606 0.9159974101896289
Ni 1.5066210097789277 5.9561136175549345 0.7097622714915043 1.1225336129150927 -0.6315539534637252 -0.34795818945009754
Ni 7.355055390555065 0.8695146949074388 8.091296557291582 0.3398147344073567 1.3542365447141707 0.931365408005267
Ni 6.590289450834274 3.35099228351445 12.197021559212114 -0.887165316449285 -1.2725855074005825 1.8469236737749484
Ni 8.113964068362908 3.9552618442777567 0.24306804152681297 1.9102951960530585 -1.7560984261612598 0.8969370511240682
Ni 5.125816668564792 0.9243147932124205 1.5586997483230909 -0.8934562916643193 -0.028126583032887044 0.31217563253384945
Ni 4.608277148733656 6.190145005078295 1.3730939445204626 -0.5599021934546938 -0.2974182717190168 1.8082046599381958
Ni 0.6470025891462097 4.489642148755916 7.983575681210085 -0.9508517988646528 -0.575800352742189 0.5710648949397327
Ni 5.951783130074271 8.783413017617221 11.335107425023942 -0.6700734496951621 0.2798090432776858 0.14288777263688296
P 4.592555998670308 0.005773983307550889 13.054589475516382 -1.882377386596868 -0.8026469848902305 0.17568553589319422
Ni 6.298499723878649 1.2150070932124755 13.002381192474935 0.6575092398769063 0.5126280909590785 0.3050410783715973
P 8.174118980994939 0.8652276973651498 10.208901234064518 0.6316393140886799 0.3398782406554405 -0.12375439424154171
Ni 8.214231509261339 3.0279638263564346 3.729203920562275 -1.0212352336842219 -1.1625176095071978 0.5812932575359602
P 5.789315824122383 2.7814036353099585 8.727463674557756 0.48518413581551284 0.1234026673290778 -0.8993880837677221
P 2.076764848686068 1.123576437664542 7.492142153535348 0.7559788914097303 0.4090563423129987 1.297047754208005
P 8.240862156631742 8.340805736286962 1.314166928659122 0.01878242281382572 0.6623377716138013 -0.555275750426276
Ni 3.3958424391101216 4.584487227125141 4.434778203520129 1.3762462162160427 -0.45461577611035253 -0.25401856457714317
Ni 6.5960541809634465 5.49913615020444 0.39817259344373646 -1.317550502147047 -0.14670277550759897 -0.9095997341934012
Ni 5.476410344109336 5.044268407524013 8.644675487614393 -0.3016297386972031 -0.16990518176599126 0.9597321320734181
Ni 1.304577859906534 2.4411735195481983 9.246213510120667 0.05932563434351073 -1.176353744059342 0.08496698906069883
Ni 3.7845499563915284 0.43927151052517566 10.72853104689113 -0.3268556031435274 -0.37721862897711167 0.9203592867027505
Ni 0.1233282120508009 8.18041114229163 4.421736773914901 -0.281422924732025 -0.4832843476896386 -0.21612564618611166
Ni 2.779580759169594 1.2020248839488632 3.445478338562629 1.5037716474642424 1.2845547639473167 -0.8606567286357951
Ni 1.7731310534072622 8.972325907371962 10.069165286114762 -0.22866671607591588 -0.14694908719045016 -0.9368513708205026
Ni 8.608204085039535 2.635323708264597 11.40915968626112 1.4100325686378685 -0.8695843701427283 -0.13191713255799214
Ni 5.038420398789442 6.954429779523457 12.832701033977795 -0.9671168545732635 0.6091411329861638 -0.8126215796044393
Ni 3.6708931663808753 2.2521773511880587 5.152392722182769 1.4689090312591024 -0.2914124318445691 0.6032687333657868
Ni 4.1273709620989845 0.21339032251670403 6.490044217563948 -0.3875498356997906 0.4496118951378579 -0.704115883991852
Ni 8.631753424010235 0.9217692438407743 13.107312235275618 0.36824136517916584 0.3574388752470231 0.7018610265194042
Ni 2.261199200106107 3.7001424632321065 6.397288506872359 0.7676866667649618 0.8363387207157209 2.259670577565657
Ni 4.026215216076315 2.413987681475146 12.936521695373182 -0.20008093401842317 -2.3375086688910582 -0.7270442106532511
Ni 4.8002713468881 4.4510286353866695 11.765732765673196 -1.6584327585869696 0.8043727093320856 -0.32501417905941443
Ni 1.4534707531786515 2.665452057061689 4.687787859895713 -1.2850363315694255 -0.6304463222218433 -2.0120391474617803
Ni 8.417718154960621 6.326111208157065 5.949260713648569 0.16321877088475115 -1.5151814319630807 -0.2105232123976697
Ni 4.743512350720605 3.6850412761200504 6.7459390149576315 -1.780131555851063 -0.00299302119005291 0.2849612769025866
Ni 3.034135696334218 7.702280909170205 0.6549779035897643 0.48319872995436786 0.4885278554767651 1.1809264510316888
Ni 5.085722646655148 5.97530470950984 3.788886921097056 0.16836226275890362 0.08997266980540633 0.6039217935687534
Ni 6.29463189531686 6.31211114927193 10.772816758605774 0.5315370120484395 -0.07946508540586314 -0.13575193292305004
Ni 0.14911034296398848 2.2282301255471264 7.272868660206239 -0.03760624038854814 -0.10527921825548965 -0.17428377044966115
Ni 1.2027096191487974 3.8974202262400954 12.939040410527532 0.4245179282837076 -0.37555846766586937 -0.3484276728873483
Ni 0.17093303884945005 4.176431313856413 2.351816501274659 -0.29807390302514475 0.5110941708130553 -0.7614064901832048
P 5.328257705107418 0.3781792509235038 4.390858917669233 -1.3074360394208644 0.6577023297243189 -0.57039563678685
Ni 9.07776587498341 8.375662459234949 11.205202979100262 0.6252622069177425 0.5552577527041469 0.8534342427454269
P 1.9558443136490888 6.183001551370876 2.8354903135620364 0.425782396818428 0.2588375832323413 -0.1846031500977982
Ni 9.02661430491267 5.728892569317403 12.325097577088403 -0.46835832250742565 0.7924314778098095 0.6592665888876453
P 7.549501680979542 4.535334343583939 10.909613897102844 1.5521731786960817 1.7685770182442446 -1.592465450557225
P 2.2497252589180254 5.552665787118194 11.898277143387972 -0.07297639235772593 -0.16446292770449739 0.07057318223287201
P 1.8107822362252504 5.853717945629681 6.88172107978669 0.6281279585013119 -0.17883719414829843 -1.743027194799598
Ni 0.22360860739896116 9.171204470239257 8.273598976413448 0.9158961087250742 1.179593591152878 1.6677658630624375
Ni 8.020543979463815 3.188025305930177 9.059455685610041 -0.4323675062351134 0.35980094772129645 0.600301937427979
Ni 2.535093280079675 3.117608618477513 10.980240631704675 1.5187375247454553 0.399547374381299 1.3218036209964463
Ni 0.6119515494522949 4.506140565802973 10.39728391669823 1.0534300732492117 -1.6439816161586462 0.5374227814052551
Ni 6.909459332608878 3.3290252380462997 6.826871939636307 1.1541985481185413 -0.32538724612811704 0.2925074646809608
Ni 0.6384147142940654 8.246247506447437 13.376288250941553 0.6761032008290098 -0.7767770591020042 1.0154924176631739
Ni 1.5259786589446271 0.1051309114536381 5.765306602186321 -0.11931024242725904 1.0220021937572337 -1.3828056146011154
Ni 1.331624900303924 5.206513637194842 4.641497909744505 -1.5034574586579335 1.4613636148116766 0.19442656394612323
Ni 3.746926533108673 4.361143260627776 0.3957482607088353 -1.8245501911757545 1.6844934602297634 -0.4872826702157543
Ni 8.634029705891097 6.17162014196657 1.4246924431068342 -0.20124564375048565 0.4733683741275073 -2.629982709230922
Ni 2.3255643088998954 3.800622727233221 2.170611509108363 0.3838479613681712 -0.16368234078473098 0.27295525358064604
Ni 5.263161595221808 0.37245801073270457 8.749024505495134 -0.4295819730701763 -1.175394465469866 1.3159317355967015
Ni 0.3868596575594228 1.1849620230207802 3.0042627352603435 0.07003042235552456 -0.07926171114580544 -0.7164371245613661
Ni 7.227287503518746 1.9721761734853505 1.7975437139205819 0.3840289670307257 0.415071181048511 -0.4421371840273676
Ni 2.067955822870702 8.505410526444049 3.171247442896121 -1.1671257977031706 -2.5277273654034205 -1.1613899236606577
Ni 3.2441180732544934 7.442747762038493 4.867327279954061 -0.06889965118519102 -0.4534104429483417 0.3832679204949851
Ni 5.865413963098823 8.02534637904173 7.038859480310985 0.6401324391613556 -0.5851283150113342 0.941438990191185
Ni 1.6617875579909804 1.1503643890673623 11.867927643627658 -0.37952002341677865 -0.20322976406005003 1.2222147682575142
Ni 5.790740813592516 5.790990649408707 6.477219312332753 2.48097365418765 -1.1138836505495784 -2.3829364622065543
Ni 6.421354173196523 4.4503253938299805 2.5839426593700954 1.6136582825847563 0.33325096514690994 -0.17826229548143493
Ni 5.095003584567765 2.228998139352458 10.740151188297574 0.590772657781305 0.7160244625039797 -0.8051103588290586
Ni 8.170140114292622 6.386802805134992 3.4708033624639687 1.755933875558937 -0.508394512493705 2.5575639891488793
Ni 8.90109494022208 3.9998714172356133 5.66118798844718 0.1717113817367946 0.045690560058579376 1.516713038116259
Ni 7.536149344580831 6.119237899171624 8.201495434542569 -0.8303159115604087 0.12834818425981123 -0.7679977702474773
Ni 7.391105773513748 8.192245957436434 9.735791775530716 -0.9068298847577478 -0.0238202423480493 -2.774347323523648
P 7.1844452876309886 5.004831361279171 4.6887085511442725 -1.6591562670165554 -1.2352754580962146 0.6979061556367141
Ni 6.450751520901793 7.742236133404186 4.6693555285677615 -0.6004047815544306 -1.0233821048238956 1.237906210850842
P 8.861778185296146 1.6601682517749203 5.369540760438569 -0.9905925690977003 -1.1712606458071504 -1.9639860007082948
Ni 5.973278263445169 2.856113797529776 4.537907652490718 -0.02591440587291666 -0.3504729854521512 0.5597535836919715
P 4.847184961261951 7.39643560425918 8.909860476099071 0.42153210618250636 -0.07118253368209677 0.2285132212171871
P 5.477992637611886 3.3630306685835585 0.8342332510719247 2.2845418868860397 -1.1110783198902994 -0.15806010950194713
P 0.9299166674021502 2.388596960007326 0.8071686296356176 -0.3428059558251967 -1.3447183208110904 1.1785368677535897
Ni 8.816039724576234 6.382333519978667 10.032802145726919 -2.8661146233356316 0.10727773674275719 2.2783013052929664
