# total energy = -340868.0600674718 ev
CRYSTAL
PRIMVEC
9.32217970817461 0.00000000000000 0.00000000000000

0.00000000000000 9.32217970817461 0.00000000000000

0.00000000000000 0.00000000000000 13.64395230327737

PRIMCOORD
 96 1
Ni 4.732367342790578 5.5057540325164736 7.050007626738486 0.0344340133081536 -0.11141181351578877 -1.3581821596254802
Ni 8.3924695857482 5.537533343830998 10.396814708357626 0.5206280784454195 0.11595520991209707 -0.9255372313592641
Ni 5.708977554563006 2.004371224713176 5.89224974716532 0.7532352672263221 1.4246402912487142 -0.8502021089613745
Ni 8.026937589281841 0.15205500873638597 13.599022660732713 -1.2180174423467152 -1.145819837136543 0.4506845593767464
Ni 4.988251859150912 6.210184557445204 3.4762474141109085 -0.8378052779589183 2.0473905303778808 -1.2535729708538217
Ni 7.246661808602166 6.059323719955338 6.717764202514143 0.587625370401575 0.30131426433931335 -0.2249643275236642
Ni 8.7296901218267 5.356039823155586 0.9389868258720802 1.4731307826499338 0.8746910952416742 0.4244593071316303
Ni 5.521219528987812 3.171321705895978 0.3285378577099617 0.13463478859947137 -0.03991663368927964 -0.15789273068614745
Ni 1.030166135357628 2.0813071755136363 6.866974081941877 -0.4209785476718814 0.6606655261177009 -0.8688050687745423
Ni 8.012683976198852 0.6184660428850551 9.678105400460149 0.7576745339445984 -0.6684582826892422 -0.1292169600180097
Ni 5.266565540375649 7.793752581003309 7.72913495873644 -0.04247102468001718 -0.047715560908408144 1.0183008336462462
Ni 7.81996655091133 2.317820202020178 12.706613174564913 -0.9900978888494691 0.4204612417158307 0.6407664732009287
Ni 1.8579663892204783 5.052052858457631 5.274137947116861 -0.46043598233655547 -0.7006487513788578 -0.7890227092385766
Ni 8.084464761508867 3.8044002657905716 5.686226774491696 0.08319755586510189 1.489382468622106 -0.26568597361274243
Ni 4.4892728572673 2.9384629739143096 8.008249415215479 0.6596111167112575 0.5459565299078791 -0.5930673673527528
Ni 1.5012811414890805 2.123229018570667 2.67703921825122 0.03191458932040955 0.8734793343217602 -2.5449388441857006
Ni 8.692420046544955 0.5702060497069497 2.219025603765832 0.4636424050889951 -0.2864633153694099 -0.5747881094275907
Ni 5.804968041100307 4.966121004043643 5.04648844926912 1.3053346768071454 -1.6504867642670153 0.28737605699166635
Ni 6.564604515458376 0.42566192132436603 11.420861764822074 0.19004154750455013 -0.18839527015037877 1.8819091887111978
Ni 5.181193016756284 7.782351554972901 12.14933978504765 -1.5769115619830263 -0.26841648517002803 0.20607109016358705
Ni 2.616810478286163 1.7160362000847684 0.03677413531051219 -0.08517062043107267 -0.9037620444657016 1.0424733171273917
Ni 8.640458215724433 4.723623138034631 3.2856955312165703 -0.7805324123793783 0.43011959074120115 0.29547348928782013
Ni 0.223998932194832 0.9826323399945419 12.050666375132138 1.2208158310274588 -1.5087120221886532 -0.3932947086033678
Ni 3.6109650326499487 4.963753170346404 8.889758476414059 0.1480862861186869 1.4404384346232353 4.390575680828426
P 4.530392992852037 8.80897526196458 3.263878833572281 -0.021242454318544064 -0.14466646180386053 -1.4863861049979434
P 8.846058893648117 5.816098723913314 5.151301446873614 0.9450228508877015 -0.08052823656305486 0.325517086837762
P 7.752231591682426 7.217007954307211 8.481176653121512 1.5080869870101445 1.04158217277169 -0.22759430894734353
P 2.368803203950109 8.932932288233054 6.134280571960822 -0.5568392382586539 0.06119251234892042 1.003266307910627
P 4.793651353521491 6.914195584277966 9.794283999811395 -0.3825762937445992 0.0009034856508758633 0.08875705223075037
P 1.4591728548338425 2.7208180395464003 4.7070818620016315 0.5843040193378259 1.5774939168490574 0.676057692303055
P 2.5997881777697884 4.428473599891727 7.276620498180191 -1.1897242518289768 -1.3974567888553868 -2.6280011600245192
P 5.5781500817005725 0.5371766340664417 7.38141951251482 0.37313828826015094 1.2010260499950414 1.733309710401518
Ni 4.723073129419918 2.014634944794517 11.921363078685053 0.04733323786832493 0.2021637846893809 0.5588526691442569
Ni 1.2043883557029338 7.452439607944147 0.6284817929807798 -0.8706068978699716 -0.5131554242174582 1.0549665644983959
Ni 0.3056780081336998 7.754981634755991 5.777777106737678 0.4755116457227553 -0.3948936776593715 -0.8237112617596974
Ni 8.69185139357042 2.3825627414978463 3.7661811925939483 1.0546541754642997 0.45462734607457833 1.4211345920883007
Ni 2.806209207525586 8.436563496724352 8.587585607926666 -0.5754085166204089 -1.174203016264926 -0.33492475330490706
Ni 6.902328449252037 8.148927635589224 3.677359462407739 -0.7017383848986108 -0.7502802983630562 0.10807529294338807
Ni 8.899083452978424 3.0317686726374173 10.637684921754285 -0.034517831271211524 0.3294436755856778 0.8109462487845452
Ni 1.9097231320829717 9.040258545541391 2.3309467635520003 2.2787155100122494 1.2970235858382888 -1.337844990730025
Ni 6.887534149734246 7.457175275338625 10.482989871667277 -0.2813910430528251 0.4094695185910173 -0.6616078354263122
Ni 6.702973631868316 1.3740893187916996 3.33462299247626 -2.376997985234932 -0.6679821143837722 0.3883098537942667
Ni 4.579903090356125 1.6479003871197175 1.9358998132713507 0.2045806216609896 -1.4411765983408404 -0.0775329013801568
Ni 3.2863853725299395 3.5086820746731338 1.454786769186003 0.24640218568246597 -0.3002626831463474 1.2615583030521436
Ni 4.064498407470403 3.555106530626883 3.94615892681593 0.46635646158604843 0.8865665065230215 -1.5875888391912143
Ni 7.407413478976956 4.556103565044896 12.960499947770451 -1.5129348020207491 0.44374155240001 -1.3870026834015983
Ni 6.281956020575307 5.598677521863255 8.963558445892662 -0.31009123920099496 -0.5282493424361031 0.06539292358351319
Ni 1.355211904473157 0.7427540065403491 9.609299322759542 -1.1456989952879624 0.31796909928717493 1.6697759515139308
Ni 7.855372190210996 3.880077722303129 8.494383385400564 -0.0793478431017085 -0.45476747119686844 0.5415936249534931
Ni 2.876125556853522 7.177547166746524 10.54989981797411 -0.26661697006744406 -0.2161554709827826 0.5205285767530777
Ni 2.6336836239239716 7.414060193253065 4.189539603262457 0.41092476298030517 0.7685487576549409 0.1979770003015429
Ni 5.9613569312770345 8.287893371513428 1.39843698828166 -0.13140548302889626 0.3915648703964547 1.136780866862726
Ni 2.762646660804327 6.4271676170394745 12.802093737861115 -0.26582661295566473 0.844223008559804 -1.4637987066157305
Ni 9.327679996538581 6.380510106587966 12.374806028360377 0.752171344738182 -1.0016346858444751 0.8340620088664022
Ni 1.877468389593017 2.6106951282649464 11.748411471461534 0.49113778229578636 0.9972450414172117 -1.5577776693670526
Ni 4.504701065018998 0.04020656195351832 5.439038919769765 -0.048085028432684924 -1.6082833914260881 0.8377677398527635
P 2.9542733910423338 5.497755602153357 3.2416668754997917 0.827197420536085 -0.35724475695834607 0.4500677517283539
P 2.0148866436520976 8.920636332931249 13.040630609626202 -0.7795384238972253 0.0003879794670380415 0.8731636028535542
P 5.625795743222584 0.6505091718910437 0.08874155943898038 -0.23259536170636075 0.9354380354127437 -1.3527303924822895
P 8.218135499243969 0.29369807473085574 4.5349086568006305 1.1216956903948296 0.43473420669507706 0.14274816173522514
P 6.41610218948584 3.570637282357595 3.411833947584077 -0.2603594191935064 0.37086774705841935 0.0907735684401469
P 8.538911709960539 8.117465278391652 11.611140507845038 -0.3315969744832547 2.8585776915286383 0.9321287685338528
P 3.8349956602564763 2.399174866098164 9.997183109997046 -1.8066995361475786 -0.3393449938597898 0.5350949046030269
P 1.3379379050992017 4.822307734566035 13.40361392210506 0.6788442539092566 0.20187530691468455 -0.1154715854074592
Ni 1.7871271440814136 3.200416229396309 9.111786699775834 0.16363503248656336 0.4752141690869945 0.08519453169047263
Ni 8.031067314982144 1.6676634085297473 6.358026873080083 0.5765097201043877 -0.9943823751574358 0.8203469732731549
Ni 0.12249157958656157 9.074731966850019 7.687493713294712 -0.21909115657233882 0.39062153264657884 0.679004690746521
Ni 6.499479766604381 5.363963676079419 1.6352818843930115 -0.6784549888906379 -0.2802589863309109 0.4953741889746372
Ni 5.948883854556931 2.0829385569979553 9.69416471979178 1.5429233779630396 0.17565596820683943 0.2309246588721571
Ni 7.546789390817219 2.873235681081301 1.6821491438925045 0.8481513970799328 0.5317285592339552 -1.3226937369108833
Ni 7.1533933985987 7.074276057699207 13.287313202196989 1.324314817454074 0.07736346568182806 -0.29404189904761613
Ni 1.1353482912865747 0.6228344163910645 4.557489773197571 -1.7912124962555735 -1.601620377583616 1.6451326990439539
Ni 4.870335605464371 9.055155389038196 9.846349306828923 -0.041291916770251465 1.1380849303861302 -0.29736042189788786
Ni 3.482915569400812 2.65484497232056 5.9387077629667475 -2.1703085447610557 0.2641119442574032 0.35548740794760714
Ni 3.487548692816276 4.051410066876214 12.899470432551091 -0.13955356605732738 0.3729421130889448 -0.9716437959093396
Ni 2.808539752503184 1.2609366990393682 7.998916980907187 2.0041890552897415 -0.06475040490350785 -1.157229364525065
Ni 3.7539859168351746 8.576377551020402 0.656661810631902 -0.5015150117650523 0.23861637108946002 -0.0373172483932196
Ni 0.5573004238390037 7.691171313269361 9.891619676909764 -0.9942787597000359 1.0905642590973477 0.1126127758024254
Ni 3.0477282446440075 0.259269399885798 11.431627018182594 0.4397738260015135 0.1856138507504997 -1.2342688712085712
Ni 3.2220250424285966 1.1812879938849836 3.964195480506555 1.0840814795864813 0.4933908399960213 -0.8064177647865726
Ni 5.180195543505873 5.083263516797622 11.102752629777866 -2.5725548061307566 1.5262415464319843 1.8403910148627531
Ni 0.283155621470194 5.05010452285636 7.4589576761374925 0.9273130923127643 0.41138601888743986 -0.6902316698105919
Ni 0.35630769944502677 7.982778423046317 3.307785368732234 -2.598390279136622 -2.291912468318498 0.3632169153813809
Ni 2.609912065152473 6.823611962088691 6.74798484534765 -0.3905924791808563 -0.18184229952320943 0.5662186225910248
Ni 1.4132331522354336 4.743423448164301 2.07202508097686 -0.7243136990959654 -0.0966577951350658 -0.58514785539536
Ni 7.2707876102102595 8.75230573028931 6.214070042031854 -0.8552975212064109 -1.4160769750597353 0.8723333936427751
Ni 3.659459012543805 5.792811918497157 1.0478475139936674 0.9236587833896287 0.24641349853637565 1.8258444845071458
Ni 1.4731840912391607 5.035431411677403 10.966177100782685 0.43359777909778874 -0.26387000344992617 -0.4360668094635716
P 9.13474816111312 2.195625067754767 8.731106160955088 0.4723648725636575 -1.6496529555118105 -1.2709410298186241
P 0.21154822870651319 2.11687129187178 0.6645409170921649 -0.3959581143681439 -0.883984347618142 -0.3044731216832692
P 6.368838737340155 3.8261489115215146 7.029432643458261 -1.3228703716980637 0.24759646310088324 -0.4659263160271653
P 7.8982448956188875 7.386345352379471 1.7224125711434763 1.5482669016631398 -0.24344490282635492 0.3028325007560526
P 5.419878111181948 5.835936322762628 13.39140279864044 -1.1399849756223206 -0.7681034425874063 -0.6543948626176407
P 1.530151932671563 6.143260627868503 8.920525398990314 0.9392119006328792 -0.7151472021053491 0.06548805440048078
P 6.84022408668901 4.096631961621522 10.74241588417557 2.5631867346522954 -2.4709638353601315 -0.544450634786314
P 5.4867554298590955 7.273537653283825 5.718916862783466 0.48866566660621 -1.7035455917652083 -2.113349610877509
