# total energy = -340888.7264550022 ev
CRYSTAL
PRIMVEC
9.13593889972661 0.00000000000000 0.00000000000000
0.00000000000000 9.13593889972661 0.00000000000000
0.00000000000000 0.00000000000000 13.37137005460810
PRIMCOORD
 96 1
Ni 5.390349971318708 3.00918633257909 9.803179175427408 -0.12363715193738707 0.4641126598571942 -2.048895911278813
Ni 4.231328251973171 0.5486039792610998 6.121934924774662 0.21709006698191 -0.5872975547485111 -0.48530137811966745
Ni 2.4467505422203653 1.7962625752705481 4.680608133551864 0.24921034455522245 -0.5089426716876913 1.1905431481858464
Ni 3.7662084799842637 2.9402099958637193 3.0164603669225047 0.47511492450496884 0.14680433408246976 -0.13787566413427224
Ni 5.818332152744968 3.1623686157190405 0.4033836666439902 -0.9290717268750839 0.3474923055572725 1.3255173224026073
Ni 5.328782880838591 4.800908346346653 2.814994648081795 -0.25307574104789965 -0.05033628636070686 0.03878457696736547
Ni 5.409635937783097 4.91921875170613 11.775750748905628 -0.3486431313322641 -0.19014079208657575 -0.1780432374920934
Ni 5.57517000996135 8.366400254458506 12.662459372462065 -0.9293121250206641 0.26935339516200063 0.0027932464744209956
Ni 2.671202282673773 5.542207543356177 11.621190766219097 -0.9483789118441278 -0.22972498213710113 0.1614359679527155
Ni 0.5946481964017353 7.723559068148526 11.76299423778567 -0.22059268081852976 -0.1935451897824344 1.0473836099448155
Ni 7.874905027622279 9.146627686003685 7.198971644378468 0.42724355474498676 -0.2055221596386525 0.5932005504965074
Ni -0.044725901195201256 2.815303442807753 1.5546224798639878 -0.9353220786601698 -1.4568011922519748 -1.0332646540449302
Ni 1.4094377974075656 0.9513892419243143 2.7041190695857575 -0.3282640534552798 0.8705192232521718 -0.20951636839971016
Ni 2.208083281246544 6.4342588638279965 0.5824955708257371 -0.09505162699021048 0.6524284829198893 0.351420179856769
Ni 7.5415346267290495 4.083362589795403 3.9632067248310907 0.4477038794818677 -0.10757804159199538 0.5601842434714869
Ni 7.711664076042114 3.99950380903906 12.744667289106555 1.4067736953809384 0.873703020296792 0.08631244734499974
Ni 7.115132962687128 0.7857290937928605 9.422416092850604 -1.175138383595002 -0.7883670779324488 0.4077396803841042
Ni 7.100296198339345 1.202654962279658 0.7647739913393444 -0.1373285333815506 -0.8616373473815095 0.4859657511765437
Ni 1.7189451265788682 7.075446445244536 9.889866442786014 0.9154603067392362 -0.8651600158227873 -2.3236776765452367
Ni 0.27941354729839757 5.0965930003589675 1.4396823222679942 -0.3398669278015308 0.5073187629310231 1.6796865257594236
Ni 6.541971580367629 2.2867893926111695 7.385796107958243 -0.0008651762137727035 -0.20170432855445905 -0.339423412506209
Ni 3.9146035312780074 4.514249999708482 0.6259552309257396 -0.7952987720552754 0.4634220615480728 0.066588229443195
Ni 5.917767708878755 6.007875471663351 4.967143145018425 0.9111238841474115 -1.40589694920294 0.4759767582846318
Ni 6.344726665177581 2.1839918110586725 11.708840047916262 0.5333280425105912 -0.9909967465146546 0.2488773866958359
P 0.42986601197337376 5.6554657746489525 12.803768589748332 -0.4586585787211585 1.402629591305578 -1.5407178856712884
P 4.18678141517527 6.6026250769839665 12.798379299545894 -0.09784101680988956 -1.0521959437317945 0.83082653264824
P 2.405401283945694 8.640286558881037 1.483286330198474 0.35634307107968305 -0.7264022061938781 -0.4587251702930358
P 6.357900688693286 7.852659017039242 5.890904394908175 -1.6730589931405766 2.2072216157373212 1.3413064669160641
P 4.576611916850087 1.5673616327005326 12.7569953247044 0.019720875467695066 -0.9892933906703026 0.39729611645327706
P 4.108660003883464 6.434532941987131 8.807547323461833 -1.0172255983041965 -0.958642241443349 -1.0552951514824085
P 4.319773273925687 0.9610185212485529 3.895026128371071 1.734555409883161 1.1459134252916137 -0.43280870753759015
P 0.2758989517044369 5.790010742967795 4.002665757401601 0.07589793687989509 -0.8501951669828389 -0.7382552488777221
Ni 0.42819687598424816 0.33993914077380577 4.905366841543502 -0.21694402832234896 -0.6419291260504622 0.035043364757378355
Ni 2.0051923559783384 6.548522048370929 5.25592468379602 0.5921744232248383 -0.5620056129509418 -1.3439819568656983
Ni 8.338827991649634 7.500642165386267 9.731081088479502 0.5141360429631726 0.6485826268112379 -1.374659588455213
Ni 8.42192848949904 2.388828691256729 10.500483346332755 1.324952965258705 1.6433067015788088 -0.6771565817941887
Ni 3.6992694575851215 4.60916326621656 5.198347257719028 -0.14069333608872545 0.5846662877732511 -0.5999327270140183
Ni 1.4032162231952257 1.479254640477614 6.962793013089583 0.20398129751409388 -0.0662616993417117 0.8832716378218335
Ni 1.2703065878925481 1.485887331928655 11.819475351226126 0.46358275549565325 0.7002880256053294 -1.5615764742878524
Ni 4.418651537802569 7.086108085634846 1.7784191735170658 -1.1539450373468385 -0.7613771796071662 -0.04641586826037813
Ni 5.409992239389972 8.247249342744352 8.573562231039883 1.237739603365991 0.4535333416794512 -0.5960357059524575
Ni 7.122277266701886 0.7257096313179863 5.14147878048033 -1.0670103830368074 0.25655341518385494 -1.1213254515396043
Ni 0.5710107823641619 7.4719187743090325 6.863630621521065 -1.3862393228730125 1.2183892238638372 0.12025409439776708
Ni 5.207969228292357 4.637566899441472 7.40563936667954 -0.009422064644848288 0.8326928964330176 0.41703653230499793
Ni 0.5158452440875495 0.4371720221020204 9.316474834812842 -0.5900517204548805 -0.24001710809172858 -0.7159033635450832
Ni 4.51840685178868 0.7763473984057063 10.46569095121843 0.06891276381131359 -0.2787134962206619 0.4903859917314264
Ni 8.083990119286911 7.3278176141750535 4.897197485213583 1.4504639371800374 0.419622033643987 -0.473601573184236
Ni 7.29576874143366 6.623482424894058 7.358090460445259 0.4650315721270379 -0.1458540543540585 -0.45527963494659657
Ni 2.522149443798108 5.3134070961111775 2.854226195780225 -0.2337040213895072 -0.16542297762492156 0.187639880041593
Ni 3.2700813322586724 4.301894242011518 9.490142633160325 1.6054487501907706 1.967281383630115 -1.6034913693540835
Ni 0.8567482263876428 3.3165741239864235 3.702465208920623 0.4945606919344063 1.3257957728749747 0.35810067720073807
Ni 0.4576219071488662 0.47890316261175164 0.5229365596582078 -0.32689674079410797 -0.7181281391105439 0.171470212260266
Ni 2.3838221968832163 5.478155477566579 7.500656782888088 0.5457611260676213 0.4355916695993659 -0.2741065935762699
Ni 5.446874023670761 2.9016746066894896 5.081815619612331 0.05886386421574378 -0.3536585822689845 -0.2068946145061469
Ni 4.05197150463593 6.987010559230656 6.577123017870419 0.9748864712163532 0.7417534918389677 -0.18680118619038152
Ni 0.9585609537549854 7.50117204982726 2.865551105315639 -0.5903263142725059 -0.10280041769769392 -0.5823088432846681
P 0.355156873762785 6.048338543890156 8.271649607658182 -0.6832994614671329 -1.4432491645991532 1.5309631202773697
P 8.583479292431212 1.989688668109996 8.197572676401329 0.5022230935756706 0.4166457246244825 -0.7258774440386595
P 1.6850142504780883 3.6121856904896363 10.65116512306754 -0.8994091668136446 -0.835239059893639 0.4544859354007076
P 4.111053619806567 6.432934152725515 4.023859307853564 -1.2116318505353456 0.19725194921006028 -0.9060305287849042
P 7.085386346482459 4.223105907199153 10.547336094042835 -0.1951125342695543 0.47798941783928645 0.019439339671534262
P 6.461812854759594 7.97681642312691 10.561202621707285 -0.8195015945537241 1.3061299190149311 0.7136731886629838
P 2.1013024304479675 8.60334995896842 6.081606150845833 2.215196920633314 1.3862007563255934 -0.0642230716451281
P 7.220735277401429 4.218693248837096 1.8372929892867602 -0.32076003176875084 0.59586087093749 -1.299981125804716
Ni 2.601440255235552 1.6020233838923363 0.30410616224863657 1.2178194674032963 0.23928974300740077 1.5296446585762624
Ni 1.004761395446327 3.8373500341567928 8.47921356553962 -0.8929307581781525 -1.3230760599509666 -0.16571479783372753
Ni 7.7514784966256345 -0.04138945640467763 12.219225655073863 0.4091645857560889 -0.46593248667475246 -1.5080725888324416
Ni 2.6739156564491995 2.0011816789163452 9.273847458722742 -0.24878354143044895 -0.6924150506151558 0.18393903415123805
Ni 6.089660394348914 2.060921581668903 2.856418821053296 0.7725270255763986 -0.14991922556236761 0.37239163990211355
Ni 4.0031947282487295 7.469315031797261 10.780786734054473 0.853010524944447 0.10522265398594136 -1.1552830394319717
Ni 7.569024666090182 6.364670419223894 11.775055503975292 -0.7101222380869318 -0.09021281084067044 0.4643849396819744
Ni 7.651257249768996 4.504182195329629 8.40851875876648 0.5894739935745396 -1.3434307123479188 -0.5001078470048806
Ni 2.768801515141363 8.453136855885756 12.610391830977528 0.5690992865729295 0.7287953890164028 0.4693577103062175
Ni -0.02188788178843516 5.320185962580423 10.31876587245151 0.6992220462346603 -1.3914794882260293 0.7276044540320953
Ni 8.725716721083081 2.6319908340403466 5.785925151208972 -0.5521935119565264 -0.2785931685927137 0.2630914734126888
Ni 3.7058564693429736 3.2002096735567975 11.508992303808306 -0.25591192494511406 -1.1158677708591427 1.2338662364535136
Ni 1.5344448457885482 3.765459333015964 13.018833153251402 -0.26366174409386206 0.004865812732733555 -0.5488472211921128
Ni 3.2071986666147128 8.847142481518047 8.308407143173495 -1.863398788611836 -0.10195349631636635 -0.12434574796863745
Ni 5.687642550531275 8.19719353494786 3.5545516215930912 -0.03300010907510446 0.23222435152018714 0.9467760861333824
Ni 2.9509355878244934 8.431831846982412 3.8837542072797575 0.6284334055568725 -0.3278421354265128 0.12868936964931385
Ni 3.6760641734451163 2.927209555182134 6.779136893029396 -0.6105994626992451 -0.8636518067083772 1.4948247226835998
Ni 6.214502995834416 6.116300791416732 9.409927264732737 -0.7131075459675009 -0.7985882414398247 1.2462872358256858
Ni 8.045546089499059 8.950753161609308 2.764945235442349 -0.15590423950120894 -0.49672581790652515 -0.4521562588262664
Ni 4.703373065449527 0.277752633654046 1.6318421740122433 -0.5428786623135037 1.4071938136374926 -0.6745924206114382
Ni 6.099993140948262 5.906731495004295 0.5127518152647912 0.7639130586551424 0.04298730219480339 0.13562749153004383
Ni 8.521354909694189 7.413686301431712 0.49695395017231186 -0.05624802385945152 -0.3139880031522399 0.9632828255391539
Ni 9.292619985435689 4.9687264031843545 6.193765328720479 -0.7821897454771432 0.7599936689960782 -0.15597648750004103
Ni 7.487002209000036 6.427808891149712 2.691777330079957 0.027370678703468994 -0.8008045323648532 -0.20318785507852102
P 8.39865925378857 1.7657394042816668 3.432337429653683 -0.362345311409705 0.6028347311521618 1.099796576328893
P 2.1637191632214 3.3103251419581703 1.7268586766269283 -0.7081126638560707 0.5848817462181668 -0.15951509678091885
P 4.6769702027862925 1.406039228234305 8.166349692512792 -0.20995731259187064 0.018157130525000988 1.0859211038983814
P 8.490639883993914 1.9513542695857977 12.606714615675815 -0.3209058133179957 -0.05385869769166854 1.3368800557135943
P 6.528176313024554 8.026652968396094 1.318343353250087 0.2881882684803166 0.2951150775071369 0.47502210768084635
P 1.8143334618961113 3.6110345622212736 5.827977876758754 -0.1328473576817454 -0.4689956989811084 0.6381930560467977
P 6.936963887372802 4.11377612952063 6.178816192327452 0.39501271973573904 0.8069741515106746 -0.027895697969003572
P 2.0663391932811166 9.063874353822516 10.561950855081719 2.365960239363532 -0.17521708089720792 0.003895992620296516
