# total energy = -340865.69128004304 ev
CRYSTAL
PRIMVEC
9.29298220040940 0.00000000000000 0.00000000000000

0.00000000000000 9.29298220040940 0.00000000000000

0.00000000000000 0.00000000000000 13.60121879933315

PRIMCOORD
 96 1
Ni 8.140912460675967 2.9833353136695018 1.2776605029930233 -0.25812770164951027 0.5497121402955695 0.025568592497723707
Ni 4.273805263090945 3.8489022457907134 10.602585298863758 -1.9223986641848116 1.647934173048491 0.6836838413897451
Ni 4.406007225431847 4.616799936789833 7.033925007026437 -0.7910860195255085 2.368696150237456 -1.270034973064587
Ni 2.8375655975666336 1.1902637242055039 4.780787614861849 -2.6142552711933367 -0.8754212885394794 1.5513589103249024
Ni 1.3786324699281314 5.445250698688243 4.288600619778907 1.2619478251810783 -0.9716322259451138 -2.0787700731304266
Ni 1.5174975003836428 3.2877455259850468 6.180788367666873 0.2840079118503818 -0.8722243788687364 -1.9853312991532905
Ni 0.7438502414033401 0.3411816129050799 7.308818849822288 0.30772196763787 2.2965466246563992 -0.888388904443741
Ni 0.02542466953243889 1.922606465962651 12.948836512359948 1.1969529083669321 -0.2626880673266831 -0.9172153417571299
Ni 1.6052511296810663 7.19381819721659 7.735801636500553 -1.854581190320206 -0.2948178579816923 1.9991028990160862
Ni 6.569023136478088 3.068189532573957 10.259848040767068 -1.444178618391958 0.3347375769947654 -0.38881199024166585
Ni 4.781452992375106 2.7855899490798723 8.175407080668458 1.010664657257227 -0.38778303475651926 2.462976703389597
Ni 8.388356693155314 6.36868502990244 8.48835754346842 0.9626336219909293 0.6471430661512337 -1.4858932245219247
Ni 8.144964200840498 4.029966707638748 7.9167796736157205 1.4383152176326455 -0.252956441861216 -0.6758080381860941
Ni 3.7701070511689987 6.432750848008597 12.975222076234159 -0.22129562042282533 0.7792723147200321 0.6972147859966444
Ni 0.4041424954480189 8.908419846429878 4.948408848907104 -0.10260064298206201 0.5078566377123641 -0.5104369968450305
Ni 2.151436855438427 5.307919010267474 11.517538854678524 0.8001280751231188 -0.9218145310920381 2.0712992186746777
Ni 2.304036913332421 2.3716619435555866 11.971534481517939 0.5880316047010582 0.18205390131338323 -0.9335642154287986
Ni 8.414246941087395 1.737267232381394 9.97722801271252 1.2869394621294095 -0.5658581539278126 0.1875509198722125
Ni 5.941932709178488 6.87760589772454 0.9249063395675494 -0.40759338461422706 -1.3512319535598922 0.007450028520142009
Ni 6.073019513675942 2.672141224472974 6.132897914079947 0.14104814832498289 2.7086620655106963 -0.5355870137480969
Ni 8.112819776003075 7.744882738539041 12.083050265862859 2.180202149725684 0.7648157729750699 -1.3667377625049753
Ni 5.668858432263866 0.571364131266038 8.762490291036116 0.4835561132937865 -0.32888008977272387 -0.5018729093251034
Ni 7.359948836944434 0.04995628349191555 4.217764864264811 -0.31757494917254986 -1.1119707497975817 -1.2981021636144483
Ni 5.7368923536962955 4.108994226811182 12.671425200732513 -0.12335330214838112 -0.12309927715604607 0.7117343197690581
P 6.319608791808647 8.328779385369042 5.815011019226318 0.4827567573209428 1.03328059488453 0.6882100113948728
P 2.2026783583449174 2.2503792350984573 2.1770250814545715 0.19632866606484253 -0.489509502663744 -0.19399898949040137
P 6.9601926290139815 2.2168222769926653 8.227934732287729 0.8898289793243772 -0.2013978530576338 -0.4692386682298499
P 3.9172985935222644 5.776052979965421 4.016113659328501 -1.3613279043433135 0.7801269494108435 -0.6769038423534341
P 2.1644842022067827 7.902435955854354 0.2369440920850717 1.8225758410582034 -0.3340135543445473 1.2823968370640495
P 8.13341302417877 3.346105453125555 11.595310891978873 1.358187301831803 0.4830444637646907 0.7398457332932935
P 6.983462256013955 6.196421022035624 12.674267923935103 -1.0601697059658903 -2.8692032895632846 0.18572929328244142
P 2.3589119722121508 2.7947342433961557 9.549524090628823 1.909688672817311 -0.3635493590201352 1.059689423895362
Ni 6.252978110662557 7.6166581725064395 8.994649426674588 0.01846103491866498 -1.0668854274231692 -0.14300141539661176
Ni 4.971364373114506 1.4201256346864704 4.312851585681115 1.7832695872594124 -0.541415704614732 -0.7398696445526934
Ni 7.4310773213924355 5.29707410023993 3.1889007226363186 1.856932721271518 -0.3331926011051487 -1.553767776876711
Ni 6.133414603880745 7.240376037180593 3.697328133112692 -1.6114592180509086 -0.09002306342736754 0.4839183817292118
Ni 0.7045715942624506 3.9175866759651554 10.437139551911432 -1.0194436890014378 -0.3627176071474592 0.6692920914444473
Ni 0.20131386968866688 6.506481367424646 5.765570496236998 -0.5345310616797568 2.0032117789781374 2.4622488240846367
Ni 1.787811761635729 9.168158694133254 9.119766419516777 0.49019470165622664 0.23758741560431337 2.4612849175094706
Ni 0.22114881053081664 6.991528564414905 0.7261972927415393 -0.2739870372792701 0.7124133481139537 -0.46380901257384644
Ni 3.458504070763206 3.1362885048805884 3.735887503444557 -0.003972868604818964 1.8748044593456163 -0.35501663895877567
Ni 3.263528014818142 7.070212243252275 10.45593646666097 0.4735123559045394 1.0928692530814403 -0.41075481306134426
Ni 1.2185980264111422 7.641777102930133 11.900821393366622 -0.2764712371537045 0.013225240441022386 0.49391585926155585
Ni 4.3778866618128705 1.736904806082273 10.256651254949178 -1.1908794484793426 -2.564721683239583 1.960703216191965
Ni 4.40428802375653 9.27697022070781 0.41879752810734716 0.19162868948601192 -0.1406632541817384 -0.8176005208762693
Ni 8.869677404352048 5.154705615559583 12.771353565785791 0.6338273228789343 -0.6170686153633567 0.1806135693224309
Ni 7.086456375838518 1.7703316624396628 12.663359821629765 -1.6934205875160644 -0.13695135254778995 -0.0620818569324092
Ni 6.957572008081876 0.08667750197849484 10.74644530715972 -1.7455216790866777 0.30914378768606116 1.1174274020367787
Ni 1.2049931007210621 8.525799897360429 2.587822281333374 -0.051269596808253645 -1.5815853133096118 -0.4987595605071023
Ni 7.091205089655206 2.2705357131188015 3.736812155156417 0.9443317383579479 2.324850870917732 0.403066443278151
Ni 4.365926593941877 4.824284346545586 1.3129255111956986 -1.922303019147212 1.2413679441471976 -0.2116293009776549
Ni 6.234280630820725 4.86669751652477 8.401499757638566 -0.9219263740795541 1.210243197717935 0.7877752099847207
Ni 2.0697608363878017 5.678643942340131 1.877920232579236 -0.8045704271651885 -0.36274640350286563 0.022307919468580937
Ni 6.376045071669204 1.3864014029041605 1.6831783597812964 0.1302374308627241 0.07702716538833185 -0.09268389808898231
Ni 2.478633459688451 5.147345573792819 9.219667834922173 0.3742207226910523 -0.7361829397297256 -0.7157107879183029
Ni 2.7328243971206674 6.2496976880064095 6.065939190668243 -1.060338884553903 -0.643794204283659 -1.031515018343675
P 1.1263930587219508 0.4062808106128327 11.173346315596131 -1.3807965545908865 1.1296496551345834 -0.38671242740015976
P 9.093628978262732 2.0385271237891955 4.783739065954178 -0.5636714306891389 -0.7691853627976754 1.2133190084297814
P 3.2298223689998897 4.295457911217917 13.036047431506894 1.0099012967286414 -0.6368123736491872 0.6430460132637248
P 3.8338569078861777 2.800551650146149 6.2040737927362954 -0.7631903215565049 -0.24130831609932638 -2.7917359513137407
P 9.133932641321392 4.947574339120923 1.4723187389527044 0.890054465071622 -0.03652277751638226 0.1678848089018528
P 9.08618529965771 0.18134975639631756 0.7212450626184219 -0.0884480056307638 -0.45858118851600377 0.0033030962313039887
P 4.836179363542376 8.570880153181863 10.427836347602456 -0.013536858144170234 1.155321605979391 -0.31516196885568304
P 4.906908249763142 1.719276019173747 12.590131123243268 -0.7771051318653842 -0.40019632081920753 -0.515604399978583
Ni 8.633328992415018 8.623608533212952 9.564744136595499 1.7838555416698698 -0.9751394677674238 -0.4202871780318117
Ni 7.107755890648397 8.851853464820918 0.21489277502906665 -0.2854035066463278 1.1757487634854913 -0.7340404394654262
Ni 9.053631983611021 1.070086880609795 2.652931701321358 -0.2642039897505772 0.5245927195201224 0.5942017380675121
Ni 5.7463990743117 7.793410690693138 12.23354825122195 -1.9738492666556198 0.6750477629813019 -0.7560598811593108
Ni 8.440564666192795 8.285223178600322 7.096354330997332 -2.5754604098133256 -1.8189441578428867 -0.3574874690967714
Ni 4.8454816385531485 6.771210546477457 5.90820568950157 2.577022612094123 -0.21431918910499217 0.23545545686297512
Ni 1.4925644296005245 3.590520173463534 0.5195538978593881 -0.40835648803249674 -0.12495509941786222 0.5633233033211008
Ni 3.7678209775899276 8.212310441602801 4.266879203584923 -0.382613831850754 -0.34715703370504086 1.3068382579358655
Ni 3.053915512177807 -0.12270174681291837 11.965019171817586 1.5313022487843435 -0.07430899512622043 -0.7672202686515045
Ni 3.2684997602035195 0.36095800796044863 2.5776752742561886 0.6809229908151564 1.2996288846716197 -0.7965439573162861
Ni 4.402717509793673 2.441768199980426 1.0223943675400813 -1.0797766815635403 0.3203309146511322 -0.03745814484645807
Ni 8.742344964594206 4.437017906461764 5.5160418478886015 -1.6285326285934274 -1.3272579592427982 -0.3681855722405659
Ni 0.5988239638627717 2.7053636352257313 8.432239083593245 0.5711026901562035 -0.9520671593289927 -1.7276288579666568
Ni 2.7943439381509485 1.6767420404281888 7.59923197260614 -2.2736226688703747 -1.1154250268947692 1.6012537382728165
Ni 5.683020936875671 4.53961242805909 4.454480348991976 -0.8073215075477644 -0.4806890761586367 0.08037577014559061
Ni 3.6541678073783967 8.485663507978286 7.859695672907759 0.977334932756846 -1.4371975590884345 0.31916903313254713
Ni 3.7967593236274344 7.220275317052422 2.0321038146109283 -0.06427526503930221 0.3650830220558422 -0.1608700681469165
Ni 4.70489740642232 0.8680955525312328 6.683897404528197 1.5083782929983185 -2.09227016449939 -1.9150481373570114
Ni 7.563530194248114 1.02671653348165 6.2260805034785625 0.9377692546490818 0.09592914449915738 1.153996459410064
Ni 5.875236977158197 5.391518676598049 10.527152305140042 -1.0051995203775979 2.3943663013100505 1.7634414967898921
Ni 0.6977375352785129 3.305402191839659 3.349708342258099 0.02754577082875256 0.7801858276732371 -0.731844974476004
Ni 7.787658334817346 7.91534390789228 2.1741823582519793 1.3468011714820483 0.29943684481094235 1.1912214051997936
Ni 8.129119666481492 5.426116448691062 10.406564711738662 0.3615405561202225 -0.782885228882271 1.6396261674034278
Ni 1.9713388637213811 0.8455944551450365 0.3825548981952481 0.08938363007115575 0.12191091327489971 0.8615005646933293
P 5.596568325062271 8.75673979375673 2.1076854960471034 0.12640057361513715 -0.703352523463266 1.469894277990507
P 4.262216914501102 6.2297456555906985 8.600403957087181 1.20372313721123 0.69209931914695 -0.2923961359140771
P 0.8907908732418298 6.394184972589311 10.255890159721023 -2.1363157327553792 0.18029500964074754 -2.2007290660344423
P 1.28073090425532 4.864225583305124 7.490885095133022 -1.6318904893220672 1.0666229177904016 -0.912916200161144
P 8.974316381995697 6.916023085431365 3.769305996118121 0.30312997739181347 0.5780364411615593 -0.43909248366377285
P 6.555854980943359 5.208521274488035 6.334849282335785 1.1360475882411272 -0.328618351470905 -0.7323496820265646
P 2.2744852304810177 8.633598488893853 6.104756905900506 0.8317084210325612 -0.24491017451797173 -0.4711145450963241
P 6.180009615772864 4.102433381498889 1.652262467168073 2.3001513112885226 -1.7168096558639658 0.8991695399990126
