# total energy = -381179.5718472252 ev
CRYSTAL
PRIMVEC
9.07361377160456 0.00000000000000 0.00000000000000

0.00000000000000 9.07361377160456 0.00000000000000

0.00000000000000 0.00000000000000 13.28015092968769

PRIMCOORD
 96 1
Ni 4.196755044965634 1.2301461083366034 10.852565573052567 -0.12480726098608827 0.4934723439662341 0.27888961678721
Ni 1.4685462355766046 3.5946118903678963 0.5833825508418792 0.911029267551076 0.7012077092061214 -0.5690879737190199
Ni 1.0404531396192607 8.938335226573038 2.7836259052677805 -1.1622602420807533 0.9134155083950657 -0.7005068264843549
Ni 5.935486276691493 4.9063388597844595 0.26116582409792777 -1.1056543206612506 -1.1008067627609623 -0.013444298430363943
Ni 1.177718768183116 1.3999043476809432 5.18912619804849 0.8628267397039204 0.11605034072906466 0.4946175133142708
Ni 7.2760764113950485 7.9427964749357365 7.7034699317335225 1.3562862281543482 -1.118473841023422 1.8159899603105691
Ni 3.2515748495505297 2.3537952122804273 4.843775385729023 1.1277100149097095 1.1377807688821502 -1.3724720938855912
Ni 6.423310971857976 0.9338744727028775 7.409022999821649 -0.7494482893800641 0.8705989274501716 -1.5444642400875983
Ni 2.3758894617220583 2.2439137499649666 12.163103899070013 1.804350319189112 0.36874350162656494 0.032708545976614635
Ni 0.6494520692440283 8.226800584801461 5.037625884259161 0.9770788508819818 -0.39878761339713903 -0.29078919643827333
Ni 5.116565416381231 4.130000468726588 3.789995829619034 1.2763431746708018 -0.4655113399769337 -0.5557866286244235
Ni 7.428141103958616 5.130375456483967 11.608511924605256 0.5175358126733409 -0.09786544228992178 -0.5950100929014204
Ni 6.3422563803745735 5.776416754325487 6.899277361235849 0.4904710952460649 -0.3463401942307003 0.6994909836253308
Ni 4.588508317919392 1.5116459008118184 2.7942501995886038 -0.92919616826809 1.6088516052247326 0.3804358503628287
Ni 5.839414854478768 4.928623655114499 9.293276848609057 1.1253523133108103 0.6106290303856 2.0718545769575156
Ni 3.7541986087167256 5.9655562326050715 10.054202799378816 -0.30277747914840114 -2.0696503702173454 -0.6843821530083504
Ni 1.4351825578776825 6.055439450251393 5.5656185600634895 -0.4560237122014727 -0.5673974733904745 -0.22844380143183238
Ni 0.594265443154114 7.220010552134336 7.439035791968705 -0.0017316379791260498 -0.2600318606507586 1.0002738009412064
Ni 0.5841810288504473 1.1365245618319857 13.125902330271899 0.06965015619797037 0.8368490846932362 -1.3072419211321873
Ni 6.7101823436635595 2.896197694055292 10.951157645160523 -0.020213241723081317 -0.24930239004839644 0.7494225783484513
Ni 6.097731563864305 0.0941695927741352 11.99391548266815 0.6854085373903356 0.4802728145568245 -0.10304338694643544
Ni 5.1783567259079275 3.546167866643516 6.135642029405199 -0.7800513589779017 -0.4593178095717122 -0.11472339438752499
Ni 0.16455724395216617 2.26470139902894 1.9037358048350983 -0.6449918241361859 -1.5634495229408494 0.31112507978214804
Ni 7.037068352034888 7.040298558524095 12.962967448455323 -0.12695773167018778 0.18671094046942038 1.5867475742368415
P 8.001938289252184 1.111944142227313 11.52003965389453 1.1160991701436584 -0.14117618926241493 0.1385032704159421
Ni 0.7000075228842474 4.579761354280078 2.6355653984449074 0.7922720694138098 -0.602587391028046 0.82113295950956
P 3.9795871738625594 5.244285603297204 5.783492358315049 0.7973019185282334 -0.7307113750921932 0.7122094596332638
Ni 7.146595943414733 2.047315761196256 0.17643188224549758 -0.06945166703391911 0.6838080256724353 -0.1455655765793622
P 6.255313013577981 3.0661646265155076 1.9300574509152735 -1.6071420787327935 0.6926415648036652 -0.5296662773882878
P 8.353431938069386 6.383214672768627 5.403015772509569 -0.3931029043075359 -0.3275613709613004 0.165319876388154
P 0.4782683651821198 5.601187125899708 12.72776304797234 0.11043967941050659 0.37633854036500347 -0.05107650696084107
Ni 2.237970532969374 4.114157939147497 6.609584095559077 0.9059626516614462 -0.9403061621383225 0.32087881673480223
Ni 0.808701249161963 2.0102046810253036 10.557866394678896 -0.20546765225163327 -0.4908624171472126 -0.8338401226635832
Ni 3.385002339505018 5.013098998975517 12.735412104349875 1.441547351416698 -0.4534878331534964 -1.282743935990823
Ni 8.157850194038854 4.44947333467746 1.0644464964153608 -0.5184580673772942 -1.1944764218019814 -1.658393420708602
Ni 1.5673034474545133 5.07673225209016 8.949706279304149 1.3709073205016324 -0.6271131440835522 -1.2475056816138193
Ni 5.536165609883804 8.585362578717238 4.042292196292242 -0.40875578035344445 -0.3887019470263628 -1.201895339973872
Ni 2.6803092024886728 1.4844341332243645 1.2298085699057089 -0.39979985671173723 1.0242624505463198 0.4381509456861099
Ni 0.8654748502939066 2.5834483758811135 8.09635014751301 0.5356158101035033 0.3930895345710972 -0.19111164064027733
Ni 8.835095649510668 3.3415397297204548 12.244219283765432 -0.09999045905272456 -0.13937667415983093 -0.24446717344328217
Ni 2.7500489976461155 8.49689484481338 6.183609688408559 -0.6579046755431122 0.1489848866735563 1.414716604377099
Ni 6.848999560175883 5.840422025603212 2.3721402445272814 -0.7780502693874729 -0.4023275082295974 -0.29677601014932753
Ni 8.137797507687312 7.6187414340493325 3.3093075316541287 -0.9258516772758892 0.9299585003554114 0.8899464787388479
Ni 1.5887081022523806 6.551366882482097 3.255098133763337 0.03593450911308005 2.4417036529434335 -0.07594241696458534
Ni 4.746797509504299 2.379328361327141 13.062011386527217 -0.22042530200273003 0.398839549680997 0.2410882296687203
Ni 1.3370514253474008 8.166352170107357 0.6632076676643619 0.978577032694063 -0.6127802724006479 -1.1499405441731356
Ni 4.583427094228504 7.13958203999856 0.1576431502870645 -0.6388520297870353 0.24973536382075703 -0.21038257305474736
Ni 5.2547021118635255 7.148873420461899 8.45800896579611 -0.39849142231295887 -0.3013345760542875 1.20457854323299
Ni 4.447985262025129 3.6602413385039596 11.063388266071646 -0.9145444797931862 0.5411760778001001 -0.8083782309470531
Ni 2.9371015447669433 1.7255381973570172 6.988241421810944 -0.09824288023399855 0.6434504477909951 1.3960010302454668
Ni 2.098509089881956 9.020859743481306 10.824942770762975 -0.017818516238659637 0.2522154499301334 0.1414628672648983
Ni 2.2807435481101734 5.777251526788989 1.169830168403012 -0.41902348082803964 1.3657538013251511 0.7651469310622435
Ni 8.71936170633695 3.874759714396786 9.687431907118134 -1.1064698745840107 0.880065215069394 0.42872502438651966
Ni 2.9634966871183615 0.11251643974373567 3.87509453074356 0.495405813543521 0.09939216334709333 1.3825230503636898
Ni 2.830858601558708 4.6751522554627725 3.9288792835116135 -0.4304000980960974 -1.042965683382778 -0.5471428369064965
Ni 1.7365444908160306 4.394151511742913 11.155194182468145 -0.14259903775187055 -0.3063968210685433 0.2879807804552008
P 6.201479263295766 0.2901006709334168 9.648866326665665 -1.296768275294373 -1.04953176663607 -0.46610783591035204
Ni 3.10198725353627 6.309718401525421 7.532116551094793 -0.1633432122777574 1.0367970926782208 -0.0735093820430605
P 5.33931355993055 6.097359545701223 11.667860617314833 -0.48447631111521083 -0.904328972712765 -0.3466075889594741
Ni 0.2884374775360243 6.505708458173971 10.24252928186786 -1.0611215283561983 -1.6550113916102465 -0.2948122015547374
P 4.540354649834492 0.6740088974529931 5.732204664046518 -0.14593015900763254 0.4455968604411939 0.11964731405170363
P 1.8626949425560677 2.700470772205019 3.1182589650449666 0.8368663110844169 -0.17991577192445787 0.17467534946112498
P 2.2239517997507625 7.949746863055774 8.853863512157513 -0.46905226325065663 -0.21267239753018857 0.20394658762141651
Ni 8.993992773215734 7.99518752063429 12.007620268851575 -0.08592215388511654 0.1720746786134843 0.6449655988839409
Ni 2.18562485533949 6.819256254356718 11.486547130880588 -0.29363540763781687 -0.19866477039718686 1.7490561746024975
Ni 7.798825445822656 3.480502124052518 3.3173286061947453 -0.8504355651284192 -0.12085907497161766 0.20499096972553085
Ni 3.937921139597275 4.012351993055055 1.5316532190946914 0.13224006311504966 -0.8613866648232843 0.6619423359475954
Ni 4.407190294678282 6.201624441115504 2.636481833432014 0.15839178180975302 0.6457685544012104 -0.9701474138694711
Ni 3.31247694493132 8.436464577346742 1.8103637827081578 0.22252049396886192 -2.020918966449913 0.30574864596158313
Ni 5.254393608996578 2.30411717708826 9.096770503339057 -0.4582112067710947 -0.04383936578245354 -0.37326838608011204
Ni 6.880639251265396 0.9849135499551043 2.5133084343580134 0.1150301269946664 -0.01712868926048663 -1.0247800136126868
Ni 8.026682033904065 8.97938425510443 0.7161776099191263 -0.8063282903965598 -1.3483865136912971 1.31826424038462
Ni 3.44310976185582 6.855314795334558 4.652249547037466 1.009818507206848 1.5795055479624476 -0.5307991054411504
Ni 3.9249821664129767 0.1536180952347822 8.415989967956582 0.5686544857260271 -0.058750221456014946 -0.05033114415438429
Ni 4.4299196970812735 8.010648958436565 10.494347469097299 0.2442082633549407 0.7728934077768819 1.3356868067364418
Ni 7.83450289502368 1.6644455560878182 9.19248079572518 0.41758160617519047 -0.25429547238761363 -0.09057765037925691
Ni 7.490948658223489 8.39037969319313 5.481767480827352 -1.0487460375099809 0.3569321108139336 0.6405345596957808
Ni 5.192030661804657 0.38399714793416684 0.9917813681901638 -0.08697630618124375 -0.12526080358373912 -2.0202173123971985
Ni 0.0026984927244110665 4.817662432764724 7.1649337167706 -1.1443136849046616 -0.11059857358587404 0.006471466656956596
Ni 8.976154048615221 6.552074624353328 1.6221969958208282 0.515128488783429 0.1729822780294182 -2.5101433337730703
Ni 0.7552077593947625 3.682916299224549 4.9347447149392725 -0.9965585568731483 0.07973145169337237 -0.2433214898746132
Ni 4.029673521672744 4.17311828118927 8.15709345465346 -0.7199731627390826 -0.5014741312247879 0.24623557819761466
Ni 6.8818369682782485 7.25790196308639 10.576564390499993 0.12909483261784865 0.5351825792208267 -1.7669919331453117
Ni 8.328996696284452 1.0937969147598547 4.120498580424627 0.34662250135780953 -0.12765141530310273 0.22789512801721398
Ni 6.233064512702876 6.300345358538478 4.529859200828687 -0.08357962179486896 -0.22179467154643095 0.3158451109656367
Ni 0.3811643657264965 0.45429497033623384 7.208930762404079 -0.8141164189824108 0.4832714921738322 0.24923451292493848
Ni 6.704774469878257 3.4717460867994694 7.799830802224353 2.376491992132791 -0.3197740137063977 -0.6775677011896782
Ni 7.376748155770774 4.229764851728941 5.4122590628201195 0.24649963049227872 0.15106722312388177 0.3110245496485418
P 6.166509555965973 7.838150487744639 1.8417838923453154 0.6459919832659261 -1.197678473679047 0.5162528321958593
Ni 6.064122898594571 1.8403919999985614 4.608663536106125 0.31287214438024186 0.7015977455556884 1.29463863054588
P 2.712910696633962 2.968369217693374 9.518122811653615 0.11071633011066093 -0.11143135389981455 0.13044466177752373
Ni 9.015451869696003 8.660092861428232 9.784058634491362 0.009580958820215757 1.4537354088424574 -1.5349480730670468
P 3.3379102842269632 0.21626867598206226 12.734110948140458 0.3500042733458488 -0.2000392821472103 0.2937004565477974
P 7.882783593700852 5.684056440129858 8.842482478451297 -0.5112432947964098 0.8455671812925244 -0.5621981885777222
P 8.110222795550508 2.239367869484368 5.973942973779158 0.292629849191438 -0.32167174494974277 0.7665767215302346
Ni 5.152995975522154 7.70151093852841 6.241140028925895 -0.44936455501374223 0.6834632407385068 0.20285335455723771
