# total energy = -340889.9539222964 ev
CRYSTAL
PRIMVEC
9.08454781100798 0.00000000000000 0.00000000000000

0.00000000000000 9.08454781100798 0.00000000000000

0.00000000000000 0.00000000000000 13.29615400158142

PRIMCOORD
 96 1
Ni 6.4566332572780905 2.460876759333799 11.186945379149734 1.3872338255757979 -0.328282308287725 -0.7150633841422911
Ni 4.734848036484932 0.5834414423524074 5.811562244053358 -0.7752580513543165 -0.9343676851667004 -1.4510138961462367
Ni 2.8524843524342254 1.9190470872320815 4.624455339496543 0.44369372988121003 -0.7379004366414647 1.521168245674135
Ni 3.8855518510910825 4.6295853835224285 4.850237234649584 -1.0072579455685233 0.7521818862611432 -0.14799758305962252
Ni 3.9174476976908372 2.7812524147558793 2.6974838013989064 0.3738044610892401 1.2693598013744332 -1.0623230048634673
Ni 5.449002491882215 4.7587494812026625 2.406403995055404 -0.14292531074303774 -0.526931394955628 0.16306399047444176
Ni 5.926540820666798 3.3023784028926753 -0.008956455472143974 -1.215053988843017 -1.628679695694253 1.1758685768928072
Ni 6.089163307132819 7.967566128432886 12.069876193552677 -1.6491443913065083 -0.11678310513003112 1.3980823382545278
Ni 2.0856667746391135 6.282155436202934 0.2562778129686815 2.07159463842791 1.7882107333147719 -0.03153895114854568
Ni 0.7088009315006061 0.6177583208857514 0.4355168454374388 -0.28579739965063683 -1.2247120807580714 -0.05307708233063761
Ni 7.954030152519006 8.970618281841784 7.102300216824936 0.5703442147236242 0.22867648626792875 -0.7389990690222821
Ni 9.243799712517148 2.732613746941843 1.209177812934514 -0.2503881669134075 -0.36169250831705446 0.6094074992736731
Ni 7.160858302155997 0.9408048333002352 4.7909632869681795 -0.4013180931284766 -0.9676128203730754 -1.3308294786441404
Ni 0.8430078615498302 7.636325354089329 2.4717818502646858 1.4389407670317864 -0.8872956713795623 -0.4780508672048412
Ni 7.8481224966773855 3.775474387904179 3.5558036679170892 0.2991324261966461 0.5541997437532779 0.24838013534444317
Ni 8.066433259889772 4.063272855657015 12.672537813248033 0.6522065967170703 -0.14343953137529492 -1.7140320931188286
Ni 8.424482534180887 7.4328678261918375 9.174970637677205 -0.09165314283162279 -0.21665529343733655 0.4213822108682033
Ni 7.145678023127747 0.8860513565012101 0.08441725005512794 -0.24144047080181644 0.055539170717885 0.4264012613493496
Ni 1.8418466017849984 6.759684680439923 9.365970525460131 0.5459339042000598 -0.0197733259721853 -0.7153120098179874
Ni 0.37865393668727065 5.081141906190435 1.2083602036511256 -0.4008264982040387 -0.04240211911529472 0.6776026681926717
Ni 6.48933762861364 1.9262874716638685 6.768619332997844 1.2905189519505516 1.9576448889816156 0.5036546838158745
Ni 4.059457345667868 4.584644126578827 0.512606499403885 -0.9071666992718764 0.6975150908458827 -0.8293072677902362
Ni 6.381104328588157 5.683565510738852 4.4393068088184044 -0.2531040231826738 1.0065316089254601 1.4083695791131485
Ni 5.500902512282214 3.276269413109795 8.767763059449722 0.3212626824367822 -0.7203117770254239 0.5276356201115042
P 0.5011935822625375 5.842472417239249 12.274610100387013 -0.48869754828540996 -1.4724751513438061 -0.3058113808787185
P 4.388572335874614 6.411337702978354 12.391163937553117 -0.2533081687736799 -0.41482538358629206 0.7902241857458455
P 2.587079294498647 8.78960867104711 0.8777162840844416 0.2439195284699283 -1.3237962259464426 2.091791682201075
P 6.605801528758569 7.909361432003202 5.586259104558479 0.25543909907375356 0.19339169492370564 0.9313926616987765
P 5.034420077918567 1.3150881941404136 12.525468980716346 0.48433335777944325 -0.4033148118435312 1.2852672166333092
P 4.036827737613185 6.581654801255822 8.047403858046279 0.19104324929618713 0.505695111284671 0.18130776717597805
P 4.88990309480581 1.1381938834054632 3.651336770407267 0.1781730782017383 -0.4363712280778678 0.3388893943796099
P 0.38545099519650905 5.57038113227507 3.4568138950676963 0.5243515500435937 0.9309494035137709 0.39190297046216377
Ni 0.587081620573006 0.3413573265433544 4.38009826987967 1.3320037014578994 0.3702488825274978 0.5839936871862587
Ni 1.8296460543673196 6.952731316795598 4.847153030741691 0.37959587096003655 -2.1314301225283034 -0.7010308173086249
Ni 5.991177376792475 5.811248827161393 9.032542192056129 0.47430245590600256 0.958184327970324 0.557275297354808
Ni 9.063862078338474 2.4815441051083473 10.163526578491622 -0.404976001596038 -0.00837382588599203 -0.13847036029547763
Ni 2.378679772710451 5.599442600025744 7.1512968158141454 -1.1578153189355223 -0.12434909040274714 -1.5755164814077125
Ni 0.6912559447338431 0.2993249417390986 8.917663545466215 -0.20290271973793442 0.8073906702228031 0.9560235728735793
Ni 1.877866832992069 1.2912049185178691 11.357866599842149 -0.28978235244031386 -0.22469256191951623 -0.11138096027785334
Ni 4.348118845442058 7.257318028500682 1.3912294213381289 -0.43479771294316083 -0.5936762045813453 -0.9113678818374173
Ni 5.7233830828398835 8.482078565921826 7.743573889155707 -0.48132156753631306 -1.5702840293641795 0.3893092415930586
Ni 5.614423019006944 3.12459380649359 4.530464793187693 -0.18529529106881637 -1.1452547086616922 -0.2916510302179364
Ni 1.0132359312608843 7.960380251286659 7.128612700473905 -0.19637880257648763 -1.7030892209540796 -0.8483930807770936
Ni 5.207299018617318 5.010573140486394 6.959845426015839 0.32456295045460876 -0.2916176058768397 -0.7374178405780912
Ni 0.9290403441670306 7.741742444360916 11.423390716267683 0.613916185777304 0.5705113364291079 -0.3827349308096505
Ni 4.8438353539606505 0.76383693772978 10.518534346248531 -0.7063044070027384 -1.0580359474523393 -1.3058460692259253
Ni 8.669356514555814 7.421775593580531 4.729934204691765 -2.2416751694295005 -1.0035038778427299 0.09819428638425023
Ni 7.346301172176156 6.523304752064646 7.1804146077598965 0.40210279381330105 0.06905108916139076 -1.707659871043898
Ni 2.692223848342439 5.3727286302896395 2.558286729356733 -0.5475033055697087 0.43333244125154396 0.44008904324908715
Ni 2.7534718682158483 5.284263305826977 11.260459355183494 -0.6606048480830946 0.568378349246505 0.5902332403380675
Ni 1.2861084873180793 3.3472924061934966 3.56266431825948 -0.17696260283340493 1.1987200275696839 -0.020550827568158153
Ni 2.029942159702374 1.2760609776799912 2.4479685256586095 -0.7956471565336298 -0.8300832267243123 -0.43044097863636194
Ni 0.9823030467060104 3.5997792374515325 8.190882477369131 1.5865174605039063 -0.6204758412726927 -0.4072794529182341
Ni 3.652533205325292 3.173886561734338 7.021658504749546 0.6677445444516693 -0.6625707135602137 -0.3352893357331774
Ni 4.232935866507772 7.048073643786318 5.891937778884269 0.31131199898197354 0.5476629710760246 -0.7406132075869374
Ni 8.688988221904737 7.567873287974505 0.13565500693558158 -0.16617373974801705 -0.5695775117609286 0.30541028878555787
P 0.29470726619747084 5.692323014618704 8.106957609793554 0.6861744690220828 1.982498714800502 -0.8603222281145119
P 8.607036518066405 1.8917207680717114 7.832299031679535 0.03789163283945087 0.25353699695503434 -0.0028310416908918987
P 2.25918163366939 3.3550687789332825 10.329316846703394 -1.7512711799759455 0.2230015473703385 -0.7606683264655997
P 4.455116646994865 6.4607667264329995 3.451787414884374 -1.0031413522969885 -0.9563236206125014 0.8309406896286012
P 7.040142833737447 4.317449412767387 10.12506078707246 0.7016810492981141 -1.0226154018612001 0.48794524350041774
P 6.462819834189066 8.036872142021473 9.968698462352918 -0.25955774922781755 -0.23915835963585913 -0.7571274031918767
P 2.492781690481146 8.706239777784239 5.666488378173139 0.1681933412812071 1.9191235929779658 0.6037539005323215
P 7.316149558714298 3.939187020081384 1.3977448588719779 0.22038365013151723 1.1589404336789009 0.7301747858624328
Ni 3.0845400361551354 1.7467041348413286 0.30551333555959204 0.37970977083008156 -0.2120329641739768 0.4036097173761307
Ni 1.6830850480460915 1.4379385312433681 6.821246117205298 -0.2715203209063324 0.022758119632122095 -0.2077255950478745
Ni 6.9272128226062755 0.997474241186668 9.145426780449334 0.4383093256408451 0.4182534354312345 -0.0067614870935496455
Ni 2.9720097451180654 1.7936076540650627 8.93952278388499 -0.5548245218214702 0.3118537304180564 1.217855205737238
Ni 6.4494019573938965 1.9946396077551671 2.315777456720318 1.8750294308722288 1.542090597649099 0.616591418616622
Ni 4.314878485798509 6.964641158690293 10.172781007124824 -0.3548068369408147 1.5719475331095314 0.7211399293536741
Ni 7.614022789748002 6.223596442417113 11.29514870016816 -1.1454557689289047 0.7994451901234813 0.35462531705762795
Ni 7.801582359357379 4.290586405534271 7.884512468971499 -1.2759626514029314 -1.6089284812092548 0.0032097651865493106
Ni 3.3503266450896283 8.515455193779273 12.187866297693265 0.7388103500502438 -0.6676954363812888 -0.1233489312730069
Ni 0.07993765963691699 4.974462063803392 10.207111512479557 1.381533175646595 -0.8519088072398361 -0.2681123236660479
Ni 8.942592452516736 2.457733505866549 5.583227591026626 -0.2671936685065205 0.9086669379664867 0.2772623655964322
Ni 3.7296882680344097 2.9297575142620538 11.764609957687618 1.0432395058694548 0.2862182892381393 -0.6060416681252336
Ni 1.3490098948534528 3.4447241791306547 12.466846395097372 0.1772780771912947 0.545332523170635 -0.12270769814458221
Ni 3.2002680879450147 8.809403900252711 7.8226721365950125 0.599620080869606 -1.4045381211822003 0.19273889183105514
Ni 6.104498023470154 7.89514411501983 3.4792445515300865 -0.8751613500098733 1.3074278118907483 -0.44060429232260895
Ni 3.2991533884970865 8.49380671686466 3.646403861064155 0.94627549234788 0.04389155917662763 -0.731968387427746
Ni 3.507843615808265 4.619119984695052 8.995100229150722 0.10739626459849246 -0.08884138441444055 0.7745695099277241
Ni 5.307501578570405 4.611834177525299 11.45205700619805 0.10483673140143236 1.5587269206541994 -0.7953946742031914
Ni 8.056058706538327 8.949224172259779 2.4978817554999733 -0.286625551978887 0.2926676444079088 -0.36664856677074914
Ni 5.110285134869448 0.45681193345067816 1.4997261732438143 -1.1371971284645381 -1.092408511394938 -0.9181064861128319
Ni 6.45716924558609 5.786338997660816 0.30331578349679494 -0.8529773577136666 0.7003602736041615 -1.0947086202830243
Ni 8.010190825740219 9.045057064820533 11.281042214665424 0.5024084701135991 -0.28058088844670387 -1.2310457362855833
Ni 0.23424142587183638 5.077053859773492 5.764161800076276 -0.6000527975316504 -0.10071499592357493 -0.05588215587960053
Ni 7.532143762290417 6.175802637529245 2.3897838152336295 1.1163740210715998 0.049819751735604524 0.4512437743143261
P 8.723700278258384 1.776919340136339 3.121551391504625 0.0971290783445295 0.4707247658570732 0.9187698307284435
P 2.3301955422054985 3.5550287560073883 1.3579490896851698 -1.2306559570463322 -0.06353015934316156 -0.042446084979352705
P 4.762010833788624 1.3290329746959881 7.844970158662541 0.09839328976893377 1.0037185649566973 1.3940513627182636
P 8.82928089038665 1.6615546702501882 12.158042636399522 0.026475163472393114 2.1204368567415934 0.38243822550483814
P 6.801164724750511 7.8589876155988625 1.081121121605892 -1.436262705978991 0.353915435474797 0.25812101678129096
P 2.001225904760243 3.706786123551932 5.870650866963863 -0.9288521546651101 -0.6328857849012712 -1.2294272268455535
P 6.902657290461835 4.163320978301018 5.818343858831688 1.5429465178914912 -0.5328012234728436 0.9823030753953986
P 2.455871173609941 8.763717710406468 10.040152062992538 0.8889270363353982 -0.10913227345299269 0.2272119859072603
