# total energy = -340873.38524631306 ev
CRYSTAL
PRIMVEC
9.22592816517252 0.00000000000000 0.00000000000000
0.00000000000000 9.22592816517252 0.00000000000000
0.00000000000000 0.00000000000000 13.50307844084064
PRIMCOORD
 96 1
Ni 0.5318959612222223 6.782477775845225 9.703608586662943 1.5631060235585015 -1.023056860273993 0.3258161061354195
Ni 5.089769112126261 4.6072530846317425 5.967253569797827 1.1439097645980234 -1.0330437962833758 -1.1176354042825267
Ni 8.445211399921174 1.1614059296586512 12.302208339958934 0.6789972345473532 1.6851496057565238 0.26701086307175304
Ni 4.253023584141264 6.769321602705508 6.373817146119332 -0.5633667549645265 -0.8078421559379249 -2.3645559028168375
Ni 0.19689975255808823 2.667833883795553 7.133351806370125 0.4023488483858361 0.021467940065788834 0.01453676016359432
Ni 2.2727704265614657 2.4538200350423915 1.082690313089182 0.1250016363850815 0.38937943270936165 -0.0615007876179586
Ni 4.743132550271117 7.952888211103009 12.254975279646105 -1.0737816403223701 1.0581547324183904 -0.1282949624243726
Ni 7.860536673144689 0.8204174808442745 8.379794035780588 -0.22150130867572818 0.11213506483505849 0.07567450801517935
Ni 5.159489449024465 7.434372613067695 8.279236957576499 0.8923226922805084 2.4594154684008998 1.1399659494589272
Ni 2.3329972836835347 5.694261131963132 7.807871386503202 -0.7924083378813579 0.5322785182001543 -1.7180036761720672
Ni 1.1606032739341383 9.00228215051671 8.572969281258379 -0.7263854940233296 0.2715432037244679 0.6571865664301649
Ni 8.401074561000833 1.344106979227943 5.471690235112434 -0.7384005162063347 0.5045676825484471 -0.9053345311591441
Ni 8.92243174481948 3.4626567955485217 11.080179760872678 2.741293992613105 -1.5283475370313935 -1.8383169059425435
Ni 0.3819238907645331 8.013345716421776 4.241627718038755 -0.030152612323980324 0.6305653642982108 0.22743412922039538
Ni 0.6311328091484038 6.253979723856773 12.189377087319308 0.36670230282682004 -0.35329785649545603 0.7627154388026154
Ni 3.2751859412714928 5.548325404947677 12.224970717033914 -0.7957289176141586 -0.9947641839768868 1.3385962670737528
Ni 0.8013650172041419 5.8795731191190574 2.7525352823657574 -0.7903601971030775 1.1999351309237076 1.5141463058303473
Ni 0.8659188344962863 3.515189228828709 2.7724522154471183 -2.457998790559031 -0.6398200501272594 -1.3704972295474074
Ni 6.025499620206645 1.0498552358070983 2.424504649241936 -1.1143598188550485 -2.5842911207310784 -0.49052277441960684
Ni 8.139510280016186 8.973884744539115 0.81585710469914 2.280261514343131 0.5337401903473453 0.5652421176103685
Ni 6.166942320350401 9.45795995384332 6.478304469595172 1.6558256599814256 -0.8258051681742489 -0.09978837034424749
Ni 4.813876965162665 1.309971046116476 10.712544987190048 0.48953624213662145 -0.46436617062889696 1.5857433013420432
Ni 2.6230881336359273 4.352340697639896 5.621695518910448 0.14886353060434362 -0.429771206262847 0.24042334239121177
Ni 5.049700907395693 7.866699592960489 3.8066390579560525 -0.07733878309147971 -0.9261152153499211 -0.3357991854900604
P 9.224119586101905 5.891299273439239 4.7721628549004524 -0.5640157014024351 0.20778010243489375 1.144568481227945
P 4.265718460887582 2.339630725820601 2.0316323498764897 -0.554985987099999 -0.34067065464974877 0.6710111310180831
P 6.842603147760745 3.0460046671033982 5.2277567022834655 -0.7838316519559404 0.5611417222887497 0.2165244242864271
P 6.336570230130787 6.216264130732537 7.036184334064727 0.7395917083009584 -1.266864288646089 0.26341003309437216
P 5.431008506178646 1.201225034336784 8.2438315367904 1.314987626515877 -1.594714651602718 0.6796942606143778
P 2.767353967707281 7.94377299436946 7.3595014406408055 -0.3775546721602917 0.8958384187432508 0.7830186691363418
P 2.7347772164055 6.967512985165111 10.82688929200002 -1.437760116460124 0.513657046444225 -0.9356691775869433
P 4.092981413415692 6.777486548868656 0.7403982406670622 -0.7447585972138786 0.3473187560938857 -0.24034466663447637
Ni 3.0801406002148655 1.7626781006696026 4.254765439322735 -0.8463246282838393 0.3742315213243297 -0.17192426907854905
Ni 7.748746105168569 4.9663261972529025 11.921678486895251 -1.6743226903443487 1.642532285306629 0.6666214865908198
Ni 4.745208384041408 2.915337850709424 9.174260826717852 -1.210519334197457 2.1348957124794006 -0.7058794036501779
Ni 5.221358521307032 1.520728142332246 13.552364005336251 -1.6574544538341005 -0.8835467458600912 -0.14177448496804615
Ni 6.735370188151401 3.152333485781684 7.5487741186304484 0.5220218734691526 -0.5398460461347669 -0.8128918025466904
Ni 3.699818497322405 8.617810058475044 9.75419158138463 -1.2502894150065436 -0.1883574749339079 -0.19883446320583179
Ni 5.707325045824169 5.849441238702287 1.7326071113767607 0.6091850988502219 0.39488313613641024 1.562894678878644
Ni 0.594177432480487 7.097257208772289 6.946145736222906 0.6008452115259587 0.6191021008536176 -1.061113043715766
Ni 6.028368883773581 8.602172110738845 10.326087475471198 0.16150178819364447 -0.5372114367253975 -0.6642553003514883
Ni 5.340022405544786 3.786560671137003 3.272956957098593 0.32946270174907133 -0.01967331005921128 0.4895030749058409
Ni 7.273832242237253 7.290503493894664 5.425090996044134 1.1195141093624783 0.8032707345171585 0.8446760369368227
Ni 7.73351409825856 2.9790244307819798 3.1731693212786936 -0.14002767748026854 0.0036311689946840688 1.8484475666186426
Ni 3.296387123512074 2.8508301630566195 12.120187241273511 0.47120016283159494 0.43756679104786583 0.8097355163058958
Ni 6.0822483025224905 8.245949809828886 0.8713888871292021 -2.7936467951832085 -0.38059474453819614 0.5976537011718547
Ni 1.2348812191991168 8.449409197101097 11.385160335811177 0.24648394676299487 0.03821867716156643 -0.8946505690827367
Ni 1.4380546027074206 0.5725906064550248 6.082596120003113 0.5317959221367808 -0.30051105171172765 -0.493224489621486
Ni 4.695997284793688 5.169351965915319 8.21419232092178 0.5105375269786369 -1.4787609843525178 -0.39120465884355854
Ni 7.528846114435646 7.324288841747148 2.8421956171649922 0.5347295508438081 0.1520684106948865 -0.7644756160268318
Ni 7.103789165702808 2.341725011446629 9.96215229886362 -0.26015013139617776 0.2412882614946683 -1.1510918841687594
Ni 4.579750593657342 4.06240668846126 0.6710598571825918 -1.4600760063485048 -1.115524271476795 0.09288444413556261
Ni 7.965952124964045 4.940742699275038 2.0502530400924015 0.10953028022235974 0.3220535537691937 -1.3363473231385758
Ni 4.028058559008829 9.002651187631427 5.669510735271745 -1.5931503924393917 0.8180463501644363 0.6275247776996742
Ni 2.8793106023850243 4.817345914041019 9.73301899952044 -0.43807149859842626 -1.0128899470433201 2.171537274961834
Ni 2.43629077209326 1.2811676993126921 10.744871715846607 -0.40210819312993973 -1.6226008364900248 -0.9025759945774005
P 0.06886140301369668 1.3648745428587297 10.336133588326623 1.3255479185302268 0.44295608038423717 -1.4130559288452245
P 1.11709379810882 3.014673416063793 4.741160046892946 0.024272756504435618 -1.5033666987163399 1.7338511847272846
P 6.829963626581636 8.990113151658864 4.082912235740596 0.39112906841061673 0.5110710308846037 0.9877520143251117
P 4.899410542426559 3.9751663145417915 11.14155155564316 0.10129812212055457 0.38354534252608785 0.26331670204961743
P 8.7521395682326 8.94708342408268 6.850584497959322 -0.21577289083238324 -0.4092304059970178 -0.3420112278380433
P 6.77479257793121 9.312651589922886 12.397013974730132 -2.6688271929019454 -1.1152969859573372 0.126676195874027
P 1.5708064787995548 4.1004175112772705 12.441114832531788 -0.9549663352536586 0.10460841744071017 0.4107810383135893
P 0.17224253773816756 4.699955207849046 9.066884865226553 1.2660744457549422 -1.0049393247376757 1.121288684764398
Ni 6.9950800576345875 5.359996539378927 4.208490952915388 0.25777957428147213 -1.3767666074958869 0.07503147511454175
Ni 1.482043826781873 -0.01619519377942405 1.8908769813588968 -1.3243736957164676 -0.47945391819995486 0.8118389358021437
Ni 7.145176678118494 2.1435059512034216 1.100766673560884 2.7065514469255967 1.8984678644008275 -2.4361937788687977
Ni 2.9593824303510843 4.00073136066392 3.0771763095908886 1.1194362049366915 0.648221129706761 0.011293827746264421
Ni 2.89695980239644 7.161026822195657 2.854955997999173 0.919820640590461 -0.1622021566947787 -2.8991512420756265
Ni 7.567373589212264 7.242870028312365 12.790331886411602 1.020074123496585 -0.19132504220266405 -0.8336616881041901
Ni 8.275371293799823 8.764945156113335 10.463360056218633 0.4104851043397253 -1.1946877664818392 0.22953420628253374
Ni 6.604463497632859 2.64550713835508 12.084228264815335 -0.5150295013117194 1.3045216939875468 1.2651509054994083
Ni 7.233976233847648 4.978790425802522 9.037961581360486 -0.44470160232043415 -0.04096924332351008 0.29234342829927074
Ni 4.733076288895036 6.239827150507317 10.25338716387164 0.6121737491649005 -0.17314425752857923 1.3327938014593625
Ni 2.270888337276401 7.859318850666117 0.036888027394480556 0.27484090063913313 -0.764154228131671 0.25473975901388385
Ni 4.706893105605754 2.135248745761594 6.3752619264234545 -1.4052693429212701 1.558470324558703 1.4677612908079045
Ni 3.7630806847130343 9.361641266901776 1.9378941549596151 0.9062886675422972 0.4166025300913728 -0.35309731044887577
Ni 1.7703632985836166 5.096310294984648 0.9469003389501273 1.0407385938244722 -0.12438405740574063 -1.6026470190759174
Ni 3.08709694982731 1.0669416542185677 7.9888933172005245 1.0635393937690716 0.3812274930261886 -0.08209660949143925
Ni 7.911740572811889 7.278316043181083 8.468806710443491 -1.4243705825270954 0.8161640455400588 -0.6948460286541518
Ni 1.3824499354472013 1.0416164822210063 12.819768131867127 0.4533402518320386 0.5304352943438284 1.6754159234085275
Ni 8.473756420744653 0.670628083758371 3.085426134290422 0.04314516792890634 -0.3700624775483046 -0.13441135973475563
Ni 2.3107166678824016 6.6695985483806846 4.901401497660466 -1.1698033445353337 -0.3523637747169609 2.0656877860251717
Ni 1.6616357386596605 2.697947312356588 9.19043756864154 -0.9836279648544091 1.2044631007010482 -0.7055114787877979
Ni -0.32136766801757766 3.5435589570226984 0.07123800203248422 0.9007569390907907 -0.5351041605744074 0.5269488784571248
Ni 5.521108917737183 5.8438687782700365 12.791870771179978 1.4274337948334512 -0.8714803016138604 -0.7090524020615209
Ni 8.824221742665003 4.973291772793215 7.097514612159805 -0.7638248698167104 0.1039692411948145 -1.5181096613534695
Ni 5.37765496531821 1.4410622551923769 4.4231626103255355 1.01131000415071 0.42208412203123435 0.5672172390588683
P 3.4517517488085887 0.4403240141687454 12.841021901896555 -0.43250146070981643 0.5719490973168989 -0.31651025535346133
P 3.1942653279415802 3.5068951196754092 7.602611098111166 -0.35015982508710664 -0.05385612658850724 0.11722739175630133
P 2.4761560064107324 8.875407190476468 4.1647277640737 -0.8775843576290693 0.22322806155884778 -1.1056905732158249
P 4.11102732832543 5.605830613348696 4.149442246782058 0.7136857870684742 -0.04904379280152844 -0.007721022793341542
P 6.6767578684062245 4.1997069469923 0.2804276131034873 1.287188602025738 0.5832686360947762 0.3053763502238289
P 6.873722202459389 6.5035410726852 10.59516350692594 0.5052222854133106 0.7349966327311083 0.43715258632858256
P 0.12223062795150817 1.594065042954692 1.3622174756327563 0.7152593022031811 1.1918472117092507 -1.1988292994540386
P -0.031904181160206393 7.001113814460235 1.0025372969578843 0.31469479941127737 -0.27383559930307033 -0.6142738262270389
