# total energy = -340893.3750517638 ev
CRYSTAL
PRIMVEC
9.05112550744092 0.00000000000000 0.00000000000000
0.00000000000000 9.05112550744092 0.00000000000000
0.00000000000000 0.00000000000000 13.24723708193125
PRIMCOORD
 96 1
Ni 6.315386466530617 1.9005643394997112 11.597955362017785 0.8122063464438916 0.639903353869685 -1.247211290301852
Ni 4.655093298976745 0.5442351125567463 5.9157258833420645 -0.6533543371682684 -1.4678589927280332 0.5257270902348816
Ni 2.5204125527283305 1.6240705641436688 4.758327718695824 1.0099586323291379 0.2633521832732432 0.5858135140038169
Ni 3.617264119860276 4.335136019978576 5.157600008609439 -0.4714757850904848 0.05501595122456331 -1.2157569284473126
Ni 5.2541963330409 4.6061448134089344 2.747344176221907 -0.4803512332032437 0.10385225600097597 0.36983596335979535
Ni 7.390759713349616 6.145741225221912 2.623853338104019 -0.42666531364401356 -0.1382243057229426 -0.4450836682502012
Ni 4.7859725706687835 4.485954920684276 11.667941378096923 1.0186718438324198 -0.22700501210277677 -0.20621918570567713
Ni 5.46375703687809 7.922069818992377 12.619768574933767 0.24717711617527754 -0.08078534687918346 0.12602390700200877
Ni 1.7945847134802042 6.428244947770453 0.5501998041227942 1.1852847280003844 0.5216187244934629 -0.8519939107544746
Ni 2.7578507224584294 1.6041761907564558 0.20811252379080422 -0.003078896035639859 -0.11334091221770157 1.8558842254023458
Ni 0.5726303028162387 9.432268175863742 4.687892766802307 -0.7203763117147722 -1.707446469481511 -0.9384086880052936
Ni 8.766621268668198 2.355754481454364 1.1620685452958324 -0.30698611791311 -0.3783494001474451 0.33845899171041066
Ni 7.037123197147706 0.6167183341033698 4.837798408966256 -0.718522289225169 0.04647166119897803 -0.3990390672863127
Ni 0.7778075466755264 7.77376713111727 2.504509725593966 0.7573672871168247 -1.9958800212034142 0.4604784055387166
Ni 7.594536748126555 3.988939528764968 3.8947933439494835 0.31661258525928054 -0.015839795245734013 -0.22833118711336806
Ni 7.660130253102503 3.7814605837444573 12.66352352481023 0.24248511001624687 -0.04164801455808956 -0.7921995643046614
Ni 7.992795312007701 8.675286363367759 6.944810770315957 -0.14880259545942115 0.5606616973285377 0.19921164403959238
Ni 6.8299881948882115 0.7586825189379556 0.42698140487613245 0.6081409738564236 -0.47040080685875124 0.30630940356105957
Ni 1.9955196949161131 6.4651101810762395 9.314794525838582 -0.024080695098287558 0.09976188798168624 0.01945630895239875
Ni 0.022033154293217706 4.966452008949505 1.2394475205117663 0.040927591452297254 -1.817593043131631 1.074981317057426
Ni 6.39487344882657 1.8172215778302585 6.998965463150522 1.160222642825434 0.16330567417160263 1.0761002611532176
Ni 3.5060981990496525 4.165119682532985 0.6085877082554476 -0.3933373889158452 0.6653685880203251 -0.5804599630013875
Ni 6.111844761011215 5.718365191283141 4.945445252264163 0.1752466485835627 -0.17500625043798249 -0.6952576622702736
Ni 5.428991664639561 2.6324021259403354 9.19636417187028 -0.041164904274083945 0.7180150105714473 0.6597720677691541
P 0.2594722291358457 5.506414990369416 12.362917551681878 0.06450306477939215 -0.41867483923936927 -0.5411506238788035
P 3.9908855207022977 6.172740731961701 12.761685693916846 -0.8065794871754174 -0.5920954903577867 -0.3059425071399441
P 2.5344236946771046 8.385632251840192 1.372757924456673 -0.20901834571736905 0.6622040742494144 -0.6080869806900365
P 6.33624931032385 7.777170354226275 5.809403219674071 0.234899327249189 -0.2628562174734312 -0.5072650268749521
P 4.602859254928699 0.9630487819712678 12.737906577555204 1.4322129613896495 -0.06713536019591664 -0.2655144810318847
P 3.9771821170133803 6.236587369756697 8.332379051084503 0.019725503453385383 -0.7289159737546672 -0.3556033647001811
P 4.5275357902661035 1.1337349026883115 3.8872293185447093 0.5536472136839174 -0.29428461118604154 -1.0471318989453255
P 0.3133562933242419 5.735462766955772 3.4543094703658697 0.42371908653149604 -0.3634357162604063 0.20516066253417573
Ni 1.6772006695954156 1.2287083603552933 2.414242853077736 -0.8223889434038482 0.16064098285524592 0.27445883470936605
Ni 2.0755859492306197 6.232224727366963 4.70359013339259 -0.66697809859929 1.209993543600974 -0.018657210089871094
Ni 5.976747664934082 5.7470210539509825 9.370591997913266 -0.47737363863215854 -0.43997822870283587 -1.149269229137724
Ni 8.640014128112995 2.467707850165209 10.144204348016919 -0.02285222200782516 -0.5345596009248471 0.5812996852938633
Ni 2.2729185828011462 5.305036503794301 7.092994888449766 0.5681078691939376 -0.22305631186767394 -0.1757672969737231
Ni 0.49906275645988435 0.1382088729518037 9.421328985838361 0.004931375863346346 0.12826050964201136 -0.7195533015928447
Ni 1.64122244656804 1.1210814295330231 11.434762667928254 -1.4360932702806621 -0.2923632257936126 -1.1648488287435357
Ni 4.178189507451608 6.728905227650544 1.5708309400759137 0.17135168440453072 1.1118409090879369 0.7262047454710913
Ni 5.565672707642429 7.749492013089743 7.849464407254339 -0.25631558814143596 0.7329297228997506 0.34803789364809734
Ni 5.428720130880865 2.822448603652487 5.236181878376401 -0.04859796351336147 0.5569140573606474 -1.7124228396501797
Ni 0.6768431491791562 7.201591194790584 6.564681610390492 0.7805540096459331 1.6554320240874327 0.30238384325440826
Ni 5.084388171476978 4.717193069590789 7.076727300966218 0.46421987485901983 -0.494441906968355 0.5745556817018105
Ni 7.962229661903689 7.3297732311462305 9.105580480099997 1.10378949953837 -0.4747030337785308 0.5308232738108664
Ni 4.581190860984664 0.5067462567184854 10.565863691222587 0.1285911535085527 -1.2804808509882593 -1.0019527313055259
Ni 8.237709711227263 7.275131587771069 4.610091104035334 -0.22968821536189477 0.5977375191349125 0.4396923220313008
Ni 7.224354774894698 6.060561085118609 7.236859809595232 0.7454918758354774 0.8295574361278294 -1.5045180387119639
Ni 2.555150771590989 5.13025022332093 2.606168344400072 -0.9830142425298101 -0.08666263159556686 -0.20564814369355552
Ni 2.3258857679976748 5.105975105293403 11.388251650401017 0.07356774608482168 0.43446064131871626 -0.37707361875881507
Ni 1.1083645985007053 3.5354238449889475 3.8050432906873066 -0.22005866269193067 -0.11991342322889673 -0.14636467544188986
Ni 3.6365158633519052 2.7765775006832447 2.8501296601266066 -0.4275428311529605 0.5824618239227646 -0.5859037597247782
Ni 0.9450913493960946 3.351532132473931 8.101824262137377 -0.2357066536418328 0.013260978774964259 -0.07808491722888487
Ni 3.6660225317969983 2.7187408100807464 6.981783712012693 -0.12306610992526548 -0.9098766420038717 0.144269483475758
Ni 4.158132213809178 6.696800886247249 5.861915133268517 -0.0947045280634369 1.8921133829377095 1.3018752575036354
Ni 0.7280164013432256 7.341096188883903 11.227589650942544 1.0322950910428093 -0.3145891270713485 0.3805746899335381
P 0.3504595712251528 5.714265031526812 8.045748920516294 -1.3937274037199416 -0.8021283933825992 1.1690055312243868
P 8.416098339566016 1.64122244656804 7.893273663882542 0.44832557222626657 -0.031168969403636643 0.8418545083276276
P 1.7992641452550853 3.165431945388178 10.19276816075991 -0.4433471451750687 1.0340868928359093 0.8797284005552657
P 4.048722211304796 6.206926832181676 3.7706933650995853 0.699291723130331 -0.45623737087417554 -0.234789284033886
P 6.671955547326457 4.0359963291471885 10.513709297077092 0.5676754096422095 -1.2005197997825838 0.40187859361763695
P 6.153805777855219 7.7893712711170675 10.240021370560921 -0.2560566780530945 -0.18436018084905667 0.627016727715004
P 2.361710121895122 8.433576062500824 5.762945603786043 -0.031029615612294947 -0.08755377595126856 -0.5368355414432173
P 6.980390743830577 3.8606669811564225 1.5983979523713798 0.6810672297025046 0.8161146803593623 -0.5244022007758711
Ni 5.3966700962293075 2.7890137468315754 0.44564754056150524 -0.2455035851275965 0.32629484554405097 0.08001298748953317
Ni 1.3143682100989618 1.023655116912477 6.867301458895849 0.025756283028497577 0.37066283013646484 1.245064162051862
Ni 6.894703740711038 0.5163196319376188 9.110283444800633 -0.4322842024926878 0.32149356750066566 0.6014993001701899
Ni 2.7684586412981993 1.6846859502101676 9.042829028465079 0.058028512798642004 -1.8870297977672146 -0.10466652437215522
Ni 6.10266691996725 2.239510879356104 2.78560237770981 0.9224390520499146 -1.110205687477359 0.13250848628508793
Ni 4.200581991418836 6.719582568601941 10.655216400084537 -0.4635519022577178 0.9345569183593713 -0.47913921517301356
Ni 8.288097325716167 6.994782033041528 0.33599858834947033 -0.4554938078399317 1.2508458017306456 -0.1709048266750992
Ni 7.5114655202158 4.000506866885467 8.29481054534369 0.13901749104819927 -1.2262539713238945 0.30574941729253147
Ni 3.029121998522197 8.363574659508693 12.2342069296093 -0.1341205679672142 -0.7313780621419146 1.3533243173125467
Ni -0.2813623756494829 4.9538256891700865 10.257454742981809 0.6347148676902101 0.4325472263460873 -0.12973143776058302
Ni 8.62994022566533 2.344331961338503 5.603911901767224 0.10706664917321561 1.3847969339995314 1.2647744959965959
Ni 3.6079414608116727 2.5527160188880043 11.36578494720641 0.2390354609047496 0.46986550318057146 -0.1574625851272643
Ni 1.379382443056355 3.2923106197020777 12.479241708795218 -1.7021088593186813 0.18688500415343942 0.6293924270360322
Ni 3.0491068831623087 8.267370248802283 7.87382641608465 -0.006955348271910603 0.5369278440467076 0.16465241800748417
Ni 5.745618129531047 7.76309585440047 3.608931653918389 -0.7286971728756417 0.7240691871853272 -0.49046929547385215
Ni 2.960849360460437 8.501025048161202 3.5170754038012504 1.0710195041962005 -0.5197348772071887 1.0794329250708765
Ni 3.507211487460311 4.099363257301818 8.917417541560674 -0.4324981182757067 0.8183728802659196 1.2533945362944283
Ni 6.8339073321387405 5.991736328414166 11.61639612468344 0.7401840904693189 0.5212626267056248 -0.2992653522300846
Ni 0.6392293878118946 0.028269379617962807 0.35834400646518977 0.23879274876632425 -0.6808314595426146 0.07077835626514262
Ni 4.663836686006794 0.24070381573469704 1.709370179100799 -0.12934422962449335 0.1616200589390636 -0.05452101386601577
Ni 6.045862057647802 5.572008495345363 0.5409070137876479 -0.055597020539013935 0.0075937531868578885 -0.012510473762184907
Ni 7.813936025153873 8.419266233417481 11.440618745990824 -0.6097111465570209 1.1891763497453067 0.5527676392924415
Ni 0.15605045112326602 5.125625098297789 5.75340752795554 -0.9383354115651968 -1.8878913744365617 -0.33615579749853075
Ni 8.070336302366323 9.057099032597145 2.595637360125267 -1.622745332487689 0.7684212309381411 -0.4062186157538875
P 8.421130765227202 1.937302857051439 3.4441224288520806 -0.00545742357014544 -0.40141399527639254 0.1825023017047115
P 1.6688102764516732 3.2945915032751336 1.5534373926063019 1.2286276137623937 -0.0932207444290588 -0.22729811786316337
P 4.710051731737054 0.8443423686816242 8.222268491482684 0.2425599291182403 0.24626823120776298 -0.5745981049039718
P 8.585462995990733 1.2534269835220258 12.292773140910166 -0.7980323689363547 1.7420049241826707 -0.8992405024462643
P 6.524268335971064 7.8253856986456025 1.3789443685923237 -0.4733894571734299 -0.35032283302753214 0.6269704478581009
P 1.7676304623668646 3.3217991858965905 6.021504574380136 0.08412958076106801 0.01625040042059137 -0.4344655264147227
P 7.048165570001391 4.1259283100276924 6.097292361770105 0.0486702115121936 -0.6417697176544624 0.014654259578065085
P 2.5062565927749176 8.495702986490738 10.158060715723236 -0.7461495640241342 0.15416977330860543 -0.7409572211899175
