# total energy = -340873.7673175443 ev
CRYSTAL
PRIMVEC
9.16295909892404 0.00000000000000 0.00000000000000
0.00000000000000 9.16295909892404 0.00000000000000
0.00000000000000 0.00000000000000 13.41091684737695
PRIMCOORD
 96 1
Ni 4.511355352732202 7.3728649678209335 9.91753412297203 1.6773565920746663 1.8609189596127758 -0.2665300667805926
Ni 0.08321799323142794 2.8224295951446625 10.68608646830117 -0.02961782286643286 -0.15943847790671248 0.5680212230174024
Ni 2.1523424067484584 5.476856337845125 4.904385816382601 0.6914519153709382 -1.3925539522371306 0.30485441628208787
Ni 3.152030391723356 5.011946126374502 12.314479886438647 -0.998609782975222 -0.17825741038542847 0.9675845382383014
Ni 0.3227771410447314 0.1859686660677265 0.847897155810191 1.3573488650909076 -0.5500610389945558 0.33007076764671545
Ni 6.976786904022023 7.72458514731756 0.4440800568776906 1.7900274748085363 -0.5836612435475044 -0.37984372530478455
Ni 3.8688669967091602 8.43008717207574 1.3955131511066436 -1.0094217859890615 -0.34513717506153463 0.28941288491603706
Ni 8.319920916556972 3.107837440682266 7.931671684889413 -0.3355035086265125 -0.49872510772474105 -0.5934846573958295
Ni 8.521945835601953 2.2704437847224592 13.566483690684324 0.023677289012281805 0.6001358441637599 -0.44541842588180064
Ni 0.9062349665904742 1.6543630764083994 4.122931108548597 0.8645128691570918 -0.5763130307125494 -0.6200611223327772
Ni 5.767734469879001 5.41679314189357 8.430061515790666 -0.45117435452897137 -0.9514038147133808 0.7232739449775415
Ni 3.7315325678881246 3.344360900193701 8.366239674075675 -1.9215265459925035 -0.03465435684907581 -0.4983895787621932
Ni 6.3285716986519605 8.312379801336814 11.565789170940871 -1.3275808897998556 0.16680777378759015 -1.3151856014592964
Ni 7.574972353496512 8.402955650609295 7.242713382524906 1.3000824272692706 -1.063234203823827 -0.13348936214111848
Ni 5.883902463513449 3.9247976981719033 4.594432236395719 0.755284436445867 -0.37399600827475593 -0.7577758354091529
Ni 0.8971563068576291 7.541857419832299 7.508638028435997 0.8539996283305938 -0.23182248809607817 -0.8221997102111774
Ni 4.3895154875044655 2.239940294360488 5.872492747022392 0.3157080711671401 -0.6517039460490389 -0.1750129353062018
Ni 2.9124923187156497 5.997688087819534 1.1047312301417955 -0.27160850974476447 0.6917555626542861 -0.5485554009833069
Ni 7.584071171739058 2.686148906603479 5.761062003167801 -0.005109039091791201 -0.18308439946042662 -0.21128528737467484
Ni 2.528582664409289 1.8893379958563996 10.358471284928076 0.6769580926301373 0.5410930311679907 -0.5053503263507426
Ni 8.742828124176805 4.480567810642618 1.9871360893773948 0.02629210092730956 -0.9609675471424161 0.04281889493773916
Ni 1.0324180743629905 2.5420430511145264 6.2177301330581916 0.6183176572791093 3.230430428208146 -0.5096700367720189
Ni 9.371233012285652 0.6605732881129854 7.011870957565716 -0.7197245370633862 -1.0458764292716698 0.8630481116861073
Ni 2.2825022387075458 8.896316849635916 9.089919176809248 -2.5806802634513684 -1.3865069747121024 0.9111380252147985
P 8.550259378773625 5.949362642289635 13.33063920643147 -0.44002296589784223 0.20004750967732646 -0.3997831445411889
P 5.583641461509412 3.3519753190854993 7.37988012919706 1.8344569087665052 0.3554573260406201 -0.06823887767274055
P 7.82083286818333 0.4099874354929544 12.754211202996185 0.4235586496942318 -1.8642901900778537 0.9319289938182208
P 1.4596227097328283 7.526802678268852 10.829140416102062 0.2118247048179126 1.3290916700174271 -0.7153402919527616
P 2.1584815892484643 1.3758091241693102 7.51406983050466 1.8913181407299233 0.15082271121324348 2.569005912437234
P 0.5685725987229665 2.287221162569491 1.8833353414448264 0.04014340498810506 0.0874110797258172 1.2874056031325507
P 1.6454017025501815 7.448413564406832 5.400978791032734 -1.144804508498151 -0.1529425857697237 -1.0027677710076537
P 8.093146845373905 0.46247286438853025 5.196529353048197 0.38918917107542655 0.24491968759966853 -0.2202684647098916
Ni 5.073017247811132 4.189671352690829 13.505866135715978 -1.4199791383276188 1.8456427501799957 0.10866279001574188
Ni 2.623446778472818 0.06258484225603382 5.754799120721899 -1.6608727354870296 3.8159001857192987 0.19156698301014105
Ni 6.76371145647703 5.871083483935077 6.215959849388041 -1.0562390034529163 -1.976982670078279 1.0534336727936373
Ni 5.41715966025178 0.04879092384482576 13.319025155955714 -0.7459279349316315 2.303783508724471 0.9184754394164762
Ni 5.3769159445203965 2.347705854632985 9.503512236651087 1.2433926878867103 0.7781613410440404 1.8608965910152726
Ni 8.404861546071983 7.513232336056151 11.69347408768615 1.2124851996745762 -0.15912968841704206 0.9386801964991254
Ni 8.906606852542643 5.196643890035137 11.14865554375873 0.33653374966323973 -0.050136768755391074 -0.3986161208162812
Ni 2.251201570916469 5.03013459990064 7.2480911231357315 -0.04196914534293417 2.075721001891458 -0.626990759573075
Ni 3.420395133604226 6.989101920857856 3.4621626494098656 -0.5328444180059533 -0.030264198201180138 0.17647280768117996
Ni 1.8963293335392426 4.277278403261814 2.8498864016540186 0.8143943552341458 -1.2373444248101013 -0.3904348705570695
Ni 4.5469992630680585 5.150141873337329 2.475843421550653 1.1270153028355299 -1.4178939736638163 0.065506566343242
Ni 7.999721315866347 2.369733607961366 3.405380709060181 -0.5369620397187527 -0.33666950391015565 -1.1183699684557062
Ni 6.403698799125918 7.848468352392313 5.1913925982578935 -1.3742291857860138 0.7583062539913262 0.2227254108908164
Ni 1.1495115268519158 6.077103453084541 9.411111125954724 1.6835388096259778 -1.5115883152951837 -0.46255225734860983
Ni 5.5091191163265005 7.578280181679352 7.584543980421149 -0.9666797670358447 0.8174778792554761 1.1593844631948549
Ni 4.224499759679671 2.8219164694431695 3.2317224783488103 0.18234186486744727 -0.6395272014771889 -0.3121913162631333
Ni 0.8542736589471377 4.37357193892236 13.312681639471007 -0.7052109168282434 2.577558944213567 0.282620544584552
Ni 1.8964484520056606 8.75539054090443 3.325156254519428 -1.8668990884556107 -0.16724768953848615 -0.113747660737817
Ni 6.092680483308437 2.4290362783196358 0.8261791104944972 1.325020585271847 -1.1848003321647984 0.685101290562562
Ni 2.76044217781251 1.692270237606199 1.6493683474819019 -0.5434949557412639 -0.5651541858822524 0.11167355181760767
Ni 6.580589721756694 0.21508580073977104 9.573141561751902 0.86334147455681 -0.14533443440516258 -0.9165118879322023
Ni 8.01011211132158 8.037857551038028 3.5603034375957865 1.3207546109066415 0.5822661629721908 -0.06680085967463334
Ni 6.803103017025578 5.592905213013152 1.182191219965755 -0.5690177826027167 -1.076834568216081 0.7242522497304107
Ni 4.342207130418597 4.73330054454586 6.1367680603215415 -0.5474883931713732 0.738200998601019 0.33198161151618305
P 5.022089521937945 6.673767851372461 0.2657817037513898 -0.6152963539542823 0.1897659252456603 0.48373609051507654
P 5.15432934557987 6.075527424144241 4.451713652892589 -0.3546577129574602 -0.32702401040059165 1.022121492943917
P 4.305454502049156 0.6186142664651816 10.849203631030441 1.0645562650693603 -1.033410178483859 0.3484940073489095
P 2.541200058890645 0.4193180765970684 13.15533164310816 -0.008166852081508516 -0.26923409597531694 0.1871490564481035
P 4.744754243239902 0.08691158198628245 6.321678404629939 1.525743009529011 0.08874419671494395 -0.513299148884174
P 1.3815359735163308 7.3400249229253784 1.778917926374571 -0.2432474421035682 0.928928259318684 0.03512152629348145
P 8.722009881430514 1.3160299799453687 9.155350950412673 -0.9073896139159597 -1.2114043079055719 0.4803342639223792
P 6.979160110391429 7.037051685070592 9.756830483631568 -0.6062311584282205 0.16892019214490264 0.022684843192025447
Ni 7.333610851656714 0.3290812568059318 1.915910576826576 -0.6258872420962511 1.2211752712494066 0.13913524757298618
Ni 3.99715758504138 9.422637212024512 3.819938628480006 0.8539754599608775 0.3058553467427765 -0.21746004872681904
Ni 8.937486024221778 8.167440116582936 9.48618508126674 -0.48088473710921054 1.249032659781307 -0.5312017401962077
Ni 6.503043600118556 1.3243224577998547 7.454592147630345 -0.8687469618430974 0.28809108078082 -0.5280320842189744
Ni 0.7879164264892344 0.6808170133327822 11.459011377643746 -0.604554799167062 -1.7992808750860045 0.5593080115141207
Ni 6.196899978465259 0.9705406125383008 4.302074286490571 -0.2563945210084875 0.6167649680800088 0.11010723577175231
Ni 7.321039271970134 3.8128996434105957 9.708350184095325 -1.477617614776694 1.186207754035286 1.910349189219445
Ni 1.2722860138930854 3.6062199412163554 8.511801523742616 -0.0379548819772185 -1.3288340454806664 1.542958344966033
Ni 0.058523818847074464 4.056808447839948 4.4905114537008375 0.1748897794647762 0.4188072510521755 -0.10506504536215454
Ni 5.762007620531981 7.212183319581964 2.701723187939689 0.33653786342829783 1.703561275494492 -0.6943374644488494
Ni 8.818926498300018 6.57098694077161 5.6621964249285215 0.7014763894864757 1.4063222096658168 -0.4532415214706452
Ni 4.388461747224614 2.0920684627409343 12.527230965236624 -1.0751736355738903 -0.0842625067945065 -0.880580978363548
Ni 5.964023376618008 5.941207608819477 11.685856919906664 -0.1772636790135915 -0.3131626790374671 -0.315185880115083
Ni 3.7451853767314223 7.6499161947913645 12.03554658769881 -0.30532595660186773 0.5985631003600014 1.233532764373495
Ni 1.4178487798559203 7.545843306977826 12.856697066318677 0.04717562924453811 -0.24913398279133225 2.118731701125028
Ni 8.238242300430024 5.876966103584337 8.358233080540593 -0.27704382182772286 -0.4292539003067962 -0.5912866213032462
Ni 7.32752664691044 5.75999176956183 3.8803683427897684 0.14968191274058093 -0.6887944231434331 -0.9195954119535323
Ni 3.6874037575597214 7.345357765037324 6.073388789524088 1.3074506947088838 -3.4739784322712683 0.006285318788079498
Ni 1.8042965737928804 2.524184444110777 12.939134375447118 1.4280814557197792 -2.656721410777347 -1.640506513125852
Ni 0.47570967489526006 6.173250381401803 3.3654833531773045 0.5499371118221819 1.4712163392360404 -0.6664042283736911
Ni 4.197524008515464 0.5434917474707022 8.713393951124909 1.3686424357268558 0.4013281204308056 -2.0214959219993056
Ni 6.959578867104096 1.898620073278051 11.61194940926965 -1.105569217146612 0.4730109907880886 -0.9500326453974671
Ni 3.751113811175458 5.122992025952973 10.21885069784771 1.006293781883041 -1.2575370977078923 -1.0138044884377895
Ni 7.372507612421679 4.113444697142245 12.68350889540171 0.3416672142350632 -0.024053955625410187 -0.3869543682076368
P 5.260848743434456 0.9733902927733784 2.168625901107803 -0.8160149215567042 -0.8314669944457165 0.29444453380267355
P 5.56625016541238 3.763685390862038 11.355197801568641 -0.12703100811028445 0.11499721687420195 -0.4542596783225144
P 1.9014422646362628 3.993364120033913 10.629666464830215 -0.3552490666845559 0.8137893746602952 0.755914356720382
P 6.64720443336124 3.7422623928247027 2.4943370216100003 -0.8117929130555568 0.8688909436201294 -0.08279106445530257
P 3.5135549373020822 6.3171729777116505 8.50618188101537 -0.7775460760575448 -0.19062210259836848 -2.9105931653639807
P 2.895320933633543 3.828201784865835 0.9024112638184554 1.1437416144512753 -0.18790136123309575 -0.011190983619812984
P 8.880208367792616 4.672797526564455 6.476963070044276 -0.10329998304193176 -1.2023771647062969 1.2155571537316807
P 2.725448837562474 3.034753680055326 4.772904685742169 -1.0286376967958801 0.9761090307695447 -0.6037772975710892
