# total energy = -381174.3255087427 ev
CRYSTAL
PRIMVEC
9.12701218511197 0.00000000000000 0.00000000000000

0.00000000000000 9.12701218511197 0.00000000000000

0.00000000000000 0.00000000000000 13.35830490544318

PRIMCOORD
 96 1
Ni 7.778559821314724 2.7786640253354795 7.18656722318272 -0.060424780944960454 0.4425997254860829 -0.7173850902969322
Ni 4.187317922296013 0.43520787419717366 3.2918467007034717 -2.4283303169603214 -0.5263235861683 0.02122985591305376
Ni 7.052898482407247 7.876812104929235 11.655895211436432 1.2777325988191608 0.19516575610499293 0.7056081522666622
Ni 5.111236214726428 7.779207839162994 4.596178851104426 0.4952695450759729 -0.2591342885371537 -0.6930411142349291
Ni 3.637406325449013 4.007424516811384 3.1788086577340584 -1.100372760547337 1.4360413339968043 -1.5184205077256687
Ni 8.208898434637922 0.30852129756151464 10.292680143456376 -1.0047760596869342 0.5389119643562719 -0.7750323084967555
Ni 1.3649902718038378 3.9294615807560973 6.699883914303012 -0.3798858913966296 -1.1584804633233468 0.7183232858404854
Ni 7.977136220255823 6.96765219081788 6.378724443297836 0.5875670063598138 1.2636300979795076 -0.012361349778830324
Ni 4.796171762299772 0.2967228092170205 12.737865057059986 0.0509392100520284 -0.40443169905679377 0.49019084500148485
Ni 4.510605812487339 2.4350502795371383 4.562715574500222 -0.5489181836393643 0.7818542165145954 -2.0058337899820162
Ni 1.2109445641544434 5.162940737408844 9.675473262118294 1.6995351850542344 1.797461048268446 0.1694251568057792
Ni 1.352924362009283 3.7809742233827124 11.696197358092874 -0.4570716938500128 -0.4899615025994981 0.5848110408812315
Ni 0.06578020050780396 9.351353901138554 12.29553081193423 0.5099541436713412 -1.0588602431258474 1.2213087115034773
Ni 1.2493601574413438 6.215339977023791 7.0097706128518675 0.3631606082221488 0.5253455385257468 1.306473418397279
Ni 4.2070231410906 4.718108429113063 12.481932689638597 -0.7329456637393506 0.5363958828026375 -0.4874726747393734
Ni 2.5748761025723748 2.058980879253595 2.409490995279444 -0.9225439530588951 -0.6892929600464065 0.1234358345598584
Ni 3.4860713403480172 7.14479836570632 8.835623876736022 -0.4789625803858332 1.102256093612979 -0.405537787636779
Ni 6.164210456094065 5.594091654795367 6.528830932590703 0.4707458489029957 0.010202908674930814 -0.09274894699896286
Ni 1.677106699371461 6.074364150483174 12.050713319662469 1.3495458241067209 -0.14793844768691297 -0.8009724254012851
Ni 2.541845446334482 6.198327226753707 0.8907835882563208 1.3296406005423616 1.0660390202624737 0.17939666619619427
Ni 4.5336788986905425 2.033133181418361 1.2400715973824037 1.0689911609122622 0.2889853104603152 -0.10806372297916228
Ni 3.3751416371384697 2.0732646529513854 6.341120241373066 -2.9135123958933047 2.907022160183271 1.0346761896804761
Ni 3.3485181432877007 3.6297578894370335 10.196661239665412 0.2774603405398512 -0.3672512333517546 1.7401233908892417
Ni -0.04685351583233594 3.547286209479697 8.930307498679074 -0.8032972168797198 -0.36091526383139777 0.5068603352373657
P 2.0753729927112508 5.530658921760453 3.119578000999759 0.39577068094768614 0.6271730507872102 0.5576897591844073
Ni 5.758587791124615 1.7738347719907452 6.197625359534946 0.42987430749961447 -0.09384706515914805 3.18369368627324
P 3.4963757368367103 7.507724868785506 12.732909089572509 -0.2997042395397161 0.136525577864281 -0.9031118124762123
Ni 0.512886960180894 0.9594497499419147 2.784030708360592 -0.10254227894030084 -0.6379413450473078 1.746528265974321
P 4.903587565909543 3.9949022564194556 6.736739701248089 -1.3116061116381539 -1.8916271873299098 -0.16264978575515857
P 4.271496353487526 2.4145692647270165 12.38488517160115 0.060153015340812535 0.728681746256674 -0.6513527333572072
P 7.07622712494498 2.975177719576451 9.676636043440402 -0.05202730090988459 -1.1654525237658055 -0.5954620928371744
Ni 4.037671434405299 6.865393148958429 6.679179287700177 -0.5226168267406741 -0.7835362322027085 -0.01232021212824975
Ni 3.660433776592479 9.205504250217986 6.789638949794429 0.5470677606941868 -2.7099573872833522 -1.8739027734669533
Ni 3.9734629053548494 5.783148580275256 10.395726846446896 1.0405678725745628 0.3296596482512258 1.3397931155953313
Ni 2.3371174413407885 0.29537566225357387 8.642208803051217 -0.6956998920140147 0.06771925772384467 0.6472196850254401
Ni 9.132488154638228 6.30447437570278 2.5474284395427493 -1.3623756288815374 2.4326356292038946 1.0146717215340912
Ni 9.381564310684677 1.2568808152860589 8.325576329971986 -0.6205807422816731 0.5226127129756162 -1.5851915426036314
Ni 2.1455414605633982 1.538905484462874 12.53500535141194 1.4610476262331547 -0.3968574862539617 -0.19728871598526668
Ni 5.072455540961629 8.15526811243459 10.717274215459838 -1.8194378096498536 -1.436990585283951 0.13496543246601272
Ni 5.0100267792409365 7.091387091789726 1.0026396831785362 0.44928973591174887 0.863449460889584 -1.8170929635667608
Ni 7.873727174890991 0.2782424354257837 6.200765051644876 -0.7887177764036482 0.4809045346035524 -0.5333061881337202
Ni 0.6510279368106275 1.8406627534701188 5.673485706324017 0.21389752818654129 -1.121026689352263 0.659510072357019
Ni 5.803428800822533 4.620568052430454 8.800811627765983 0.02835001189760279 0.34937409596101765 0.5181431072400366
Ni 6.633703950671909 0.9737609046755472 8.354897768554427 1.232719267333264 0.21721322282333558 0.6005621330679012
Ni 7.462098936060105 4.7035782260926915 1.5003648511122933 0.3171309196565958 1.2580610885321624 1.975583218627591
Ni 6.989958608017496 3.544885805337512 4.879040467276823 -0.020049719562023536 -1.1277580945388255 0.023183380094998783
Ni 4.005644749481627 6.667072306351859 2.890349445134277 -1.672651473289513 0.06513787014991362 0.9660375054661556
Ni 8.13914980933536 2.305738774265387 11.665353533917594 0.23746091732877816 1.7179612529699058 -0.09066172545263096
Ni 0.6344039972495061 8.233897320362042 1.1578591245643752 -0.27154448927604846 0.5898917978382486 -0.6125082496861839
Ni 8.392734709283857 8.350330611775913 8.28337759023286 0.7409281677241949 -1.1236214466626326 0.04492591397841295
Ni 1.8384448895668837 3.276871099500063 4.293118244791082 0.15303128882878805 0.057114999845437116 1.038305044682315
Ni 9.082974114823205 3.7212196761626277 3.105766093819653 -1.3549068313083181 -1.0815003491228663 1.1778190157509587
Ni 4.570332978671581 2.477007153459657 8.538869122977186 0.22763827481140153 -0.0010078724392240705 -0.7430539558179462
Ni 7.978788209418315 5.992604377457739 8.583779497965905 1.1546446345170243 -1.8891640705013981 0.38956095259254847
Ni 0.7137907471685979 1.8978434833210167 0.8139268460490676 -1.2804811080985754 1.2403127634098057 -0.936967841793709
Ni 3.600843515587449 1.1731130996321815 10.547904254750643 -0.41136210762803993 0.38112002091404684 0.6481105722708258
P 8.229169528173253 1.7166266611040049 4.222159377704284 -0.8389054530016327 0.0845728389460737 0.2793411025023318
Ni 2.8763047991495108 3.599885179332965 0.5147433944110092 -1.1410751233627057 -0.4487965983254142 0.4255594821743445
P 5.719743228276183 8.094217529517966 6.535403293894076 2.042269149990915 1.503020628230831 1.0806961080540163
Ni 6.057479178380354 3.9516584738123437 11.350524558399185 -0.8506127141362319 -0.7325787673182351 -2.067462618537407
P 2.110849688151066 2.870709940825712 8.71443723749991 -0.5800748117478267 -0.6848212974282979 -0.9954648095883374
P 1.4016717328207187 7.397853898961865 8.831696523495026 -1.1004833179832725 0.34751955925078215 -0.14027398916311973
P 8.422716943531297 4.78470823529375 6.424823155242116 -0.1823035554303441 -0.10763177764806625 0.2600285182166489
Ni 8.945566949954047 6.295192204552204 13.281868739073388 0.02469673141573166 0.30429751533735333 -0.8730167928630448
Ni 3.2448535415883395 4.8452385785293695 8.035540882408876 0.32455112338006686 -0.31665989355744817 -0.21141152853989398
Ni 2.4294462942013917 7.144415031204526 4.943039987753677 0.6179366197906067 1.043193483122868 0.9273362322412158
Ni 2.1290580769862677 8.186445985247147 11.041106075563233 1.6341430328016695 1.2250756347450773 0.10566282684715353
Ni 3.2223189490900364 5.093867510990393 5.430324766720723 0.47976527879278663 -2.104636399374227 0.23185822643002005
Ni 6.178813675210017 0.8450435678815762 4.2379217273375644 1.416497864647238 -0.15620634412266002 -0.24880231048352636
Ni 1.9373269370057709 8.154008584785839 3.077673151045341 0.43882200361120555 0.5926809305476115 -1.3617421090625967
Ni 0.9970165311177002 1.6148513508777698 10.472443032670158 1.3628847073074721 0.12754265763938033 0.028270821920235185
Ni 4.610820403670556 0.08381882692078317 8.78142859249314 0.8625428899149145 0.29634509325949604 -0.06939561698500306
Ni 7.4943903043302535 8.721526187679508 2.8356476117283123 2.3612471501585786 0.18724932947139364 0.5893984031415979
Ni 7.3503478017752855 1.9254161864143229 2.161333929336105 -0.39235805572171134 1.4538469947196575 0.14697891198712107
Ni 5.421582001976241 5.299864170644785 4.158707477944279 -0.4889425744166805 -0.17425137454982892 -0.32402764677642903
Ni 0.12330958221509528 7.312005224583966 10.546688536759238 -1.3912370331979202 -0.785462502691144 0.25520461446544435
Ni 2.931751396730389 8.985798818618495 0.9761631342201212 0.0915163601434424 -0.1435752856222108 0.21709906584297448
Ni 5.694990771874646 9.166805719560713 1.6719791440593723 -0.33477562932155247 0.4278626763862244 -0.8067882607521137
Ni 7.630017701869654 5.700366581911705 4.366455611191391 0.4075527611842787 0.8577583240420776 -0.6319982400899955
Ni 7.123851873286877 1.0955517521025835 13.3447456370807 -0.1377540509547434 -1.3988014758087393 -0.030272682841612383
Ni 1.0820620284442233 8.545794699642926 6.45999592118408 0.27397880974915395 0.8872560763908784 0.37015709414463993
Ni 7.431523446036082 7.687052399529391 0.6734091955082129 -0.8783461754957583 1.1355379955945604 0.5390816571649167
Ni 0.8854844451196198 4.8045047242078125 1.4119597006879068 1.0446939789277945 -3.5026719435512192 -2.7017128878863725
Ni 0.7153067438530727 5.604222638057058 4.857466949136589 0.34796358876673616 -1.388903499968737 -0.5622136151966898
Ni -0.06412456054053295 7.851612424942272 4.366041244848976 0.18127408572456521 0.6345253773872234 0.6574380203193387
Ni 4.861767597166237 4.8586370320682555 1.3185858049593175 0.7252120425405187 -0.99182721283575 0.7588551845162608
Ni 5.979926957862704 1.2368470240613627 10.83846085469595 0.4618686010180239 1.0528554316926642 -0.2424786822583437
Ni 8.233787796218673 4.919121740244137 11.113120937932353 0.5606899794633118 0.6902203569566823 -0.7702935082601895
P 5.614563542593542 3.336872076042729 2.9521320144090897 1.9698925960007172 0.04984443432595286 -1.1719368459385686
Ni 6.485910246206531 5.821472903442681 12.873865749388038 -0.10923717446197316 -0.27246597264905337 -0.45056963106543696
P 8.6955872197248 4.17171073186584 -0.27308293557187907 -0.31760991617554335 -1.6475389944926013 -0.19595662743740444
Ni 6.163945772747588 7.3374878419413 8.588107527031395 -1.1847705073681272 0.47682830765164974 -0.00416133046654122
P 2.275893445197161 0.6736364581057048 4.5372019253022655 0.06523711473193926 0.23823250538748003 0.3892508775512974
P 6.341968140782985 6.094909054376927 10.540516851280358 -0.23589100173849695 0.08302400640171508 -0.06433208641916663
P 6.715345072542026 6.822140239339369 2.676576571300641 -1.041740038505793 -1.2476686895542448 -0.12758508084154158
Ni 6.412337402897978 3.369592413874408 0.13195286252934912 -0.24188758564156404 -1.6293733793271683 -0.34674617141986736
