# total energy = -340858.3334815766 ev
CRYSTAL
PRIMVEC
9.40031251255699 0.00000000000000 0.00000000000000
0.00000000000000 9.40031251255699 0.00000000000000
0.00000000000000 0.00000000000000 13.75830756028088
PRIMCOORD
 96 1
Ni 0.9209467253763489 7.951310642054358 10.593759137265 -1.044449467017156 -0.6721182480393327 -0.8451295795344735
Ni 2.1469561487535453 8.295512480747306 3.440141144543995 -1.3253512291383884 -0.619270765220998 1.108114095055653
Ni 8.849905304615431 5.199575994989977 1.2424054482583478 -0.9500092483586994 1.5416756215988674 -0.32647482276534096
Ni 7.39223646261301 7.369403103803059 5.03969548175834 0.574586792050062 0.24959241048498948 0.09669764723406572
Ni 7.71404675717862 1.4845819363922497 11.272291546603826 -0.8478449215831075 -0.8342959792540793 1.867486071307332
Ni 8.957341474989631 3.257527855845043 9.748186936773719 0.36974648896978257 1.0872735041612176 -1.0226043461176064
Ni 3.5461456473402797 8.089993450832953 10.06197312467808 0.2835425421781891 -1.0802489932142685 2.2066837409559805
Ni 4.895475888978483 8.140538930586395 6.694765243889904 1.5055817040897879 -1.3100801619119309 0.5243829175021615
Ni 0.03201276386467214 5.711940022135464 10.378069909369385 -0.6426369507507642 -0.5776906277863664 -0.337219977096987
Ni 9.042508305297643 0.9263152437857203 9.574282097478447 1.575190208416545 -2.1034565201335127 -1.8498619304676658
Ni 5.535890971582659 0.8586818761587806 12.023026815425304 -0.7267418489214839 1.2255949975836569 1.64392093812404
Ni 3.7598147481019883 2.663691321163185 8.947962783312114 0.14718305757812716 1.1655707945112248 -0.24166158567368706
Ni 1.9177765325383913 4.045227033070179 10.528241779958405 -1.1800227082704968 1.746388140852031 -0.28415523606152354
Ni 0.24830549181611175 1.2535034570730978 6.041630598582665 0.6186467584837538 -1.0244192878391583 0.4494902819583291
Ni 1.1140686233028199 4.934656391045127 8.034287199574093 0.28594420964114625 0.04385530662205351 -0.19891982383078644
Ni 2.273803964225542 3.3338771931255797 13.074533539638841 -0.5811965840570958 0.7630252567335505 1.8640515917044864
Ni 2.5956894612903207 2.3647895879066936 6.618722356793479 -0.697999743791785 1.333774163094761 0.052627139277412596
Ni 4.445370130831888 5.529536360402944 5.537305718598261 -1.4718483163930844 0.0601725557248383 -1.1935482535607573
Ni 3.047628280354142 8.901249810922534 5.963235753324753 -1.6521862634566256 1.7184111960231307 -0.16091223423876158
Ni 1.4284808720127566 8.166333387801094 13.573299074872233 -0.9503283222610148 0.7829315087391742 -1.272502460768473
Ni 7.776464831488243 4.540783301651568 7.833375262765035 -0.35060359749274456 -1.032756861170576 -0.19446898714828445
Ni 4.123089820646476 4.736262797926963 10.159189275415319 -0.49268867172267405 1.160280492646563 -0.44420563652062206
Ni 2.328109568937394 8.15121768546828 8.35118207078782 -2.87676001886462 -1.7099820914191715 -1.9872336583823258
Ni 4.19991857385921 6.043883853463992 2.4912444703205368 -0.4124941643499541 -0.4634277179750277 1.8250975790387924
P 5.140899245013973 4.418325432068516 8.21149436861409 0.3397735967567761 1.2887847428682642 0.4843081609684627
P 6.024321803367859 5.937359513392207 4.088735438963954 -0.551454834018289 0.5268709740313378 -0.2874354494746921
P 8.863977572272285 9.113678070447968 12.557358432609067 -0.306656245377517 -0.8484550443632807 -0.20684422088418572
P 9.41657493647277 2.969859495901805 7.655685857699122 -0.08477955564024107 -0.019139549042928326 -1.7030282858091574
P 6.946558251604944 6.349995626328237 1.0957859557237857 0.11742356692750744 -1.4410115335178861 -0.5264446851271966
P 6.774767542567537 1.2939624016256008 9.301908985834785 -0.5958369596780899 -0.5269691901720989 -0.296196997717406
P 7.561761696362972 3.610152374444832 11.29951861142768 -0.8699767204851404 1.7964403203134156 0.9783854855085473
P 2.1485542018608697 6.09618719163549 9.80672926228246 0.322705842641212 0.544492800878159 -0.5543578665976969
Ni 8.453221521815461 5.52062486425151 3.6453321035557256 1.3700778826218019 -1.6290512201010587 -0.41771221821578386
Ni 5.812288356963059 2.5628353694662045 7.563835405277536 1.5164597844548724 -0.5522271934079392 -0.011824760549069958
Ni 1.4862739926235344 3.808254557878718 2.737380370035645 0.3948342851763458 1.0203685148085524 0.6924579880379494
Ni 5.960832093445088 7.864075743019221 2.620517566390709 1.7645028481748706 -2.17715539247956 -0.9742398387712898
Ni 7.4035920399874104 2.093872584653177 5.650591703376509 -0.044483170014039515 -0.16390602675976287 -0.3910534779776749
Ni 5.448016851304592 0.28160797854151887 0.7265971466509566 0.04503570008339986 -0.15172491131253868 0.49771440707203957
Ni 4.67046061115477 0.22804217841523455 8.466229674109085 2.2732668281928525 -0.1724361757179611 1.1298054639861574
Ni 5.691080728928679 8.787336825307472 10.400440772809452 1.5316683738745107 1.215638143481261 1.3256690174891232
Ni 7.5939201650697825 7.238954968683382 10.654323469970127 0.12145917044946178 0.6982429701508426 -0.061622143687171296
Ni 3.088839249898327 1.3693247061045546 4.479126652646023 0.019980813997301075 -1.7748163142857372 -0.6985407038969196
Ni 8.607010632614474 6.686902822601867 7.295245919373275 0.4665413239033449 -0.07809802985500744 -1.1663092153391463
Ni 6.7451753591448425 5.585975836028694 12.476046670414668 -0.05518512981257592 0.10537357774150885 -0.19607001308681715
Ni 7.153412125879531 8.994247101456436 7.727683790371537 0.026939761813637473 -0.36446004375986263 1.0958139375320612
Ni 3.703093263104357 6.3091982705294765 8.18004280339946 0.897070491378139 -1.150702362039825 -0.653147620474101
Ni 0.23167915928125765 3.127352329784852 1.0112066449405273 0.19362926485580845 -2.1360107999204505 -1.3410454999451935
Ni 2.3297828245438867 1.6768089245786189 2.0132808863883134 -0.13387374206373073 -0.3556483590055036 -0.49005791896804635
Ni 6.42389148207341 5.264983368641538 9.876744669070552 0.7789727812017423 -0.15361158681229028 0.17057212592602883
Ni 4.567301582920763 4.267798229670926 12.314455300326951 0.5359384835502446 0.3106792504939811 1.5966895159409018
Ni 1.9532721121457917 5.589726560674709 4.228024567892093 -0.06650621125234998 0.3991380547580223 -0.1424663688287482
Ni 6.3669067883286905 2.068266133686398 2.3164315608478088 0.3011101187483073 -0.6160774550946809 0.9139155879599357
Ni 5.931982534701679 9.428983348835526 4.900915849762065 -0.058635550255021596 1.150074755758155 0.4356955421670819
Ni 4.647495647971274 2.869896573882447 5.068064684538311 0.9920442139425624 0.23910230958694306 2.4714096646482986
Ni 5.286669889339174 4.52085463937199 1.0691294898623702 0.7113013459966976 -0.8889928565763271 -0.9480001883484707
Ni 3.9521827409742976 8.368787915874341 12.561458848876214 -1.6322617566185567 -1.8806794300691547 -0.613870163030717
P 4.4748683111306224 1.1843359584631266 6.653984808653457 -1.1190963050987697 0.0762964578698944 -2.391624476898855
P 2.7194351736716285 4.755467636152048 6.4596352299280655 -1.3130652126821838 -0.823696349361362 -0.18449362110312742
P 8.038846351086168 3.0504483740729498 3.5668000137368314 -0.3157150131456756 2.26510023322166 1.2585197733361357
P 0.212408518869401 6.788623603039282 5.131188722308877 -0.8001823253998219 -0.13488392849579994 -0.4487294925329047
P 4.843811772049916 6.528921172474227 12.008994029080513 -0.3942773842316113 -1.5905607773353447 -0.7277651479796757
P 5.776896180792015 7.370615744102145 8.985729478394395 -0.32880269956756925 -1.6992737038627317 -2.3365745871125627
P 3.554323919124824 0.8221212411569103 13.119055299208906 -1.5293590090150433 3.234954798441061 0.857737240996155
P 3.4830977521001225 3.03078292054046 3.1905243091486373 0.4034827048799632 1.7629465594313447 -0.27172575204891913
Ni 1.9931012357677607 6.951662621235986 6.204638595748461 -0.001750407032203437 -0.9914605735249505 0.9226642806868433
Ni 8.818066446530086 6.791838509878724 12.801045550945009 0.3091121631171773 0.1414412699983435 -0.04223216919633373
Ni 0.8992959258658181 1.0548654558326378 13.524815083627242 1.17948123394473 0.9754004347382944 0.6690776614407962
Ni 6.235819431966085 6.141299290824027 6.593710005570129 0.4189869711631494 0.28792370196502026 2.9956791965010474
Ni 6.226071308011404 8.067554905143636 12.95467109630833 3.3730441212480358 0.7181582210175309 -2.3499836614296172
Ni 5.584631591356062 3.9299698027824843 3.3648963439699915 0.07568016444213417 1.5224126596041976 -0.08628185121738044
Ni 2.623194775361098 0.817613791363015 8.44830233833862 -3.203825166915792 1.4565867622483237 0.39567683568229917
Ni 5.541540559332671 2.717395305881691 10.57801925418909 1.4192281190942075 0.793946114682123 -0.7225848893303168
Ni 7.417448100459155 3.6263961142651677 13.585462139081454 0.5052230567442588 -0.5593995427866625 -0.2680511314108094
Ni 0.4977888427754458 2.4932730577355997 11.782559304085 -1.3954994080186998 0.56590880466009 1.3063368928194148
Ni 4.998005096281957 6.883406952928429 0.49315730885792297 -1.7931282252210474 -0.9410877774993535 0.4581047631002175
Ni 2.5657964678709533 6.656163801066857 0.8612331209430626 0.4852898081554416 -2.3387358564299396 -0.39549043070310597
Ni 0.2479445198201043 3.4314712364211384 5.378232692201442 0.02771854896119097 1.4570796427243422 -0.4199511348486316
Ni 8.35825956599079 7.648864991024564 2.9125786923166106 3.000214108256923 0.10829486515336187 2.912562887495842
Ni 8.423102920898588 1.1360277530599405 3.003273846344725 1.0643194664682056 -1.6203572918714866 -0.05732942984908836
Ni 3.317031833311898 2.513107716891218 11.290397488309816 1.866907573096043 -2.5771061729468645 0.912286536996945
Ni 3.3447909558173676 8.65558204676475 1.510414934887773 0.9136394514804136 1.1938483012996794 -0.32064818878123486
Ni 1.8627565040844416 0.236484598978107 11.553001795311525 1.4871142414132195 1.605761139224867 -0.07924319920304418
Ni 0.7307436244488444 -0.0202003313078238 1.7304236063293625 -0.6602011848867727 -0.9411695385798823 1.3009915693471015
Ni 4.3211544028307785 7.830272219643106 4.136448604592471 -0.9621348279776397 -0.21014551734327677 1.353422790563624
Ni 7.95970512102401 1.1203292313585744 0.22138205708264896 -0.9703906402285288 0.5804445363824197 0.3592831275446135
Ni 7.878148010676074 8.219125542217185 1.059534590999745 -0.05060342397916446 2.177811023785688 -4.1786679293784035
Ni 7.292771757150641 4.5374179898137905 5.281360592897897 -0.5506261674694065 -1.405551135827747 0.7116106497070003
Ni 1.9939848651329874 6.26810950504644 12.004742267783788 0.49585395682453315 -0.5155370370757574 0.9475839267466585
P 0.6098255260362616 4.817566099840207 13.157811847186489 0.5328487888813275 -0.23132935050974354 -0.3867021429875146
P 1.1315720049842235 0.8709427036169194 3.981337809870577 -1.1672229854026672 -0.8128365238287226 -0.9942137107900556
P 8.852339985526003 7.923081503929086 8.968697052364032 0.38041708130975127 0.47109911847735636 0.7864176675155617
P 1.6303713813422422 1.9871132367714912 10.110333031799444 0.09298368871758825 -1.7013087320148892 -2.186979063438201
P 5.154764705798113 0.28198117094364117 2.9036220746656753 -1.6746438211291934 1.3270612698509596 0.23639288107557996
P 0.969181608342846 6.41071224409418 2.1856995362937734 0.1863656413148597 0.24396915076094114 1.6624110265084275
P 5.768426499323195 2.3524469777307093 0.39994569120139206 -0.012173916358372583 1.5441287111250503 -2.54625319212175
P 7.9447304233771385 9.316696617264977 5.738411301842678 0.5464406686331492 0.9190343972437397 -0.043058007531738746
