# total energy = -381166.2150250309 ev
CRYSTAL
PRIMVEC
9.24280281594688 0.00000000000000 0.00000000000000
0.00000000000000 9.24280281594688 0.00000000000000
0.00000000000000 0.00000000000000 13.52777619796625
PRIMCOORD
 96 1
Ni 2.0127959229447527 1.3392266688975798 0.10147118625909415 -2.5828425612100094 -0.2637710159782167 0.9579876385784856
Ni 0.31481633332863884 7.070124874182729 7.5408155310510345 0.5504176510030263 0.2239132605513305 -0.06598402020029281
Ni 5.222349952428484 2.693861090062695 -0.05013203810670961 -1.3563376502175737 -2.047926862497325 0.7162707741868309
Ni 5.537224515414762 5.989095901502067 3.6505789864852796 -0.24064420015276616 0.46169787976811455 0.6830451793644817
Ni 2.5151237695170447 3.7784300562157433 12.644047013834458 0.08062799536571276 -1.17728962561005 1.2763825125491695
Ni 5.546615203059523 4.837045232106501 10.100378696430292 0.02477386451057024 -0.1919397929685275 1.4547044576239463
Ni 1.2925227863493758 7.236402896554032 10.63680878821332 0.10999333590170735 0.7906941834037287 -0.19904735054758624
Ni 0.6369039796200071 1.696377811890881 2.043059632152666 -0.49918662074219183 0.8679938857271566 0.39033151220998585
Ni 1.8440131010146612 4.183874843838842 5.170721504548461 -3.2377441882607405 -0.5379794252396735 -1.0190518528796577
Ni 3.8706454997509563 1.2050396578477427 3.81500844829659 -2.1258554566540036 -1.1262712255806537 1.0808768566062545
Ni 2.3584859904661024 5.564583211702648 6.885475856966225 1.0952410957477265 -0.481881553804841 3.0062078639465133
Ni 5.467459839880655 1.9028805120476144 2.5049788691638075 0.12266064695673068 -0.8409813616940548 0.36947318070373786
Ni 5.8031307091668465 1.638222096673525 5.333312572882858 0.4923420870165327 -0.24827780543862404 0.40299933748564143
Ni -0.0625719263951774 4.630838301639367 7.396176758595001 0.7432974392873198 0.4674365820241047 -0.023002631542760384
Ni 6.2517116574573635 3.693618097723299 4.084562776313819 0.4736892478020358 -0.323855639974939 1.2812321273319869
Ni 7.015989778183356 5.051145516164802 2.114500027834406 1.5606403356268286 0.943244161720724 -1.1061569713292818
Ni 3.347318005217152 8.781836495918746 10.169167331988724 0.3728323269839579 0.0026523500211825288 0.44590873525465785
Ni 2.0669772329581257 6.390113386583983 12.673538024728293 -0.5305689917082153 -3.072013706697729 1.5940690475989192
Ni 7.558033948387082 7.798393035200073 7.985270492171649 -2.042818851846798 -1.2324421024124774 0.9023487090579427
Ni 7.660379503791052 0.7698506065340892 7.90628149944318 -2.5394012021969234 -0.02053900049361624 -0.3662158501087048
Ni 0.24474664530213286 2.1229701323202907 11.963329376101795 1.5273851731181245 0.3913926064846485 -0.7303604195106778
Ni 3.9706248976381366 2.419728801818645 9.47670763757899 0.1489604611935241 -0.5493300743658023 0.623475547330965
Ni 9.022232553942937 7.421120310511256 12.8154982329329 1.6349444456570423 0.19759339170987905 -0.5710908630816617
Ni 7.598240140566912 6.108503670874764 5.813967895449801 -0.05317067048570843 0.08750183966741058 0.19035290809738187
P 9.159885616042759 3.0732596593955024 0.16709416185853876 0.002072823368628688 0.03847964413243695 2.9921231037186726
Ni 1.5475871724171053 2.061893691418147 5.578746882713308 -0.8463372266893295 -1.800014153707603 -0.8062393302271791
P 6.469204050143252 -0.0006118735453574321 1.5315333482338527 0.6886216450109948 0.9088865101764606 -0.13854055141178076
Ni 9.252507742901171 8.673104163780001 9.266526301907872 0.539090141805349 0.4812598610604421 0.4052711642389536
P 3.7625694066110102 5.218837687364498 11.67620263140128 0.4888636415496291 0.5486405044979454 -0.8928801074458753
P 5.311210258547311 1.8513611292406307 7.895216015931066 -0.42135418584374534 -1.013077637574094 -1.4679782919147168
P 5.683898553047347 5.224281698213676 5.818621646659581 -0.27403331713617324 -0.402008691437598 -1.304804001114656
Ni 1.0812600427506625 0.33948999540313524 3.986906094770269 0.959291959212206 0.35969810359484505 -0.2919153396229166
Ni 7.723812859407186 7.161147996156748 1.178536845099134 -1.0139137603221442 0.6864902004902886 0.43441256168960024
Ni 2.590036686210731 7.516894233124455 8.1735907506603 0.38664609293859864 0.85863481310976 0.6464964337061705
Ni 7.25333571128356 2.7394558362749035 1.751157131245411 2.839981930804322 0.535278995589375 -1.637277464665593
Ni 5.123267106412899 0.09694221288711317 12.814050810014423 0.7469604899612039 0.6813976164587296 -0.05268653176043829
Ni 8.233165236107448 6.068047923019335 11.13724186021162 0.6875374108078804 -0.9130038747789437 -2.7003165217594782
Ni 3.760979644529417 1.2313816458276323 6.335679748054171 -0.8296196568243326 -1.095317200401301 0.8089628998059294
Ni 4.079662242269279 5.179121363733064 0.5394515640183362 -0.4277402918757472 -0.3101822562529045 -0.09029919990688964
Ni 8.622795588139812 1.5376511594071471 10.003723010429978 -0.5632482271087913 -0.06395747668856727 0.25323874898832516
Ni 5.451506762247922 7.4578049948243015 0.9829877905406347 -0.23161268607811725 -0.47031081824810617 -0.4665613785080029
Ni 2.34943728652494 2.938222310488069 7.480887046256646 0.7838637907454564 0.8719531274852208 0.6391569626219638
Ni 6.454960891028511 8.536440081579775 6.1169220156649695 1.5387034263444213 0.8015725208791292 -1.3431106100043384
Ni 1.3285235032552247 0.04978450872143107 6.918510558453565 -1.1460671772606583 0.5464990326749104 0.4373541608164275
Ni 4.889951035333479 8.857183824344029 7.819108929115626 -0.5222941532939328 1.596736052908121 1.3526267770248899
Ni 3.2154694232757057 1.595307763273305 11.937586321743341 0.4078342969804396 -0.5244968173722063 -2.2820116642650183
Ni 7.731262558463954 1.6158729995032188 3.999771151987534 0.7259388934042142 -0.3677885939124634 -0.22524046400318626
Ni 6.196291811868796 8.286034068123227 3.6496861317348035 1.825522839501669 0.8142259479770816 -0.29430775111449314
Ni 1.9640031669637579 7.032109226266489 3.607912360200099 -1.5406325250463337 -0.867424900597564 -1.7272041117244126
Ni 4.861483202709598 7.289105358119411 11.431227688869987 -0.40112166084695433 -0.5612106278534722 -0.6879493015343184
Ni 7.411581738021696 1.535968969297554 12.952088372710726 -2.0107543672120856 0.973878084556497 0.32463288446059574
Ni 3.286149136287009 2.8844014697838953 1.4500561929916345 0.4516240404718802 2.1083282464035173 0.8213738718757725
Ni 6.565735882586046 2.653146543728866 9.405700729348569 -0.1264260275364339 0.5151436582920805 0.5209857188951543
Ni 8.970648471516354 8.02296541483073 4.965221648495523 -0.9682172867262938 0.8991708255505932 0.5158630529566083
Ni 6.413562377287485 3.5234118841620132 7.032563047883967 2.373706458967854 -1.206296297255045 -0.7972142439104335
Ni 3.0034672554529958 8.226131463176678 12.859964432923231 0.6214680299826328 3.2484654313329857 0.163226484194235
P 8.607914675631875 6.211856691783931 3.705825991661488 0.21463286369066908 -0.09784230236147021 -0.94146058745774
Ni 8.490928520592767 3.2654175296066965 5.69271803547907 0.06288378400841428 -0.8606844965499371 -0.5227191566464933
P 1.1291562468600613 9.553730686151905 11.357379543058858 1.0822248859937167 -1.4569104641363295 -1.0611418400711723
Ni 3.270038931006677 4.638934996892132 9.294975648926151 -1.5999383618955025 1.0479572230600984 0.9839573231693699
P 1.2933453957985723 5.717801153717605 8.880768684248691 0.19784638826094955 -0.5144288916132431 1.1881828754837858
P 2.0522072340837876 2.9361704082664777 3.3304711485536633 -0.4731652569777658 -0.26733790739386865 0.05163289368494333
P 5.2078572376381445 1.9837920077584745 11.435773299287007 1.863904267493345 -0.34784428958005253 -0.9793159677426166
Ni 1.7902662027328868 8.57345750679362 1.624631479436462 -0.4193353556415036 0.04931401574377958 -0.02838472179028015
Ni 8.534915019117783 4.062313501413752 9.513963527105073 0.8970434947949454 -0.4840757332426824 1.2116670746486553
Ni 4.6943178712695 7.130526590480476 6.5053313934474595 -1.280572382260801 -2.8506862045957035 -0.02988753158805175
Ni 3.192833799218601 4.9866399954238725 3.0825874959812234 -0.20921220689573 -1.0905912556805408 -4.285126769764291
Ni 6.749094604531676 6.785557461577524 12.593696845581668 -0.693549164219599 0.07413930231757554 0.8764530722381033
Ni 7.250313314767973 8.87860864123434 11.59932377055204 0.8659174628141022 -0.5017471823805165 -0.25256511996006825
Ni 8.841018162246897 3.974932043742919 3.4064294262440247 0.6780081311612065 0.0704993915721431 -0.1467014899560183
Ni 1.4136497170428675 3.021231922434521 9.70063302101365 0.0491432944938702 0.6060121004388789 0.6855579184840064
Ni 2.4554984486544953 7.910739303233601 5.486433465468415 1.093110165447653 0.3998741615930984 1.5281490478673425
Ni 4.604320700406277 4.661071509598039 7.512893948072631 -1.2579309907122014 0.46789629526934257 0.3284198623068537
Ni 3.57187189924221 5.422881801976442 5.016424003166468 3.0569853516096965 3.5050378726802345 2.936858526818413
Ni 8.515116935520265 5.014636445104956 13.152650723507922 0.9175801812957166 0.14399617520971328 1.2489701819744878
Ni 1.9221517558855334 1.0398153149956364 9.094087951470394 -0.0019193285098999203 -1.8507335344393416 -0.5483731097691718
Ni 8.412198326342697 8.84519590911248 2.712467776379297 0.4843883793870948 0.265243229648369 -0.6140395987290457
Ni 4.756873160619637 6.695199821405103 8.90239961564144 0.5787897743878161 0.7821318956560143 0.5621051146432836
Ni -0.32998192416281513 0.21659584081429104 0.2952964580954007 0.9566856319376105 -0.5040861149263384 0.9159107640130936
Ni 3.8154844526407876 3.1845892191210354 5.078935851343445 1.4700452017460748 -0.49155970032455343 0.020537972052351725
Ni 1.5471712462911071 4.4336431039021935 1.3827417844797973 -1.1795457686340782 -1.2506727664878912 -0.5904849513375573
Ni 1.430425404124797 4.851769016966839 11.027600036277361 -1.298061797294816 0.9989807931613955 -1.070462603251466
Ni 0.7163079741941939 6.060237754653367 5.611388765081651 -1.0469069274187133 -0.12862637762186235 -2.9652285933206737
Ni 3.7769881789789492 0.8315509366252303 1.4080522756672107 0.9172459378847494 -3.631613024200023 -0.7023281959638098
Ni 0.4760745894992821 6.339204028761797 1.4430076315763842 0.7347917158091538 0.9297736380381147 1.0100388507477702
Ni -0.043096416615379135 2.240575555146997 7.910326149948443 1.8350438916182268 1.477691662547739 -1.2073851594438496
Ni 4.094598611594017 8.011504339358778 2.889154118983635 -1.0661302944246995 0.9152206799246043 1.2073422220210563
Ni 6.253005649849358 4.509757584959874 13.12942356007162 0.27519339888254546 2.1451284459510025 0.30454742656463035
P 5.145200277457207 4.099155313374397 2.281581249769025 -1.0177575595482664 -0.0947693198631013 -0.9333664975956959
Ni 6.022194378328727 0.3219545499310489 9.750131002848281 -0.6281089323379183 -0.3134493570399505 0.5292057928121016
P 8.571257719727228 0.8298308510241574 5.956198917776444 0.44463861029298263 0.7114625541649101 -0.7908690184186961
Ni 7.442545127401567 3.4546361885275023 11.513490482350202 -0.04624848944457841 -0.21427368057903742 -0.40892238783829576
P 6.778921129167152 7.189320059091029 9.984473025038499 -0.8603911336792345 0.11829028580317691 -0.0562379965571225
P 4.534833308956169 8.560277270000876 4.991600607686612 -0.5957217742564643 1.7662738240323645 -0.0612912427103138
P 3.3716080909754504 7.08898019189465 1.2381815758475636 -2.3270064838081534 -0.7616391750193012 -1.1831332288750205
Ni 7.170196700097909 5.426837721574826 8.428548844495829 -1.1481929653544096 1.0393777089212035 -0.614056053789278
