# total energy = -340859.01031359285 ev
CRYSTAL
PRIMVEC
9.39854801303829 0.00000000000000 0.00000000000000

0.00000000000000 9.39854801303829 0.00000000000000

0.00000000000000 0.00000000000000 13.75572503687471

PRIMCOORD
 96 1
Ni 1.2503076533954087 0.5260705730056922 11.537821205885596 -1.0161277372543276 0.583084545108428 0.6712767259746439
Ni 5.184361323684539 3.913893784573413 11.550186875646046 -0.83573708257598 -0.16784032881716254 1.405243117669025
Ni 1.0453535145596873 8.601231688069506 13.657495500163204 1.0401791217765761 -0.6311238079048421 0.044570330411207115
Ni 5.384146261054691 1.8620027591863968 4.647853662992458 1.8276722817445041 0.36057356422126285 -0.6718431400010751
Ni 7.77434742454097 4.266217157918426 4.322420475671332 -0.8426147835324198 -0.4947288420811545 1.0276907595015787
Ni 4.420578912228413 0.753368820140035 11.172771258532354 -1.0621623109158869 -1.3171560949221057 3.021491015357829
Ni 8.549389296643914 3.655020175177756 8.829950995679473 0.874928408063461 0.4848591483759262 -0.14424582932667415
Ni 4.1460097274736665 1.3271219871737525 9.083332093554262 0.9369449589755735 -0.8775715021132628 -1.14403086355692
Ni 2.5775800173390686 6.104131438275275 8.169264078107453 -1.9009857457266748 1.3354186406767197 -1.039628648589745
Ni 2.6309449735599713 8.127601254149784 11.764487870586327 0.3694238155230412 -2.2472475213109555 -0.018985797073883433
Ni 3.80235181549457 4.349112352329902 8.667413444360582 0.9910990764204738 -1.7274100570876316 -0.43674712336004784
Ni 0.8382781234134592 -0.24701076195958452 6.547202492985368 -0.31914229365966973 0.3458686539109204 -1.842834077086607
Ni 7.642034664118662 2.956792636853155 10.937438192610895 -0.9754611127729006 0.8654289532134579 0.717492562409074
Ni 5.655632722026335 7.882928850962261 2.719796027914594 0.4335029053911373 4.531616115843924 -0.5416447899064026
Ni 8.392903470458986 8.872849728714819 0.7577908370301258 -2.09324975480384 0.8696874713794958 -0.6106758244631354
Ni 8.931835016711013 2.0398608837944217 3.0614464100154257 0.0670289165250394 -0.5983355577302276 -0.2815301397338506
Ni 3.7442405924734636 7.066984497444492 9.858342950448414 0.7537543729545857 0.8433904853561798 0.2295051528168112
Ni 6.583983711049916 1.9135725927165297 13.205414057371218 0.702206582784281 -0.1893067262210546 -0.02631909751050306
Ni 3.2816252569494635 2.6994133966084526 4.341526784142884 -1.3220759008212262 0.9159889255491966 -0.07206107963230815
Ni 5.174896985728489 7.807120161832673 11.963767166067667 -0.3838111945929648 2.2495882536289904 -2.733631333861524
Ni 0.483845715870495 7.4481614135154945 10.592444746944057 1.8979649566224799 0.22927889573861804 1.8238367100484978
Ni 1.0713780943017934 1.5963621951449045 9.394197531290605 0.5293698291937916 -1.2757885877189126 -3.663675966172839
Ni 7.605916043696519 7.990579821119749 10.265595198421368 -0.7627882010220799 -0.4763071450408571 -0.6226787624612824
Ni 2.640277731842352 5.942654983039042 0.5154614918887223 -2.003117162381802 1.130810508211904 0.4419163262658132
P 5.747841877623953 6.65072280124446 6.795837324059953 0.7023276817431775 -0.352827858837573 0.297396674452462
P 1.5812023370286106 3.598074372123432 8.640218745377632 0.24539971255988063 1.143450565573418 -0.2664480485897475
P 2.5196567652803465 5.096146551037586 4.39799420109794 1.0479631365973694 -0.15459092000642408 0.5154509051198541
P 0.702511396557339 7.056411130810376 6.677867687922377 0.252904505577358 0.16172136040361826 -0.40887019444412165
P 2.2990728409223706 9.145041080795403 9.805287206460632 0.33709502148334847 -0.9952452373783635 0.026472849479547957
P 5.7390636336806065 1.1662094448246727 6.620190677824379 0.9416971289485783 -1.573664258690322 0.7534232148674121
P 7.438612488626372 7.765371811087121 4.330453414748824 -0.7124696552731858 0.14224705372909052 0.6043925625575849
P 5.656722953608164 3.774428729032382 3.577520687241521 1.2302826328673133 -0.3564798537678635 0.8913009358842132
Ni 7.550774761881084 7.2737807517115805 12.72960316028784 2.435427847237051 0.21632850622553712 -0.5962532212799022
Ni 4.621736037623972 6.435054317552835 1.1031047731878276 0.6931205613226127 1.1895956966709125 2.3133935210104095
Ni 3.2172733979771984 0.30525074508992406 13.275870273346914 1.1002658026558276 -0.46810789705951644 0.7236842930420826
Ni 0.821098517306346 3.7710640488057035 4.260188929154761 0.6037639278346505 -0.5066538756535145 0.7227795218396261
Ni 5.9201830544859995 4.285831927843228 7.1705846933626 0.23537832376813655 -0.0654991101440743 -0.09623819109914393
Ni 8.247113192033723 1.0820924391576987 7.36824085958375 -0.8582481191943026 0.9068805354900251 3.914994615320316
Ni 5.18553614219944 3.8096544873832 0.37461954904822603 -0.16604852702406242 1.4612034350847285 -0.9290182479293291
Ni 8.807332449775771 7.837750030153195 2.7538413286216388 0.9445055449316507 0.126544298281853 0.09046760716395387
Ni 2.52943125532433 0.30455807209353786 7.778339927782013 0.6639141149619856 0.505065448120472 0.5181351368202367
Ni 2.9930146413046095 4.2170627512549315 12.842069946501613 2.4404620672268487 -1.3270504712176825 -1.7606279386004968
Ni 5.8941114820032965 8.714954120312006 13.933861687318343 0.17723848220261088 -0.2644744698031445 0.4512741133316293
Ni 3.696026040621891 0.6656305538827275 5.688184593437237 -2.2599433716110693 -0.3824348830707284 0.3663773153872335
Ni 3.2553375178600192 2.5696100485339746 10.71393507920709 -0.08050663929650007 1.7107940457975053 0.6931843246810127
Ni 1.4367654495325148 6.061067290793031 2.891769721545178 0.25747798388065335 -0.4432031633980367 -2.375333710158632
Ni 5.171720276464193 8.453204555191869 5.308953176826912 2.2487948111934175 -0.9029765724499286 -1.491618042820844
Ni 7.4161405600733294 4.614987880074375 1.16756283575384 -1.0864396954060127 1.6479233744152135 -0.7565617604963939
Ni 1.885611912061865 2.1490250201991032 13.534450648041252 -0.9512397783316908 -0.341494950323257 -0.6298207728227024
Ni 0.9525616489786777 4.315221187812013 13.632707769353585 -2.2688108493040278 0.47747519720702936 0.2795136235244541
Ni 1.1900817570474786 2.2121080751752746 6.435216912435297 -0.06259633467498252 2.828248187307161 3.9329411724964074
Ni 2.568068686642423 4.9624616025898725 10.52176766508756 -1.3002894010737542 0.14966597190098094 0.182493302843647
Ni 9.476556068604474 6.219959145296481 4.550600306619256 -1.7285837656807583 1.0219924235652205 1.8845396843555091
Ni 7.138507448631719 0.5143891175483198 3.5338869877432533 -0.5959665432774188 -0.9070867379635604 -0.5527095323609965
Ni 9.175623956375329 6.200936483903189 0.9298181023849893 1.1505324121208635 0.41546867359724576 0.03405554692281232
Ni 6.196058637429316 5.920812757209986 3.038928428576599 1.159356438170397 -3.209853118277427 1.0571337473530438
P 0.9643192326758155 6.444622039538195 12.84336318672282 -0.020438470360009963 0.9004581769034492 -0.9012323360653123
P 3.8712149775640583 6.072044794996275 11.908564793689457 -0.20574301740020692 -0.26540932291258806 0.08347523500652076
P 7.614073983463998 4.274657054129481 12.80494286186628 -0.6451273212727857 -1.3436672538387568 0.08874805336968587
P 5.750445275452977 3.8723334047902447 9.566391150947178 1.102971631622765 -0.980578379394808 -1.205706486189846
P 7.159156058849634 6.893919632377267 1.0847183935022073 -1.2527527889453716 0.6658151886394404 1.1395054648827407
P 2.483284384058985 3.7317687191192657 1.2743030865985763 0.28894597258194754 0.3579860059997448 -0.6498522375522807
P 0.6391134902191743 0.2889771590215033 1.864863677233886 -0.9089988673846087 -0.36066149594937885 -0.20586128814562613
P 7.896162006714116 3.322405557238737 6.756166052448746 0.1936611465350084 0.6021891271483629 -0.3840047986610096
Ni 8.301333416133474 1.67699233945965 5.394389738649823 0.09496009571766872 0.7994621594043457 -3.1676595156285123
Ni 3.9558677004738274 0.4097240661283059 3.273683483788727 -0.14716146031157237 -0.6859767511889798 -1.1869119791911624
Ni 9.474300417055861 8.885584761416354 8.630741249454216 -0.5693522831240001 -0.6907859996521651 1.551588509837205
Ni 6.371200581630888 8.377546242832189 7.991209523843738 -0.8286863463767857 1.386669982652528 1.0321775916283384
Ni 4.284788689001995 5.721140602417264 5.583724430366221 -0.3015993996798999 0.14146518125774346 -0.5130716062544003
Ni 4.064477322539476 4.488389436908549 2.4795240249564867 -1.2695030118205168 0.8284166376551668 0.4540478194220245
Ni 1.0760021799764474 2.8796963466312344 11.032407701791128 -1.6146160185123353 2.826927411613209 2.8659503298436255
Ni 6.914699822268853 5.4382912967694885 11.072932361571558 0.7692835789384365 0.8365742337652947 -0.9536193343074608
Ni 2.3870244542219843 4.368059825338239 6.5687853188863325 0.39535030558081585 -0.671266955782631 -0.4067924859794865
Ni 7.860203161609999 6.47880455904778 7.840267901194332 -0.8003800432329248 0.4080667247062198 -2.411138892782699
Ni 4.071197284444715 7.980072244322468 7.230862281725185 -1.3580749446236546 -0.6709090582225801 0.97156871969703
Ni 9.422796373362564 5.066155783989171 6.689794445485662 -0.15746952710579978 -1.890331094226306 0.3163657593557971
Ni 5.749627601766605 6.11892475301492 13.117101539823828 0.5157789778832342 -4.301178423910515 -0.304884755299391
Ni 7.772430120724651 0.044394981895923925 12.127212617134877 0.21380882512747693 1.480988588131456 -0.39816643487337233
Ni 1.8457996622288704 1.978554154412782 2.2734091654280424 0.13352664313695714 -0.1835654528619032 1.3643762042513343
Ni 2.2004444769593285 7.933699807902261 4.934701111010147 -0.2440560540477926 0.12280694272660785 0.6955265996609441
Ni 6.518635605977013 2.6537834454896636 1.8251924056226794 1.202731462721922 0.038568347191501325 2.0378640789446845
Ni 8.070354697555647 8.482462235486986 6.425780770123605 -0.5842657099007228 -1.807822079787796 -2.0529389709999353
Ni 5.787296982628418 5.872400835847911 8.961649091054785 -0.5923302320764121 2.0961124210636157 0.08147131720261452
Ni 4.001760810939954 1.9170688526168775 1.1064374983509013 -0.75233949488493 0.33540195005164175 1.262201335952781
Ni 9.247278487236224 4.985065110816584 11.612377068550892 0.6455854918561269 0.8865569934413248 -1.2392565542311496
Ni 3.5475007846939364 7.02822488500085 3.305679901005782 0.33153321112485484 0.06464164723978544 -0.40193490077686905
Ni 4.1775230593173935 2.456554913207937 7.17168526334736 -0.5497098263027242 1.3693705721421319 -1.09693108185564
Ni 8.78507668782947 2.715654087758456 0.5321674111706269 -0.03566634305335793 -0.6640377850240434 0.39976540392937604
P 3.2821139814516624 8.2821227837778 1.26757936527409 0.26296497513715356 -0.5080337867201766 0.49699912617256986
P 5.725924463409944 0.825746099351298 1.6174807327687806 0.3297295822572127 -2.2835797800830866 1.6961714107883243
P 8.913667623196568 4.179806906510363 2.5497339989714582 1.3130122479570612 0.23909331072587856 -0.3108875098500452
P 1.2633622367329982 1.1008519412036517 4.909900222233162 0.756274311162962 -1.7348410594443802 -4.463053022062546
P 8.724700414711632 6.133304531637319 9.555043343948038 -0.08572392183138139 -1.7568098504059872 2.4930185011673256
P 5.72872523074947 9.078875302036131 10.177420839531328 1.4749691214102534 -1.7290442502569447 -2.170769286447558
P 4.504404562903692 2.1312335686094293 12.776179545202234 -1.0613125613210819 0.9548521782732974 -0.5235249403772403
P 8.677416319123862 1.233239890010914 10.493445140330307 0.25665137421429995 -1.4096646437754883 -0.005016736488301037
