# total energy = -381164.93899793376 ev
CRYSTAL
PRIMVEC
9.24830445643386 0.00000000000000 0.00000000000000
0.00000000000000 9.24830445643386 0.00000000000000
0.00000000000000 0.00000000000000 13.53582840493591
PRIMCOORD
 96 1
Ni 6.580751405507872 4.857422316021296 10.37326380952656 -0.12330188008515539 1.4891029897084742 -0.16120688266104494
Ni 2.5941864490573288 6.251761464001454 10.25417524013995 1.0978618212000253 -1.6165641433776419 -0.9386663125420545
Ni 2.3129455044867226 1.1707891278499152 10.38392987928563 -0.26750965708504254 1.415613919380388 -0.27369650262204476
Ni 0.9524366549360045 2.716042111196833 8.788542761232272 -0.5396089904232965 -0.9176382882271615 1.5126360398334078
Ni 5.472684279830856 5.748958884801515 -0.06186930848367125 -0.6481496530388773 -0.874304658436533 3.072012421146148
Ni 8.960145978943618 7.650271597381197 5.410420068738399 0.17251793679848998 -0.338491644720559 -2.261893553358904
Ni 6.301091921033339 3.6850054865520305 8.241058847750715 1.2638018476706814 0.8957116633573995 -0.7593758329064212
Ni 0.6900086116954057 0.18566064078754949 11.79635316218895 0.5076825740283449 -0.11345944007343686 0.7052916494675079
Ni 2.907556004000783 6.157706205656072 6.448671742571828 0.06714667304982629 -0.8927073293134368 0.4628607897279642
Ni 7.805125210531155 1.483067382844032 7.902000276965967 -0.7380577881549354 -0.2939642517321453 -1.3069878961398524
Ni 1.7483550018840794 0.777074001382239 8.003180429217865 1.066933249941969 -0.9594246281353281 -0.7259280947709369
Ni 8.02370889106145 7.4598212596126166 7.3707591609506835 -1.0145506225751946 -0.4099796254582165 2.7700633514363133
Ni 7.925686110018902 8.379038004226437 0.22674253489728613 2.7123163744338323 0.84147578483197 -0.649574558410862
Ni 8.753131927537224 0.4430788773963201 9.781951255452613 4.761273477967884 -0.9807709550215884 -0.6331840328679804
Ni 1.4727277782392987 8.430930241647866 9.66431097057504 0.6375196841288568 -1.5410454442140362 0.2141286703607409
Ni 4.595029416338387 8.387657424165267 3.8504696796331257 0.9814605248894451 1.2497204298769509 0.9137160703546199
Ni 7.384651039373554 5.1852747160551 6.826903357385439 -0.3904047886500825 0.962659333022542 -1.7672544427780792
Ni 3.019719442861431 9.066372006215502 2.0805513306145236 0.6670362055307351 1.4623210936289397 -0.9601427372482755
Ni 1.3294530425178968 0.5656401851810307 3.7962588922345883 -0.32195765162127776 2.2636411321776304 -0.413739606721281
Ni 4.78834672855014 2.3787749370238345 4.63780837435239 0.8424520327023103 0.5861112477498939 -0.32165426144824605
Ni 7.937052276440385 3.085225184735604 9.755773004295047 1.1452264265269179 -0.6718364551328558 1.1426825770591418
Ni 1.5906251659862929 5.428532873405994 3.91809420810385 -0.3904562107133082 -0.03188476452373864 1.4139452734287135
Ni 1.8766567323683945 3.276128689432298 3.2409509130145664 0.48874614213515827 -0.3465718506255322 0.9031161833515866
Ni 8.532023459836006 0.9099601164842341 5.201142032352363 0.4152699273228784 0.001725981552171221 1.733187068780725
P 7.185840234196497 6.571327383064023 1.2133868190926713 -0.24729435847943215 -0.3276385040561389 -0.3414227023244249
Ni 6.423798427201139 7.412432946558365 5.700113038933573 -0.4087071865036961 -0.7242219107131075 -0.7976760140382004
P 4.999402289090942 1.6851428395644448 11.95478956856241 0.3999322685245435 -0.4182891737651764 -0.6711844233711538
Ni 0.009292696517742364 5.3479523949435235 10.828987893878203 -0.6492110044238562 -0.8634638590672872 0.8799978521665683
P 3.3418841355321667 1.8379803222995266 3.106106931817024 0.3618164354894285 -1.2799817998646537 -0.26762947049235847
P 8.691094299908825 0.6862279047522796 2.389736952531876 -1.1343383188595042 1.220693960737614 0.3450307313906574
P 0.24704996225960568 2.5546314500461986 11.334171911526907 0.2789451526154938 -0.4545548409654301 -0.4935715885482596
Ni 4.042017791164301 8.192758651857442 6.365792135572026 0.5203766245562458 0.37107292109068996 0.4761611063812961
Ni 8.821134711668353 3.381966287908655 7.11899348814729 0.026856200960895683 0.5680189090245573 0.1786713579943955
Ni 3.9947589543752247 4.19630725773028 7.712918688286387 -1.105475371881225 -1.1289089203138172 -0.02456689070608672
Ni 2.006974593267586 7.692425370000493 3.7792170412460893 0.8456242597827048 -1.2757525922746544 0.4765879095060695
Ni 0.12108157903984709 6.4812766406344275 13.573187393428856 -0.5738745964743859 -0.7944438802541479 0.6519119482947869
Ni 5.779691001171397 0.4139115741741308 5.820270712338346 0.7221609144190207 1.4214891472142421 0.31979998184832664
Ni 7.718496340824056 4.3382317409719935 1.912626163664628 -0.629438192672303 1.3432947009906866 -0.6384959319991972
Ni 6.312680046766551 6.48086971522959 3.2993585810657224 -0.9461986163633574 -0.11510571742760821 0.28390841015804
Ni 6.868179465892939 0.9084322965551628 9.981292913316892 -6.371424518730331 0.6048723304074809 0.7728877513499269
Ni 1.1032580072562101 2.3785622260167605 5.643980453827644 -1.085458562439666 0.18983431658975047 0.5768524481557872
Ni 6.534121453435363 7.228807857625469 9.459391660173093 0.6872062527207068 0.9137577222258327 -0.45641709098514943
Ni 8.610254868916003 6.578254363250915 2.872871162221184 1.329717476526884 0.35795386721022865 -0.12207700653911881
Ni 0.7858053258073988 8.446596869734108 1.9101217227639469 -1.013087664876423 -0.24102652319284942 -1.1353587897042188
Ni 2.917960346738104 1.2787815813109795 12.728443546883081 -3.5324661440945166 -0.6083050102381137 -3.498035216110156
Ni 3.9584316136888273 7.644768856111236 8.834307071989036 -1.26942176496062 0.5740304053259597 -0.08997421246730311
Ni 3.042026353690247 4.842153365035236 0.802883245184054 1.5540732239322719 1.0732267962601645 1.8226704576545385
Ni 5.102363664819471 6.166362618813523 7.592002653899871 2.59344399087494 1.2026605002746706 -2.4506626619089342
Ni 7.252298551450176 8.944155660194438 3.763298859273221 -0.8811746460834889 -1.6626208285263884 -0.7875985751975404
Ni 2.826679579789341 3.9354125834015456 5.575800102247131 0.37896183692046354 -0.10770968207385322 0.13420232904774307
Ni 6.099118195664135 3.9493682751265387 3.5504611504253236 0.5370000920455396 0.8370061790963907 -0.3264732801034442
Ni 1.2910170883700691 7.332583084163673 7.544370185602717 -0.49668879402100263 -0.6328047951516907 1.3691252889005452
Ni 5.042841576057339 1.8170514088643646 7.971817578470486 -0.016947940708248233 -1.3072244376306907 0.03517037725354588
Ni 3.8240444987412614 4.620536240577971 3.428516704561128 0.5617058223223358 0.9516786656413223 -0.5700074002094957
Ni 8.562034208442768 3.705046562740275 12.992581601654464 0.07832480115383286 -0.629162056192781 -0.6647913753606164
Ni 4.229786120582815 8.704199147605522 13.004330647888679 0.4133295157670559 0.21932898361475772 0.5913215883062397
P 2.1304302121124734 8.13138690216423 0.09910575751769402 -0.598314474684305 0.10241629488539782 -0.6533854475165198
Ni 0.7019842413936785 5.248690341077154 6.143993744343516 -1.1266167818455306 0.2925761131353671 -0.6042539800971916
P 4.545652717783225 5.465942265737072 9.368946015134712 -0.2037624966350684 -0.7363397770225641 3.2420430727464096
Ni 3.5942518729686257 6.527268459685715 12.808128789454909 -4.021427230453958 1.0094693513975455 0.4244495369396174
P 0.8255952317567766 4.436883406731107 0.653661849569232 0.6601315079911019 1.1024373563858498 2.4025452375764167
P 3.874494000636449 6.65906604932977 4.650532191897283 0.2055974929612782 -1.6944513427734236 -0.7148358415125173
P 8.412442880641729 7.620797250444448 10.69288521841706 0.02840966149094462 -0.21795472897505044 0.35345597933987516
Ni 8.46680441540615 5.283843147072316 8.841549419364677 -0.301499640877242 0.5433625439284577 -1.7111470582615498
Ni 3.0043857537427834 1.3231456987429164 5.5075254179591315 1.4589352078758422 -2.213549357727562 -1.2127867900753952
Ni 7.859847429177135 1.1247048257520744 12.36728060314147 -0.3285499601268148 1.5101101880877605 -0.06595985183057672
Ni 7.237917437711034 5.777489904663413 12.43533887710053 2.885096306644457 0.7796446104577863 -1.5505269013419103
Ni 4.950913427782699 3.274168048845354 10.054575554575788 -0.3210261409459439 -1.454210034486031 1.0639397145312839
Ni 7.240839901982139 2.001249892685896 3.6438856743932075 0.04798424118876252 -0.020283175729068292 -1.1304392409154145
Ni 1.5355422634587514 4.76050008323274 8.23559032520798 0.863791674720351 1.438400321147284 0.31718362727140215
Ni 5.2679730562836555 5.033907713760226 5.533501131244743 -0.6408274083458513 -0.1528176301560852 -0.48217491667554374
Ni 5.299713237860976 0.9313412720170453 2.489970078387063 0.03474820211446273 0.6000201445215021 1.9179833087259353
Ni 1.1528659134277568 7.102873693132935 11.621267032944381 -0.038158256237276214 1.6311415269711844 1.447413580389488
Ni 4.288198412786299 1.748928396772714 0.6181030429996982 3.2728862833795116 0.7445385107832726 1.8290051416233146
Ni 4.252370480551293 7.113453753658709 1.9532604398290434 -0.5441205051404049 -1.7783446391539695 -0.8423075367046462
Ni 6.572566655887847 2.230746572709559 0.991739175230043 1.4471958079517269 0.6036525990677668 -0.3257613416380842
Ni 6.410545606629956 3.3883846113395 12.253931531624 -1.3003315671655993 -0.553806107859285 -0.18784659673576035
Ni 0.6593088643918171 1.0767801110278101 0.4843929039529072 -0.41188558423167776 -0.5021583017760062 -0.6364454772280717
Ni 4.955278627580046 6.842672641653356 11.166963488187806 0.14647908953256708 -0.4291091471988158 -1.0044999232074119
Ni 6.837271631734604 2.983355108956412 5.972264749688856 -0.4992812373385272 -0.5826081196926417 -0.8292039094431526
Ni 2.3471179901884125 2.7544780653446606 0.8267105772982174 -1.2518634443618828 -0.506107002011109 0.8757313635807304
Ni 1.5640917799299603 6.3913276295560415 1.9198407661263028 1.4672871793849631 -1.6398519102609888 -1.458084944060405
Ni 0.18156549148613993 2.827622906864191 1.939616415970937 -1.6728903287731962 -1.1141453888513975 -0.2556334744727468
Ni 1.8039835543862892 8.636668027011817 5.80597745749343 -0.22828567858741328 0.7708131282090853 0.49346103111232437
Ni 8.983137264316934 3.6132756356447757 4.246500581586513 -1.1323009767145016 1.1689050010907802 0.5766444459100392
Ni 4.368880622599978 0.07721317073743951 10.30228122163546 0.921893978179722 0.9084741052293902 1.0606494738157863
Ni 3.9554074180665126 4.331397243831656 12.284819944342557 1.4587598586402424 -1.8865250902166544 -1.3375130613119028
Ni 1.7378396794908937 4.7152666251631965 12.348533364774514 -0.6164019283136353 -0.23587197557510345 -1.5159928721207827
P 3.068578236355891 2.30915369957801 7.263406690171773 -0.5134387597858319 1.5138943377205412 0.9507934348228917
Ni 6.338806507418045 8.560471244956005 11.984704134800753 0.6564424891752888 -0.01044073571734976 -0.7762250432532761
P 9.212633944340597 9.200934838951522 7.225885393354363 -0.23066060657749307 0.2198324056137375 -0.8193938653312662
Ni 6.005747311863253 8.526788919401051 1.1404075222264722 -1.7834755326226315 -0.3327796819374462 0.44512891966583984
P 5.706897595228772 8.90218685366825 8.089539248429027 0.18723698817621945 -0.0019231851646418492 -0.21130585619996511
P 5.205047591408338 3.958875532312286 1.3512244765071655 0.028594780918557206 0.004308654677682901 0.31977941302303636
P 7.984440589494636 5.621674467829293 4.667532425514834 -0.3747187453733934 -0.3399669437145048 0.8834251326805623
Ni 2.7030852363746227 3.5463641514629827 10.161928950185164 -0.953147793987681 1.0021018552888805 0.47339897025512667
