# total energy = -340865.2673310363 ev
CRYSTAL
PRIMVEC
9.30092922394422 0.00000000000000 0.00000000000000
0.00000000000000 9.30092922394422 0.00000000000000
0.00000000000000 0.00000000000000 13.61285007157669
PRIMCOORD
 96 1
Ni 4.2984616390696315 8.019689009380496 2.8871897955425587 -1.8988141919966521 2.038993307453121 -0.7518275882455181
Ni 7.814426802599579 8.352476256587945 6.441491529098768 0.43690704597667984 0.10357200575639582 0.46954334395446234
Ni 9.121839820080202 1.1733122201011656 3.6456842931576046 0.14614150368749024 3.0888963413856803 -0.5716346514002736
Ni 3.204560752581021 4.664834541661824 1.7485979441900068 -0.9641891394035071 -0.19864831533695465 0.9467819996706535
Ni 2.4640672733629927 6.266008107376099 4.569561403371025 0.9581907557282272 -0.9942052261496231 -1.6351383068354035
Ni 8.290169331796365 1.8797735993322724 7.451551979484043 1.7398729654413323 1.073593949791596 1.5931210818633532
Ni 7.134249849321749 4.901245560373924 3.4315406290720936 -0.06368236865030968 0.8319629602455284 -0.532090056338432
Ni 3.7479024352910475 3.809111850435604 8.362591947198979 -0.17492243247492456 -1.5124234096019693 -1.0241997156291844
Ni 2.0186643752559403 1.310845060359873 12.158752253706792 -1.7691421467190949 1.632744095571614 -0.5253229128179276
Ni 3.4737110421195663 4.722528205564221 13.029471763194534 -0.29630524116049617 -1.1584200423990565 -0.5008436967296406
Ni 4.901626898471618 4.994543181300081 6.2208548863303195 -0.8594691360855972 0.11190032311643311 1.0693814543721454
Ni 6.031020130833444 2.801449179601198 7.176953205613073 -0.5680055392881186 0.5892163690377787 0.8514064136821208
Ni -0.008632192401711388 9.094857824436021 10.559447244671219 1.6052260926570032 -3.0171121695638425 0.6292710709668196
Ni 9.324088525796412 5.92228296741527 5.884058938632473 -0.6829955570734688 -1.58821207459751 -0.5306353261697765
Ni 8.719481622366557 1.8283766645064377 10.25300766973569 -0.4099770543550552 1.2794141002866417 -2.192338785088218
Ni 5.148603772768617 6.617480921370573 4.494649859311264 0.6275476605178096 -0.7665299274526992 0.37628763252241004
Ni 2.4202971004910454 4.119818691693626 6.087231226619441 -1.2207268708580783 -0.1345291162595425 -0.14952970343343283
Ni 2.4572589931797655 7.94704875223432 8.048012199017057 0.23621496073681902 -0.6297816920546508 0.15194242663998347
Ni 6.347567955636639 0.8865682928650902 13.435325250106073 1.1192868238430207 -0.9228645696231074 0.01700707608095781
Ni 9.351805294848347 6.320437145125064 13.232548251610618 -0.1900816567138662 -2.0339482888300453 0.8531107979677373
Ni 4.062701685402376 6.967437683903483 13.039939959022707 1.244914009627243 -0.34739511785777594 0.8705703882050814
Ni 7.23971308565728 3.0976651731468334 1.727375083913932 2.751095809194875 -0.396408314531685 -0.876228357821807
Ni 5.379099400501847 3.48863903350492 4.629553326881723 4.348276662949898 0.3556447594610778 1.585608832646708
Ni 5.854637309255969 1.7043952781096994 2.9222301162560673 0.40816494084698096 -2.7317839962401402 1.618848054315812
P 4.350370125002129 0.3673457797877732 4.359487825908711 0.20702831187053375 2.155486649256875 -0.9908792471001838
P 2.940525974109107 1.570824633695329 8.54802550299271 -1.136742814535939 0.23408428754706137 -0.10441172804887179
P 5.123835398276905 9.335249640850883 11.180900921182875 -0.274196839297231 -1.185875567506848 -0.6748580155679991
P 5.630336100377969 3.232463540217196 13.852708168868878 -0.4603174544808201 -0.34380791472714983 -1.8884030239656573
P 8.020758616239883 5.729716529008812 1.6583714900896709 0.7907746589326768 0.27797661805463736 -0.5968381472490947
P 6.905158661899539 2.3027333552506275 9.196256554705881 -1.0496731773099406 0.5230148335100411 -0.06852272746174651
P 0.09097052843730066 3.668398092386372 10.744636186026671 1.85335760232575 1.9294547997006446 -1.0559137589030139
P 5.530323208560705 8.015075748491315 1.0482333240574042 -0.3114814346803023 1.4162242992708771 -0.4447316842274212
Ni 8.75103967518307 8.442927793175212 12.772610791423883 -0.681830076010458 0.8560122878852484 1.191680347114083
Ni 5.7395290093275335 5.060979718661814 12.29041620763269 -0.6983710110882746 0.3880913100255574 0.7227196151359682
Ni 7.560799763915959 9.267790001275824 2.0152193110757937 -0.5022644883365672 0.39056291149450156 -1.1563222793297634
Ni 9.425375644915727 7.097594887297027 7.818594548979503 -0.48962931607106 0.5915447600606393 2.0327933492899954
Ni 1.8018969190397074 5.525207697494073 8.784780656085655 0.6050785328810159 -0.21669180310222683 -2.2226513200288305
Ni 1.7822254537562041 5.3158158781430025 11.114905247865794 -0.25439445985932313 0.6687141074537902 0.26790175031713864
Ni 1.3201831932887795 3.6191496722085232 12.42518295154373 0.48667254743558114 -0.9551748517200388 1.9134828497524206
Ni 3.7671088541139484 7.390202120308384 10.720364481154885 -0.32677178518046945 -0.3936551772665801 0.14055192541485473
Ni 3.7369831443960906 2.6041392672965915 3.8044102307189083 -4.807193123318134 -2.106280876956185 -2.8924252362057024
Ni 5.218267732566933 3.738564302362141 2.2723797727670747 -0.6901128848445405 0.3266635417373794 -0.5690321807804201
Ni 2.6508392328703367 2.966949914000565 10.425741736783275 0.34118384684074143 0.19247921041176527 0.36617034158274997
Ni 4.8162257664464985 1.5487349268166901 9.56904430817563 0.9392849199626597 0.9106019502056705 0.26797656941913206
Ni 2.3543535123775516 2.4952532890110244 0.6958443685355422 -0.3102195372487432 0.12372174123139337 0.8316217748560258
Ni 7.4842438155715065 4.385657850432679 5.65736460066821 -0.12063744587911482 -0.6875070717905772 1.5272676737036535
Ni 8.752695240582817 6.586053081563029 10.43623690530616 1.4018464332826504 1.517217231446187 -0.5142080338516887
Ni 2.45511047853178 7.534292115661592 1.1317631091250582 0.4924701279539648 -0.7274902970517342 -0.13032510548052392
Ni 2.0241333216326303 0.9128117947298341 4.804301045103719 0.664200792964469 -0.03743757602116778 -0.38686592225888855
Ni 5.604832952478504 4.0856284759101 9.844050462746088 0.47130532095089156 -0.30452351530523036 -0.15167683168342266
Ni 4.4475741361973515 1.797339463725799 12.106438247260648 -0.07440823970824606 2.697930280915489 -0.08106328313091846
Ni 4.677251282159921 8.579353822857685 8.777239462680518 1.0597922680218135 0.3157147560353595 -0.1793473010154976
Ni 5.558644538011422 7.417770074492925 6.772242802901698 0.6004634027065078 -0.08696987842334054 0.2398751831972256
Ni 6.622577830578781 5.331627457803501 7.816376277362426 -0.4197441610441481 0.16433360121548474 0.21968431007164746
Ni 8.466347532931175 8.533091000956906 4.1441601535345045 2.1767596997030383 -2.862194462345619 0.548185676348714
Ni 9.203129941393593 1.7606752007718647 0.7785407903457957 -0.47498199847153044 -0.807312765797016 -0.34929542020428234
P 1.601629311245666 5.342769970999547 0.7190167035744645 -0.30685679142409733 0.12665871237253024 -1.3197760490434562
P 3.0041908345656467 6.084891112829687 6.649427753028152 -0.1060610907268367 1.5204537361056139 1.7780607893649638
P 0.4522521023788118 0.7799145375904167 6.2776203174973535 -0.6355610177405894 -1.5428596146046398 -0.039014433589984424
P 1.690955435398275 7.21337285412873 10.063163613309603 -1.4668179530580285 2.494095536281588 -0.45256249312574964
P 4.064050320138124 4.897404276609343 3.7048326223887686 -0.4728649521285276 0.8809949259725149 0.6861415589016184
P 7.376390240428478 6.690846650995289 4.818350098678533 0.12546957716043552 0.03728716648623256 0.6908461634661393
P 0.17659116239182537 3.706894638395082 6.666580526681029 -0.5639563089194094 0.9859234457568052 0.10795136577101408
P 1.4772200821051733 2.7268743291789144 3.112319717213353 2.5861726540245074 -2.6984136483098107 -0.23343816932263023
Ni 3.605877246222916 8.304297443269483 5.693043895218588 0.3496378911453656 -0.5917499340929099 1.033826182975355
Ni 0.3005567372089032 4.0209777169570815 2.029512979088885 -0.5635999540212552 0.8286032997446762 -2.063231611175195
Ni 3.620051862342093 9.238957120718442 12.959460878736607 0.2335613251640558 -1.652353128051793 1.1290883833144747
Ni 6.084435367298295 7.301675876068012 10.942730166663855 0.19066504002116197 0.33657205910034294 -1.4404482048152483
Ni 1.7234714839236311 7.5724166245018205 12.263721610701163 0.5774363456837153 1.3024115896230797 -0.19775948497409812
Ni 8.690053482339604 4.720277380694903 8.673726631200756 0.6716703618686367 -0.24925251064706752 0.16757087720585978
Ni 1.3093197079690955 3.1656363638285567 8.39489500444538 -0.22074309035346498 -0.8643285210604276 0.4422935070995737
Ni 6.2964500486871655 8.642962877738952 3.9014840289051618 -1.1420241175395365 0.6115091189977081 0.751605444932383
Ni 0.3321696655077684 6.033596488225184 3.374639404338563 -1.0042883214172382 0.8086088589006203 -0.03177523552906786
Ni 9.456347739191882 7.817198479504772 1.6105768051476665 -0.9960875307740006 0.029077376981930567 0.06699292108078139
Ni 7.1012129487605185 1.2959542726913673 5.685624543986128 -0.5670701719580427 -0.9706040417909154 -2.453589605747742
Ni 4.381128297906407 5.982394872912803 8.46743760183483 -0.29446870217238963 1.3449363503591676 0.7909872891641151
Ni 8.504937088232005 3.7569429384851682 13.266008344450997 -0.9358298715345238 0.5670331480725201 0.7043408555184644
Ni 7.525949182158376 0.03800638703923419 8.965395400454616 -0.9439728123566323 -0.5722920824786144 -0.5977737716894866
Ni 1.3304886228557402 7.717027471890904 5.804233713669982 -0.9476888277556388 2.978167669979845 0.27912281584393867
Ni 4.447453224117595 1.4083094975730326 1.0767025382825939 -0.3163295068012229 0.2746583523146818 0.3021755838983441
Ni 0.9422678375444231 0.5319471143323341 8.574393637308894 0.30286386821462036 0.3091499583336482 -1.3305980793596246
Ni 2.063904094943392 0.3453751248030489 2.254124839002568 0.6536325305303194 2.305739089788945 0.5240211632873685
Ni 6.697645630249305 2.7735835956818713 11.865150751362666 0.21038283016506348 -0.6909132692586488 -0.14644900762558005
Ni 5.117836298935128 6.116895610248379 2.0265720252720323 1.0053288468666104 -0.7529627302912258 -1.217345098870039
Ni 7.699225493379025 4.756457995329811 11.197113370892415 -0.5084258799522727 -0.6978693888615078 -0.9375982762888563
Ni 0.31455835604473587 3.803875427289215 4.458180915870783 -0.6083332923728878 0.10586928643100478 0.8025495400804179
Ni 3.948839709988357 2.3731506903151214 6.011393310010158 -0.10133283201323193 -1.6879042856835251 1.979220558269862
Ni 2.783712307593803 0.20859007925299103 10.407595623890549 0.0778702301149175 -0.3220018745956519 -1.7490296922399362
P 8.329028614044345 1.1155813524819191 12.13514835555243 -1.0216815771930212 0.42649742060758156 2.1322873283222763
P 5.540637939056878 0.4253212618452968 7.044976740465649 -0.06203454863424155 -0.2280421951180395 0.09475415035444971
P 7.486327223715008 2.72653949572728 4.0455619330503945 0.31402039905207213 0.23381509304607473 -0.2213501278098446
P 7.498716061425469 6.600590433921476 12.26065881471163 -0.3005709584153856 -0.03727611074263903 0.8913747265449422
P 7.350077911687564 7.091828311185552 8.81422553778519 -0.00039106479083158457 0.18263419929688546 -0.5608740704496599
P 1.4570184638565824 0.33432283062035995 0.244553052144336 -0.102188752255624 -1.8423651078699885 0.3447072866129676
P 3.863131647299239 5.222685673942662 10.690129950565245 1.5466062261312654 -1.2578070635398273 0.11926010591561396
P 1.4051471816409327 8.07935447027585 3.397563404567523 -0.1869125149572652 -1.6702847728295493 1.6182016789810647
