# total energy = -381172.72145861736 ev
CRYSTAL
PRIMVEC
9.22300334546367 0.00000000000000 0.00000000000000

0.00000000000000 9.22300334546367 0.00000000000000

0.00000000000000 0.00000000000000 13.49879767154750

PRIMCOORD
 96 1
Ni 3.514379218347995 1.0554159143755097 4.71292968481921 0.23379401000015218 -0.0891638007508658 0.5275885689236527
Ni 4.218149693318831 5.267644439700589 9.08925295909763 0.32560321879366505 2.1320384455362635 -0.5586770627983411
Ni 5.954656718028669 0.26029620514591795 5.937311016088093 -1.03346057210582 0.26701446261617884 0.6188784148785859
Ni 4.69687889251465 0.9339305174694231 9.535145500336817 -0.936384458486413 0.3551320814907174 -0.6643044084218688
Ni 3.8916277143736298 3.7964739913338414 3.9095083504943275 -1.543731989907264 0.3810179481185438 -0.6845906694747306
Ni 7.267053167933659 8.852266049700326 2.392527245702396 -0.6694306739048407 -0.05385844058135241 1.6696885340064471
Ni 6.642692749701465 6.177502919064569 11.42701585695999 0.22875207670087055 -0.16751379871567926 0.1767592285733472
Ni 4.083078812838293 5.384047961895527 1.991923338912619 0.8123217889758332 -1.345374980558483 1.0222891288700329
Ni 5.308022747296614 3.1080044785150855 5.428244592777243 0.9495513348856742 -1.9087561337007124 1.0968660329456594
Ni 0.1109674841645363 2.366668711895412 6.979134990786978 1.0735307006538284 -0.8888360192834885 0.9260298547249665
Ni 1.9487283261681636 8.223487812980583 4.426525924782458 -0.7549627914403901 0.24721388295048388 -2.509116178060137
Ni 6.990132499690016 9.151404932425198 11.814754596717856 -1.4638349591703048 -1.4141342495110678 -0.15256823314944049
Ni 4.23396714364482 0.356252329455888 11.889214667689762 -0.4247305585151459 0.13047371524324627 0.2175981169665801
Ni 2.4580871186774598 9.044713232500387 10.28871558057598 0.42753460362284434 -0.10827815298281353 -1.0740703752073826
Ni 0.8173545251164119 4.826480532153607 12.614234941815745 -1.0168792707083711 -0.532825648952876 -0.39583598696798283
Ni 2.8421329679918728 7.123663138651929 6.150362387825916 0.21502572825371355 -1.5889512667563797 1.7894422917290278
Ni 2.5387607268415606 7.630900640446953 12.062120151509818 0.2721535836149571 0.7342085896121742 2.310663780784072
Ni 4.622984191633117 2.8446047328241555 1.403348172729896 0.7618415208380945 0.097246063538368 1.5863835060292033
Ni 6.714069570735189 2.31641256797336 13.338148455569067 -2.2655823150644014 -0.6760561496411582 -1.5513033744966185
Ni 4.742809447980208 7.575424276767169 1.9854570914353293 -0.17139179361384674 1.4429622294863536 -0.2490427086291066
Ni 8.524711094407305 1.5210484491614717 11.620804064411594 1.0874807350760174 1.9257747797458964 0.6236768647084936
Ni 0.1261872838892876 0.6935919687435691 9.572820545722612 1.5203012696881495 -0.7219344002305116 0.2410928576544106
Ni 4.682942934822189 8.021393368932134 4.5468270880897945 -1.9526361229131148 1.0320279534243515 -0.31701650556591854
Ni 2.109522162310034 6.996514817839045 2.2282461920863237 0.6147728773506443 0.03349478932333586 0.3579158148834416
P 2.8102306002498327 5.911207150398502 4.295735440043199 -1.1017652700194895 -0.29384726653830684 -0.8639721661622735
Ni 2.507282617242375 2.272372728144438 2.852147304763861 -0.4433692566622558 -0.6390237794782091 -0.10345964854824763
P 1.9082854575503994 1.7694146997903821 10.78651057179156 -0.3142186311058072 1.8503021033288778 -0.5637704181608484
Ni 5.700719773524018 3.372760005662529 8.536382804837357 -1.359261508732588 0.6036783100993797 1.55216597960723
P 6.358578139035507 4.36975741836759 6.79806161541666 0.2354217754115623 1.3755479045974375 0.014978218576387106
P 1.1357667174309172 3.671437738232124 8.298048414686336 0.25440808670607795 -0.16589168973122398 -0.13941241249377279
P 4.008778299820116 8.802212811846596 6.84656262184773 0.5822049707169522 0.8855362654862943 -0.041682981561083056
Ni 3.062571965217228 6.006757462571827 0.04019384753391479 -1.4997229313161655 -0.013946177767446947 1.4393223187409212
Ni 1.7149528664522071 2.060566461825862 0.5259740326039146 -1.0469136122869325 0.016459431107603912 -0.06786092550803151
Ni 3.6262358000119046 7.5530308252269345 8.703916811648751 1.8110313307537134 0.8365413236448304 -0.8352994808179292
Ni 2.9189421378547555 4.646908661688871 11.647990710665775 0.8985555605640977 -0.8546385474661734 -0.1346036782512198
Ni 8.967857947621976 5.801434967436442 10.049341757974966 -0.2830946560074931 0.47900423225704597 0.6857396954775092
Ni 3.8413992394608947 4.553608762273294 6.739679083458324 -0.6193291292627592 -0.194628138433968 0.003582575144935766
Ni 0.8390746974299431 4.812009640281024 1.465605288292868 -0.7397117788185906 0.27224588621844725 0.6685472428586229
Ni 0.9553647766866828 3.884885699103485 10.464105741432668 0.5725435363677882 -1.0092230397146942 0.1544281691763147
Ni 1.7394399396973983 0.311439601966722 6.258677336297301 0.7522096541752852 -0.12304502687934293 2.4852128890799783
Ni 1.7199886261478283 5.7472129321790115 8.239287739600671 0.005232966264165181 -0.9512742311140521 -1.3015165886126359
Ni 1.0140784144565087 4.632354762788338 6.08181518414497 -0.318151133390994 1.6437126787679754 0.8687677877787037
Ni 1.4890722973945874 8.053701548810817 8.395590895530457 -1.762055929296275 1.0270754945150826 -1.0117308937382123
Ni 1.053672766788564 3.8782820288799233 3.9450501152618114 0.25720827515903444 1.6363330984744526 -0.43792340305633615
Ni 5.525307477459877 7.949186477618912 10.3558184619706 -1.755379545717364 0.2870544119861895 -0.2327311159532766
Ni 0.173549249436823 7.958012891590909 11.62631204186622 -1.3645083589538243 -1.043985382896544 -0.5766197633196908
Ni 7.378227247367759 5.559285020900662 5.147847774663124 0.34515054479797336 -0.008430647265856447 0.4801589146867795
Ni 8.198262899486949 3.155207808409206 9.445662079606311 -0.12224284269302174 0.0974167847882774 0.024590287744854424
Ni 4.928228702413851 5.74744350725665 4.670881091360772 0.565503341691555 -0.08378531004777183 0.33749122848050267
Ni 6.920572610268083 2.0977259413380565 2.236925960308941 -0.4936937159484207 -1.084114903927578 -0.6021942693546855
Ni 6.325310766833848 3.9483952984881885 3.513912534390855 -0.49343146342596955 -0.6714790717934371 0.47602329525185116
Ni 9.114429912975114 2.360424738792966 2.783681263510244 -1.0273205206463532 0.983197819295526 -2.5446148851873787
Ni 0.17071778748342423 6.41888735634259 3.879648877940163 0.045514696602347415 -0.7902298421728003 0.43774933937231714
Ni 0.6321658457604057 0.2230426510020472 2.4220085751292335 0.8247404743551604 -0.5995295780383288 -0.3476522281739045
Ni 8.125502627987396 0.2512189254894519 0.2774205550119619 2.6336449885738578 0.7768832456625652 0.3747670821128255
Ni 4.159685076632854 1.9576838621836365 7.320114027100103 -0.10100604480143249 -0.9269829626668552 -0.6466216464301251
P 0.847706506036412 6.737495998623244 -0.03904742824789698 0.36766081008534746 1.2840981360258723 0.26509873365070474
Ni 0.193492149051918 6.924870529715261 6.266505821333277 1.0391722777786168 0.62950812667829 -1.4497358007647614
P 4.29661900374071 6.233265195840624 11.110684374146093 0.3199599044649586 -0.3927460351887494 -0.2168165016055492
Ni 8.499357058870194 4.88203990286134 7.86974506266971 0.7399655467006094 -0.6107652988531481 -2.1181318627575005
P 6.6309795357574375 8.04770659679222 0.5330314745802688 0.09924303936373877 -3.267174320596399 -0.09243321553075694
P 8.793755317998821 8.893695779650383 5.168365267371694 0.11801183533080965 -0.778332319404266 -0.514012887121747
P 8.653713238844402 2.47390456900345 0.41521314370894224 1.6674956401201861 0.2970565175042239 0.2664647607602959
Ni 1.4277577727490007 0.4618298906055505 12.348645655187562 -0.08048761313310655 0.9304441817425783 0.508912075560072
Ni 0.8265913627266037 1.4218181587490373 4.520059166176605 -0.4109281054144148 -0.4125129334030315 0.8184788097161647
Ni 8.032073606528341 3.44184952192608 5.645480441024045 -1.0667309041231758 -0.5662893279279602 -1.355532123597143
Ni 5.246256295498855 4.005024537556164 10.784431706891572 1.092950499941337 -0.4392495780669274 0.9322868913782717
Ni 8.693824079350367 0.09464553556867375 7.270451844578047 -0.6671791588665025 0.3925894550062271 -0.023526622367030448
Ni 2.2081345115143973 6.571020792568365 10.264823391031097 -0.7729836534978429 -1.3744127625517297 -0.7597859238606464
Ni 5.4379010770287355 0.4815108569324484 0.5692243833670032 -1.4159628180793744 0.9363672320952325 -0.3489393224164442
Ni 4.8614449369266834 7.484872832277042 12.765447922331587 0.825805682394881 -0.011343707147593366 1.0958967270538544
Ni 6.002939139286137 8.564628251848054 8.159550266251783 0.5299282728004229 0.09516064176424903 -0.56684057244574
Ni 7.371494455100719 1.2125851102969054 4.448528320991019 0.6138989593861235 0.44841581794722774 -0.3925130932423369
Ni 6.826525647600958 4.228202766703862 1.2071868865792366 -0.10619658786343646 0.29721978255496556 -0.3697871123997309
Ni 4.175982123120332 2.6033863096020338 12.725005976014133 -0.5207183241663805 -0.044201119997246456 -1.2076504972900943
Ni 7.511130722118495 4.243946433005008 12.348929723683213 0.7923399465372677 -1.2885554004662776 -1.3159900996384626
Ni 6.822190836141358 7.635558257015247 4.630883693793005 1.9512140457546074 1.4281963840310887 -0.060353561387392826
Ni 5.013984185289101 4.863049739467047 13.080982537677166 0.9310355354696739 -0.11147737664640156 0.03718997878673595
Ni 8.992594041951017 7.296603669883788 1.8178151754876004 -0.535546904538781 -0.10103329849494214 -1.1584444678790888
Ni 8.397940916721748 7.217811554353214 8.133807942283928 -0.7945230702315155 -0.0033203226224846043 1.035809789064287
Ni 7.885769108265264 6.019171624751876 13.599228615978955 -0.04009018315266644 1.9818819071521092 0.32644088420361195
Ni 2.256776629892981 2.8513744171036173 5.736246781486532 1.679865731649765 -1.1178593473678748 0.38181524720885857
Ni 6.707465900511626 5.563942637468956 8.993154800539834 -1.1794503807067946 0.4534767774099029 0.8740179804340495
Ni 2.7506315541818753 8.953866651910882 0.6906203171429661 0.3816059594115299 -0.7866431532628064 -2.911646803439476
Ni 7.1820447483099565 1.0585425124282857 9.618054764453701 -1.806348323455747 -0.7233415649906833 -0.09140451715592646
Ni 3.2500387263403003 3.4142266276250073 9.601951401031439 -1.270667207331947 -2.424515571199921 -0.32409732367209987
Ni 6.852257826265396 1.9497981945284055 7.458909156234654 1.2980463706758483 -1.3668370070870008 -1.8651939328390459
Ni 5.298218694995431 6.418084955072409 7.173435997211252 0.36253557304364015 0.15281505905292392 -0.7252323542554929
P 5.778460466700558 1.81571417538016 11.17338696075906 0.30166881946525465 0.7388059791748696 0.7081386319979998
Ni 6.569738795136695 6.180232927983807 2.705226709893334 0.34805357737738124 1.0203692861395006 -0.2739980930228636
P 2.695394988582835 3.768048695762587 1.259424131568357 1.1542821089712831 1.2359961383123228 -0.10223117545778523
Ni 5.02978318960888 0.7844210256271731 2.9084242251132046 0.23247709096094155 0.15487965489143649 0.632909181940039
P 2.951960488972565 9.353969749632029 2.5682946273861 0.40175286667305005 -0.2967158463353535 3.7705361557622035
P 7.589341788453419 7.695424770173265 9.971966295721403 0.4289679936352612 0.5056241488374195 1.349461749033347
P 8.20294818506456 4.6954769960426095 2.8427250847912475 1.680265538191345 0.5335486431618296 0.9690097007206022
Ni 2.0483920977265577 1.5592593510276969 8.445387733897855 0.08177727847880754 0.0010171284106047 -0.2883759590110905
