# total energy = -340888.48515846394 ev
CRYSTAL
PRIMVEC
9.11819412058219 0.00000000000000 0.00000000000000

0.00000000000000 9.11819412058219 0.00000000000000

0.00000000000000 0.00000000000000 13.34539877665807

PRIMCOORD
 96 1
Ni 6.524952463345356 2.097512936552434 11.363980896643872 -0.8530028116349633 -0.2740700839113796 0.41423223008698346
Ni 4.957607814290985 0.442349134867503 6.066672019453419 -1.7988345315772052 -1.2096204765322716 -0.46017810068947845
Ni 3.0415834164417963 1.9779187005379766 4.675680542090755 -0.2743459632805856 -1.994140669914804 0.7739807273037896
Ni 3.278519694486602 4.477899613870079 4.821785927938397 0.7849482820588869 -1.2508612283496134 0.885641680715907
Ni 4.928575483742797 4.922138038589839 2.0657880032370097 1.1814126466394879 0.017010932735699737 0.6208895317713435
Ni 7.38461581889911 6.112791846059177 2.715975434602404 0.9238798982614992 -0.11333936955580481 -0.0075274187252967134
Ni 5.036899631642443 4.977385177657511 11.607174079595136 -0.32764544603467444 -0.6445616785773027 0.9269958181826615
Ni 5.562499703812417 7.825061074803528 12.467111892796348 -0.47377975063331307 0.7704912260932925 0.07217652216424988
Ni 1.9292640159258123 6.221462485340993 0.6888385450465228 -0.3836790398904747 0.9750304529933853 -0.8093665630022513
Ni 2.914475788350798 1.4300428797721418 0.07504729791986822 -0.46900444073185676 0.9777743342871096 0.4849625067230099
Ni 0.9035793146050225 -0.16137836124594954 4.971374463996279 -0.5536613547513045 0.4154169944237039 0.0328548417464918
Ni 8.764362739090911 2.255804789038785 1.2007038811911392 0.6657180009399438 -0.2231406440513641 0.12130567559073302
Ni 6.9058923834591095 0.748551775666489 4.778654133594146 -0.024183282114422867 -0.8972275857812936 -0.03213544708196401
Ni 1.085995173665287 7.598811320440404 2.778071249384506 0.5994498738403289 -0.03790423124494117 -0.7542251419434172
Ni 7.552335884258207 3.5131034784103554 3.9325157955975927 1.0771829526944352 0.32851756422698264 0.089626085099265
Ni 7.543928909143437 3.7876067168378666 12.802054170107532 1.355624426200633 0.46804773324554233 -0.5389569586615943
Ni 7.82885424361887 8.83656060130214 7.1574715696783295 1.5148495025449589 -0.33379346791394127 -0.09011510892054157
Ni 6.9867251756418 0.7211534255310634 0.4475911847519732 0.46262759067123554 -1.00164497025712 -1.8062948445099922
Ni 1.6700063983138067 6.771225772320231 9.190936486055959 0.6747366594987863 -1.5535566893071695 0.03916304335270675
Ni 0.2581743761330093 4.5567264033138875 1.3817428929169893 -0.308393796893914 0.9100877295734133 0.5952623181215426
Ni 6.623957816703466 1.875275187667075 6.87306688409558 -0.23418121813624188 1.4963614710431004 0.03045471694543142
Ni 3.456990110887256 4.044438894774679 0.39388502051553265 -1.2058679514683748 0.8449082075522868 -0.7080396445262903
Ni 5.65083676987738 5.0917090973852694 4.545042349179324 0.49997774918491966 0.8724295529010072 -0.16358026798922795
Ni 5.029331530400297 3.067752633989943 9.584625465394737 1.1578289457822768 -0.18411464049715387 -1.1374575812147765
P -0.02547623478380558 5.5237564963691845 12.560169448033674 0.5258425327668235 -0.06374587489839345 1.3672941492290775
P 3.7809504350224845 6.366350592253904 12.828465019803769 0.8732029407319221 -1.2907171840042868 0.5050132547262979
P 2.331905238396567 8.789948392205929 1.2078944891906056 -0.25272735656954537 -0.9843471024086209 2.049211385636703
P 6.509971270163611 7.7543677146464605 5.847487042008868 -0.973018564769679 0.5242013976189747 -1.368390724727366
P 4.878936034149728 1.1114896448376281 12.552228412645979 0.5296413376876233 0.3357030262318283 0.5460907414928982
P 3.871649113402769 6.315078985886925 8.462638043496765 -0.06593336946801548 -0.6809512729499304 -1.6640027964755795
P 4.899926117353851 1.1002833840826898 3.6802335966003366 -0.0383909410733726 -1.2803633515737887 -0.9354166952565051
P 0.3711460676508747 5.721630430171391 3.5643823793327485 0.015640277640418226 -1.4540231152862053 -0.29077119871614443
Ni 1.4508232445081093 0.9640575617240444 2.8338554500945436 0.575436284534551 0.507246514932191 -1.0755721565638896
Ni 2.0115466009970584 6.532465855421896 4.870403227954063 -0.395634412480138 0.1922735221588624 -0.052304722940987335
Ni 6.00404826122322 5.8143715840676276 9.44166950384714 -1.314031433250195 1.1313111019974065 -1.944961379976676
Ni 8.699249713825644 2.2243287824268676 10.257860956410461 -0.46409286236285235 0.4402050000016613 -0.802040204544167
Ni 2.3356710526291047 5.3088497756750135 7.016424046190953 -0.31001693431963384 -0.6027573409470071 0.877919886591617
Ni 0.5278932980282864 8.954075889023573 9.135405771146562 0.15528383230839063 1.27383223532349 -0.1450870942810469
Ni 1.4975813447126027 1.156761479376495 11.367850658291061 0.12065724337345672 0.13270106191186823 -0.007325072906503513
Ni 4.115287264234295 7.107732731767742 1.7009909342546978 -0.010181054298059886 1.4660522785365977 -1.2158145211581255
Ni 5.53032159624189 7.985577766691185 7.924310795768012 0.29309007665730813 -0.2259511169169657 0.7869552851865866
Ni 5.362045321032466 2.7355585804310296 4.875741930697771 -0.13289646575212596 1.0791069091900254 0.7586806066116095
Ni 1.2298073336546147 7.416675389944157 7.004853057665308 -1.4633189387658347 0.8204703862248965 -0.5516265837094628
Ni 5.369750195188628 4.679703489401642 7.273589038218533 -1.7806982269878107 -0.15731448958517424 0.21846020785655929
Ni 8.081683534272184 7.223579389938197 9.217973755698385 0.5705133933116368 -0.7452113684805811 -0.8195964682603756
Ni 4.421540055101754 0.7038735355744458 10.47345610077184 0.6101214946215621 -2.006534929814099 0.08737019918555275
Ni 8.473027314045323 7.092405047203828 4.929910387383581 -0.4573300897177221 0.32234537397799967 0.25076380508527135
Ni 7.180587103966241 6.061848494685834 6.918188268429031 1.4052919686290894 0.049650316037275787 1.017848062379544
Ni 2.5743306693904957 5.128108928901716 2.597495441927453 -2.3584006818487193 -0.9404992519857349 -0.2580564820919427
Ni 2.0823949704566753 5.347793583392134 11.733755587876894 0.46549128537227574 -0.5853388883602435 0.01208469907867596
Ni 1.0207453754860056 3.2222604358552203 3.8502414169011874 -0.1089363553921027 0.6347760599454487 -0.7338267807927233
Ni 3.854078353049013 2.9636228554534148 2.705019012370399 0.46615540131883587 -0.7008973770545542 -0.2765285727542012
Ni 0.8791097284683652 3.463527856177159 8.39381573680342 0.009233088562493776 -0.17852609066578284 -0.9040556644467205
Ni 3.5506430842102583 3.2415271803427586 7.525230228158774 -0.293303735330011 -0.116818843463973 -1.2035966389356947
Ni 4.310216021288052 6.696201269886032 6.1504135156074895 -0.0006530602029666173 0.7626113091245834 -0.3576317079841196
Ni 0.6504509471797291 7.15691627164743 11.245833718059691 -0.6633656986576834 1.1991645713062702 0.8083440352750079
P 0.12452717911325441 5.530622496652723 8.034597179074055 -0.15247901586974386 0.7390959996114626 -0.45537348021198354
P 8.429579118359985 1.676762980266133 8.113601773306081 1.447283739679843 -0.3385739200217201 -0.6635438761067606
P 1.554214449308958 3.164195774758845 10.476071198887801 0.9799991098525702 1.17849367322048 0.17278635996852823
P 3.9280360267538974 6.193606401853333 3.7180011572569307 1.266484022488535 1.8221122711582234 0.6142743404476712
P 6.712905801784362 4.1831813387511945 10.434980968240076 1.5845140569206324 -1.352688997721393 1.8056024464286582
P 6.224526198614923 7.905820921432077 10.098383738669316 -0.5117091786892348 0.9823596396649469 0.9212226631443102
P 2.7656030305429264 8.762949418979426 5.9803272788359365 -0.0700936714932922 -0.07200862912781793 0.33606503755693734
P 7.063153879993217 4.1870292167321415 1.8457486509895804 -0.15674087646989135 -1.6983527347103589 -0.8521900859256808
Ni 5.514346519884973 3.0966208370413133 0.4744287659399385 0.5459411032889113 -1.0237639136433465 0.029897044669748508
Ni 1.6308072811571925 1.3132935203691902 7.078199812354261 0.28160984393185046 -0.36289449904495563 0.2176037733935349
Ni 6.606897675228698 0.9314782536057419 9.091272799071723 -0.08361844545260438 -0.694226649902598 1.2482857543129533
Ni 2.862684444910563 1.863549189838881 9.20879264589029 -1.4485734050255439 -0.8637448806428156 0.34877400048317353
Ni 6.781930532390449 1.8238303356090109 2.4743040782744092 -0.5944161680711634 0.4001906643922527 0.765001920843947
Ni 3.845999632927878 6.913314593592974 10.546855740987544 0.41586642325629664 0.9486563338752305 0.4843405568682949
Ni 8.763751820074978 7.346930321990925 0.6673515202548127 -1.193487575526151 -2.3169259596437004 0.35184826853312307
Ni 7.296178452697201 3.711469794703015 8.386088978981016 1.1365803208161458 0.1423216157207678 0.08411441125241642
Ni 2.713966696405241 8.246203113443338 12.539056269206936 0.5164978583271298 -0.4059905589034814 -0.45761162551388285
Ni -0.06252254627382837 4.913111026264868 10.361034236368313 -0.3218316675663748 -0.7732682746177972 -0.6547082800930015
Ni 8.924004084328873 2.1083544695366663 5.838345140436125 -0.3857168962561099 0.5842677667832518 -0.16990158222156546
Ni 3.59341653351979 2.8083126524925843 11.415694735432831 -0.3464165559945905 0.015054066119645042 1.6420162649021592
Ni 1.1966079883261123 3.2601009420659555 12.687510501897924 -0.7629604649338859 0.025060542513053615 0.3957172020019314
Ni 3.0939218515380897 8.536207282125849 8.225062580033798 0.6183328267877609 0.4797171991636706 0.06566263230513207
Ni 5.7518116531973025 7.595154924539078 3.6243700676001707 -0.4562024038711821 0.7828695451529872 0.6808047200697371
Ni 3.252377831521258 8.408935526538032 3.8469980752001853 0.9708755502847473 0.6739987528914972 -0.21981826454635042
Ni 3.247052806068953 4.5237732492306115 9.820638982179656 -0.6198646900512551 1.0974406745022067 -1.62217943268189
Ni 7.305907565980781 6.371064698690278 11.430547362075401 0.10337403081297682 -1.1411070050419057 0.8207701768535026
Ni 0.45304112946574576 9.173541706851568 -0.06177576616330809 0.8443237958037266 1.1905498330540658 0.07602803469985615
Ni 4.858356269687648 0.7616664744816457 1.4211918485965371 -0.9053450726821053 -0.8676709551700992 0.7344890969670705
Ni 6.363168342454495 5.723362887082244 0.34384984129124685 -0.09040564357776688 0.9138574810284907 0.05191057282636221
Ni 7.925279147999235 8.696970165258731 11.2769823814974 -0.14127054874843412 1.6127267719094225 0.028704824133860243
Ni -0.05409551113166906 4.7243279321475065 5.7088950482377685 0.6165129999702027 0.14072496065760925 0.4542393666075403
Ni 8.003212354404814 8.601821808075837 2.9725942467933524 -0.1184782334442669 -0.41611350627009625 -1.2795606531668349
P 8.678514940061014 1.341450504267684 3.7284241651242778 0.09432554745746335 1.5822396590641592 -0.017255187536021895
P 1.977572209155806 2.922098598758551 1.6567649565983298 -1.1696567916551404 0.3522056518725418 -0.4697839992103587
P 4.712611052513579 1.3725070739432896 8.06224901501012 -0.10485575756482587 -0.24198811577517035 0.17415521529159683
P 8.460954824834959 1.6273423673354865 12.317309079173178 0.08661480907676695 0.27991394428666627 0.9846682331934654
P 6.658616073114792 7.813180067672784 1.2521852060262741 -0.8016823069841161 -0.17517028681967253 0.6967435027871807
P 1.9094957707535538 3.2585782036232582 5.970704848425288 -1.325238100599292 0.1881643850864953 1.0834698141444115
P 6.9359824245423445 4.012260787204152 6.007311662951611 0.6334964219020767 -0.8097951658992376 -0.033831603837464315
P 2.2884114517398904 8.54697586955594 10.452863570837785 0.09408257820872183 0.20650920614227014 -1.632538407318711
