# total energy = -340874.2649708973 ev
CRYSTAL
PRIMVEC
9.21681885573946 0.00000000000000 0.00000000000000

0.00000000000000 9.21681885573946 0.00000000000000

0.00000000000000 0.00000000000000 13.48974604570108

PRIMCOORD
 96 1
Ni 7.253940402264227 1.2404916169217075 0.7267765630181476 -0.5196988817629308 -0.2265285866869905 0.9003424772611913
Ni 7.843402036562672 4.654143159699973 3.4614822229626414 -0.6635850137573411 -0.2751949415444422 -0.8052373713252261
Ni 6.681317895568991 0.2884025494905674 10.36684254533996 -1.1135738326186435 0.7479393089347054 -0.3458953933837978
Ni 9.168163026049319 6.840326450254579 3.647829705013659 -0.5420633655010599 0.4862370025600593 -0.4635752992964855
Ni 0.9280506828104886 9.210477440294714 2.702455089940996 -0.41148526346946557 -0.38425522410891894 2.6325090751972016
Ni 8.88097617493361 8.578904161760327 5.179900908801319 0.33313680816654884 1.1504095133897543 1.3081294659434632
Ni 3.9736930920688045 7.985165923626145 12.894281310030918 0.25057457189260074 0.251934685464921 0.3174505077795436
Ni 6.323050939321397 2.7350909229624545 9.543131779302813 -0.027533686643894516 -1.2559085609655338 -0.431440880655786
Ni 3.5481525767758764 6.044361994965488 4.170719180163106 -1.8941196147344603 -0.8729717985577224 -2.0437794159878546
Ni 0.4556288196501683 0.07239903187518913 0.4989533972153825 -0.6566016404609725 0.8425970429206069 -1.773191377087804
Ni 0.18564055206351568 7.143292494833177 1.0204548194819372 0.24941603280812524 -1.0507828654343516 -0.049132495860592804
Ni 2.597317918357761 6.672515833795009 6.567995267376883 0.597672470224932 0.28955558114148844 2.1800728232366717
Ni 0.7861384049673709 6.548125649814213 11.724409878992379 0.18448307958016616 -0.07572413030619216 0.15330562553609725
Ni 4.24603164840139 8.79007069296839 3.644457271083711 0.7132242740510233 -1.7901930538521236 1.007782964834058
Ni 4.5577075865678545 3.9658219289745844 3.1044761275011004 0.02051894588895821 0.9663519513827807 -0.4869803084839871
Ni 4.2189710689580275 4.949265691640184 12.653179473654564 1.0365705784897115 0.5111499637516551 0.11739014258641074
Ni 8.602388615582429 3.8939215269862775 5.525818249791364 -1.333158640997949 -1.1019817569056698 1.4846449539371205
Ni 1.3989379456719944 1.531973505510377 11.199578420161489 -0.3598302582973351 0.036557744519375754 -0.5621074286361287
Ni 2.2386177716354263 7.423198059245803 2.4910295661299497 1.3888158253509373 -1.2090710317867046 -0.25012719994253696
Ni 1.5778548285584213 2.797774506339262 6.244551295207256 -0.7050162843189343 2.1595063119392295 0.3361072036487825
Ni 2.6060738960386853 4.684457276113195 8.654049805581742 0.447056732816172 0.4957503413671333 0.18292396262316238
Ni 1.91051746270327 7.86766991996675 4.825673684151145 0.23965741075946467 0.6765343748291573 -0.8057695896796122
Ni 2.511767408005823 1.3776102274049844 4.383141963747916 0.06075851013529536 -1.4743677403808284 0.8296641369090227
Ni 5.011064460430289 2.6210973103754296 12.875044887906856 -0.47981078731874144 0.31904613440143764 -0.44897374733322676
P 5.75890790574874 6.186282567945357 3.69187319443057 0.07256655851381696 -0.18957977737678317 0.11838233129635096
P 3.83111812496752 6.505212142359071 8.566055916615896 0.5971423087530748 -0.20544194122002035 -1.299835601365787
P 5.623512840345813 0.6283418619291948 12.341552384626741 1.7227476186149557 -0.9468424205949435 1.1492100937650145
P 1.918563745351109 8.115178366959956 12.778067365840382 -1.6988594991434482 -0.3070254557914777 0.14680150586899232
P 6.451607125314591 2.5286894869765364 2.749871013287855 0.5062998347482055 -0.8147052016063452 1.2359485729038393
P 8.006668761446774 8.76965543974392 2.1126422948534525 -0.24268231362871753 0.1837685700116448 -0.09327987980176838
P 4.924417148663582 0.3730479682548558 5.502292320285512 -0.1815497079834551 0.4141625531913125 0.5993817396065548
P 3.1119021182563857 0.3104058605617999 2.11490871055002 -0.5127057382745492 -0.06377698524664499 -1.3206322263961643
Ni 2.8670112477488456 2.3915063587629786 2.3758276286229574 -0.7939653979558327 0.5572220755193693 -0.5885463395539478
Ni 8.652039617442576 0.09324286716509508 8.301076989944594 0.7270604086031672 -0.32069498285877024 -1.1995551218764695
Ni 5.746916824735179 7.653231418151605 11.488123830340534 1.1175844964399333 -0.44803452334840904 -0.2562546529965135
Ni 4.886425422346981 4.208528413471199 8.382582238607943 0.10498971203952885 -0.9231275934765069 -0.45644228779613
Ni 8.208996363606408 1.3812047866634694 3.9003438061947704 -0.4439991769367709 0.5522552184323973 -0.9173616375270072
Ni 6.19742570164666 0.6107552503365928 8.084404331298021 -2.2228966032704167 -0.43169799097191464 1.8113694308194224
Ni 0.8018337253808931 3.389273057550849 9.270463260863934 -0.424300927176895 1.0998479983921186 0.038976381263197385
Ni 3.789559489848269 3.0944823310806515 10.657721653991437 1.012248199694263 0.12674304455622043 -1.2811953605567805
Ni 7.383879111049146 3.435237331966397 12.886875596276576 -0.2593615740566114 0.3267530161273921 0.23698629168520477
Ni 0.2847351773650518 4.532822176316806 12.802349074472376 1.1233201133721298 -1.1623407176097014 0.12909611816942929
Ni 0.38342149760209837 1.9605832214009347 1.9181065911479784 -0.9575310106570413 1.3799339494802751 -1.4845986740802173
Ni 7.828839463156505 1.4126710054031284 11.866362710837388 2.0487853538428777 0.6958351320402983 -0.08359453419320441
Ni 7.111015196055706 7.613580664484935 9.221252822933417 0.6369003053773031 -0.6173974594576851 -0.789139437322099
Ni 1.9946393661704251 1.487013864323483 8.83307176020034 1.5391960497101234 -1.0603540540625545 -0.34720588466510527
Ni 7.768782673083973 4.896923378745479 8.486129508980696 0.6652901693739058 0.8421231886079819 -0.5491087023836156
Ni 5.456384268463494 8.58530985069532 1.3654182197456932 0.7398886707160871 0.42190877279563466 0.022061864896045873
Ni 7.871411948323019 8.334234494899464 12.682505547112633 -0.9655852484200853 -0.24177625687468038 1.1018747990141606
Ni 2.4565125804298846 8.529723217649366 10.626277555616447 -2.374392943511917 -1.7864785811150135 -0.655147167402633
Ni 1.0981931543787682 5.431922831868575 5.3371103404939415 0.3190551332625021 -0.25462174537878085 0.035110727660204046
Ni 3.7549319023248655 8.731626846152873 7.237248743758801 0.3094330367917058 0.4120480779514711 -0.09851567427941096
Ni 2.3955709757706503 3.2853810781620276 12.65540533534924 0.18975692638459576 0.1822948136795957 0.6925927138436008
Ni 5.760225910810184 5.774207824643828 9.908596149204126 1.6953548284242996 -1.0646786495798375 0.6968288634121353
Ni 3.9032489474211145 0.8555557960217399 11.155062107949808 0.6251665618801427 0.4736100578246682 0.10621767090935899
Ni 7.721537260881427 5.913455520226362 12.918239508329647 -0.9286989169166975 0.7026855793032285 -0.30804849773935333
P 6.54626385245469 4.220454976754478 6.8540456847577955 -0.3116171889272182 -0.24656107985783343 -1.4783130981818218
P 3.3365344214558497 3.3491430293163806 4.785433054093337 -0.2554943777917213 -0.4535312847969221 -0.15858718565001076
P 5.859979538642443 6.891728647650911 13.508361988522537 0.0572551249677272 -0.6131008889648603 0.6006559783332881
P 5.865316076618501 3.8885665553729964 11.248950152417708 0.0038965068409287733 0.8227149592846994 0.9109994427544053
P 9.054786940309265 1.6267684849296484 5.934301198879991 -0.3914373436796549 -0.11194326053922657 -0.5085750039356273
P 7.958114561001395 6.011107713415199 10.476959564018989 -0.08385884359818462 1.5266711777702353 1.2996535672619682
P 1.387011382388714 5.435028899740651 3.1363663198968883 1.2949294223134213 -0.1780812898188804 -0.4555647702871831
P 3.623103745724589 4.126895051029148 1.0795097413713977 0.39281416942252345 0.24068508069303063 -0.04535323132381867
Ni 2.574146836368451 1.0499431089475686 13.384013280225494 1.0340030748728515 -0.9440707713870774 0.7864675469168907
Ni 3.8306480672183336 6.297603303135047 10.75905688789743 -2.7101671893013135 0.3654422051674739 0.6075303368556182
Ni 4.50204721897301 8.294777294423634 9.522465828612109 1.004290121189451 0.6708887465076059 -0.2864365758965325
Ni 6.9866526625307435 0.9283364041874451 6.163964041677611 0.4998414807173714 0.17836154006346056 -3.002832776826693
Ni 2.2513461981379073 6.1350186228281975 0.3913627085177663 0.7412112461822525 -0.13028396782994334 -0.8883775915898313
Ni 4.7606527155744605 6.91729610247921 5.715538165772329 1.5658591608236065 2.6159722538844434 -0.5312166525945431
Ni 0.3247914710506282 7.106139499010223 7.097535598836388 -0.9325799971386585 0.984363557468853 -0.5570451836218728
Ni 6.952292362747074 8.120395086294065 3.999844893197073 -1.5049258156733438 1.0042016752407028 -1.066867686811356
Ni 8.07242154542121 2.622194111790198 7.757777791661843 -0.2939567955329776 -0.38874128490473053 -0.6925798583277943
Ni 0.4812451236171087 6.339254106440412 9.309610776234418 0.7853429463941443 0.5276075950870461 0.6710113881283992
Ni 4.525743659623174 6.359669359664884 1.7354292462680598 -0.01607325141277877 -0.8713412049328348 0.13965743862504335
Ni 8.995845385288726 8.577189833498588 10.740251812884386 0.6095154856064471 0.5769282956990451 -1.1324123054813853
Ni 7.39103136229167 6.2763585362355405 5.358788297868188 -0.19901906841281208 -0.8440636001638043 1.1957989972681469
Ni 1.485244235150075 4.032938802103523 1.4063731532458907 -1.5093000334816393 1.003720107618594 -0.17725879391758506
Ni 3.8569989516286105 4.794699643525339 6.218016996106611 0.6393564802272795 -1.4250506393132554 0.6713497453044244
Ni 1.018891647045427 3.274293245372394 3.6794221941682954 -0.2640242696396033 0.7084019129617154 1.4448977559461695
Ni 3.6262190304152764 2.0612861815501775 6.7449001187604205 2.102483871807598 -0.6607655420306748 0.4908076526498773
Ni 7.354339207399291 6.608136355793685 1.9876327406619634 -1.7555206992809185 -0.3114732071501861 -0.3421300128040946
Ni 4.824921591752446 1.7369002505184552 1.462207718712493 0.8839025865376132 -0.44993508280523153 0.7220351874744338
Ni 5.707072517877667 3.016849067915992 4.869528228786519 0.9858717665832634 -0.5520011934400623 1.5759525405038666
Ni 6.158567594380578 4.0880553774002895 1.3747401100893637 -0.7994786144645779 0.7265664996858842 -0.8501049212618779
Ni 1.6074315994827229 0.4352504337001431 6.524881754957872 -0.47025759641266746 -0.6595077583641739 -0.19524597452362505
Ni 5.823748224680639 6.305511333503714 7.553812360834945 0.6894929918723545 0.1736970447082557 0.015111144609825588
Ni 8.130146480385031 3.933129873359596 10.596694332919117 -0.3740780264656009 -1.1377100635452146 1.633773822387709
P 4.321812331025138 1.5939566106727108 9.006024439763268 0.10168430181537971 -0.07777664195984671 -0.6221390879077285
P 7.31456863509067 8.054983324608255 6.898156456950571 0.18332685448853586 -0.9213334776905616 -0.1713254591522856
P 8.239540900484918 4.513411556320988 1.2652138894833327 1.383938699764294 0.7286758327194032 -0.5944146254092666
P 1.596085695771967 8.53245139595837 8.400792828820546 -0.2187602555954813 -0.8311911150765103 0.5701081874534182
P 0.49331270422514484 2.0721528106931353 13.072332733649723 -0.8330569646406556 1.032834251375731 0.5865532203833188
P 8.731451726599255 1.7002910469935795 9.658550312047176 -0.5120606484913827 -0.06525742644691343 2.064213001251858
P 0.7268558276582066 4.97696223156774 7.603185014773024 -0.3892693894940586 -0.7517178021405312 -1.2425902465900729
P 2.2880199193930633 4.537661006087843 10.93944200998867 -1.6957456361048149 1.9884988982479945 -0.3636956547900123
