# total energy = -381166.1435848079 ev
CRYSTAL
PRIMVEC
9.25892840880744 0.00000000000000 0.00000000000000
0.00000000000000 9.25892840880744 0.00000000000000
0.00000000000000 0.00000000000000 13.55137763312088
PRIMCOORD
 96 1
Ni 7.563359373877248 0.8748567023756183 5.364448131080893 -0.4569685926132453 0.2706564302441404 0.938551641341061
Ni 7.623227605021773 2.2783908102209938 3.4689491948321307 1.8280528050123743 -1.2895822990688954 0.8472103733229022
Ni 4.0469016914444875 0.547289703373674 8.078016909937936 -1.198594043514781 -1.3906374519407083 -0.3051889168033712
Ni 5.467656480252701 7.612552060556936 11.556289845686019 -0.42047049768721134 0.40024208645547843 -0.623667608737113
Ni 4.17202685007225 5.3963256957278904 12.101312037490361 0.8941049809919117 -0.8973283730252158 1.0926234556192214
Ni 2.0350476535645754 0.8086201802658592 6.412742154671501 0.9899662483676112 0.1583771265217337 0.2729827643844718
Ni 3.72470950038863 0.7784407030905455 4.289105999905611 1.311994348215508 -1.2618143849270074 1.152114411896003
Ni -0.017816955952893464 6.220379583772099 1.7164719999484106 -0.5332287979285656 -0.09429006623383761 0.12223641493511851
Ni 8.295157299174155 0.479471756290286 9.81649645684079 -0.14410673264564858 -1.2509594444903747 0.17131594607058884
Ni 0.5187147984930318 1.5091405194771939 4.55060684108067 -0.024411596075145054 0.8257190362183457 -0.5767758292815809
Ni 6.5623673637835696 1.7868157827039646 13.038823908464032 2.0325678635427513 -0.6494897120065395 -0.4022174650142944
Ni 5.55024612173262 3.8969440868022476 13.568588312129947 1.0475090797790862 0.8502203637938195 -0.27375255267096077
Ni 2.1235907860166465 7.820109458881528 7.854758220803743 -0.03664310514433044 1.1778447267825713 -0.15044655882074737
Ni 8.900015315873565 2.015076144969039 7.158732165446035 0.06299434144434957 -0.758831787477493 0.6670143511538642
Ni 4.433813792135394 7.247352147003968 7.664415022192095 -0.6224892721582956 -0.8516133874866042 -0.4948082891688381
Ni 4.840928874632264 5.517802836559342 5.704804487905283 0.5282920227485804 0.6658380714575759 -0.5737424417718957
Ni 2.8446761311350497 1.6443671690079371 9.565416539599099 -0.19545731920348272 0.413433645445088 1.7008503043212322
Ni 7.0349338112604345 7.006703338516905 3.2724682525728332 -0.7586587522347386 -1.4447532599485053 0.2841189835069494
Ni 8.492909492305113 3.4169797555201757 12.016954866575631 -0.27465783809404953 0.016593128471990782 -0.5908220229620018
Ni 2.9630422720183787 5.410417784778613 7.451346709673686 -0.2988956275954917 -0.2764869208829884 0.045818343885695285
Ni 7.377680823402101 7.774916629277999 5.501195096657713 -0.15347660389632278 0.40181405892828864 0.7123557554031409
Ni 6.626522478785181 6.2563690385291 7.303053860360828 -1.2961077588922387 1.1264992824310598 -1.9907776669798427
Ni 2.6321374293220945 4.975618506314819 4.9839117284979535 -0.09737718979959359 0.29255091632438646 0.5611959725654528
Ni 6.134697460200891 1.6223124015185684 7.908935914543161 1.549078598931158 0.11316993385747608 -1.38433876341619
P 0.6518850400223523 1.7790753185473265 11.312567998857343 -0.9677794278579269 -0.49849139444738017 0.6346300212858876
Ni 8.951837538223689 8.118533980690867 3.5527239791494307 0.3606409271240886 -0.19546708939549565 0.774979086661317
P 0.4343381838286249 2.6115270546657827 2.3242373201707665 0.41934204050972296 -0.7048075107422377 1.1763540011696578
Ni 4.5572260490060055 1.7353639174905213 0.38048640436948705 -3.250923663065491 0.8410600374507903 -0.2024437778236449
P 3.34906551558125 7.438873081310262 12.2601748794841 -1.0567755926826767 0.8700829070457015 -0.9664650799218774
P 4.4924320679436205 3.968182282042887 4.17779516247606 -0.18304609002332345 -0.7528789123281678 4.820315519632705
P 5.495127720866032 3.9113787562043996 11.150588601558429 1.7887182690788097 0.6648271136945583 -0.08513102544238887
Ni 4.494330148269111 3.352352435169297 9.385670184560745 0.24080952208603687 0.33099662189509443 -0.6842122030893893
Ni 3.8779725424757503 6.059607550738766 3.027337196839086 1.1399744340993594 -1.316092943764914 1.1689613082500128
Ni 8.850924477406464 4.533995397607674 7.242764347973328 -0.657884620938454 0.5071884080007459 0.7359415131428809
Ni 6.661974915693993 5.590985406767558 12.013567024667838 0.5882527195729288 -0.46652358329153204 -0.4506472783809078
Ni 7.355931600550494 5.54940355924667 5.160785038048504 0.45284865690760073 -0.7434241946731712 0.5656187842234968
Ni 5.2308223502734545 8.991558341132754 0.9214180015991856 1.4150675599586147 0.8737816960535274 1.1554992692078356
Ni 2.01154849324215 5.575124862389183 13.480883112699617 0.40963098386954616 1.1593554097291325 0.4941385167953231
Ni 1.641154320847227 3.7794112494764516 11.964348412988583 -0.4198444340674382 -0.19871207869535454 -1.647232776106092
Ni 4.547837495591136 3.965849032081795 2.286903469007613 -0.022569657770399838 -0.5419078137598021 -4.964717672031585
Ni 2.190736534896958 7.1852802908961895 2.0528164630897003 -1.9035573631085925 -0.37420118230702654 -0.040849944136826424
Ni 5.189638636674499 2.084462554526272 5.656290480678564 0.30121399131602317 0.7973237729051043 -0.921506255823
Ni 6.227620065794217 9.086054964556975 3.7491651080165354 -1.1355840183411476 0.44233875851521237 0.922071898518483
Ni 9.175375846996078 1.5703420363137712 13.50759326939707 -1.0323740239098607 -1.056703858904477 0.5031746588556624
Ni 7.311859101285425 2.357165773193097 10.13227035871796 -0.584931882729812 2.8783664441197914 0.9217649088010254
Ni 1.546685474208256 3.494680682795903 6.581267614361256 -1.6799567487016744 0.7402856490441896 0.13195827020857273
Ni 7.2158162368155585 5.521848988277585 9.130254311141359 0.37493728914210267 -1.056189895382536 2.7009688106314966
Ni 2.19746777585614 4.353668507757571 2.6167981626135988 -1.1628060872818944 -0.6165546518414157 -0.9241411223426859
Ni 2.9450151383904184 8.756483407552745 0.6060579738222556 -0.5739075065948503 0.2439290415516251 -0.1598979340416343
Ni 7.640162185096523 7.62145914969412 10.533160663640059 -0.3069799472655229 -1.423952006932438 -0.13963969801323048
Ni 5.364845339109984 1.1726618018738568 9.962715306188231 -1.9532138497934555 -0.5006688617146733 1.5501661755683818
Ni 0.9522437519780081 0.3258976142083535 2.3167977711876815 -1.2476419500813674 1.397027414627452 -2.9574443213895645
Ni 0.8143134953494918 3.584445993799022 0.47223868141090114 0.8197283658525495 0.5557483191873203 1.4182205037652995
Ni 2.7293469187725066 2.6188508670436543 4.889458622037292 0.1741045645593195 0.6024570360977689 -1.057779351356843
Ni 0.7742464085176304 2.682570812409664 9.472168945618334 -2.3392891578302484 -1.2241600649093434 -1.1292598758953325
Ni 4.094140744228182 8.21196582734713 2.886158908121875 0.2227369808550422 2.1963049688248177 -0.6804195688161766
P 1.2613623361090174 6.072968184444544 3.759775839982453 -0.1099902505779138 1.4134997012508626 -1.9011071017958872
Ni 5.330791000392142 9.076027545081331 6.392808607682474 0.7295348382855887 -0.9359057190777816 -1.400420756579717
P 7.906541555654515 9.06492608990931 7.565842618478696 -1.1779478280193392 1.6659223820957954 0.06298739946581411
Ni 0.06841514796628649 4.754135679651011 10.037844103149709 -0.6651852683649253 1.2691646546444917 -0.13692769839870614
P 7.293470869449201 3.451015576381183 8.316534313103398 0.21379905493546406 0.5426529194559429 -0.9864834320253333
P 0.5077985218893518 7.743649228013683 0.22793537387763654 1.556354820877597 -1.1895597012266546 2.357399494277714
P 4.867520517045978 7.389300778565476 4.725216342633256 1.050845600351487 1.5334254657749333 -0.012187028984495139
Ni 2.0048728058534704 0.8868812727108168 12.63141531793634 -0.8190812191868538 0.7302634889214972 -0.3176862779394335
Ni 2.9105997014643132 7.486260276948627 5.742423514063682 0.2577767460679948 -0.24516779905473263 -0.6422075765228294
Ni 2.23598491807099 4.204340510247689 9.403260296767419 2.2730169169655756 0.8737742398543596 -1.2305292016604807
Ni 3.3839253810713736 2.570547037492002 7.203045396849947 1.4360621599324106 0.4176078314274356 1.325306234833066
Ni 2.3541288446723105 5.8428004829255595 10.947914362080981 -1.4493005129995555 1.895264269861865 -0.31920811390059867
Ni 6.596412443572994 4.325373222515123 3.2701775936824595 0.5338111527945968 1.4336085561855956 0.4860400560579049
Ni 9.083990223519978 6.13089204062149 11.944251908859416 0.24809268601101142 -0.44758355185391946 1.1234216719470007
Ni 5.088290406221674 1.701374391271599 2.5952517102943253 2.3359413244039384 -0.8727895073435872 1.090684586725296
Ni 4.024171022180676 0.3189219375389621 11.921065700317486 1.402862019031358 0.22810698691770392 -0.02500526379508597
Ni 8.957198457777151 8.587119088948407 12.208070259817259 -1.2541046749875757 2.951554438267691 -0.02216650879471021
Ni 0.5145686503478851 6.1135593266248085 5.69236419168416 0.09792457766263135 1.1461332546119036 0.6611643201309904
Ni 5.375965312138838 3.9712469873489242 7.170833584887095 0.7199582503407471 -0.4815272557892159 1.2096179054291103
Ni 3.7529214552753247 2.963884834504328 11.890087177619783 0.13125070261858685 -1.5248775762049223 -0.36340049214709674
Ni 0.22561416052348676 8.866923905711095 6.0278151682332055 0.014398949034149395 -0.7943932295218706 -0.23487335910726
Ni 6.960353142861246 7.921883600041537 13.425498980587461 1.244879813955198 0.5079258003874026 -1.1344069673139108
Ni 4.717970305254087 5.962175847006345 9.764566830921027 0.20846273032421517 -0.3218843751811812 -0.47805061009452504
Ni 3.40863746101643 8.201262506097041 10.04756042263054 -0.014365524693052679 -0.14746047960922992 -0.35616849317503174
Ni 0.15706383220231163 4.284180249987751 4.236418067748494 -0.6684703668741003 -1.6353892465039448 -0.544316680311611
Ni 1.866007397454834 8.830517799175327 4.09135102909613 0.7923558873768676 -1.2124036957043638 1.4368296342260545
Ni 5.737887565032177 8.332267084269619 9.029675497639989 1.8087834152598012 -0.05794649460779698 0.390103969580212
Ni 7.533221561879811 3.256837329619201 5.644135359452685 -0.4863807272267752 0.05871705422523436 0.013651015124531329
Ni 0.9282168327358118 7.90138433252623 10.55720054538204 1.1110137852009512 -0.02354333453757881 -1.5961012475375995
Ni 2.876823130598982 1.7648998991408513 2.396208822542035 -1.6745983126032387 0.4651704116977473 -0.8686883406910201
Ni 7.429540081465894 0.32017837412515326 1.8904176363334955 0.7610138827304765 0.41463512195235686 -0.9883724215179301
Ni 4.544670942072511 6.9471036162964745 0.3829520570069425 0.2478234915100248 -1.7590580230102153 1.4187506652371566
P 6.662752665681024 0.30140867443814723 11.397114977804623 0.2258631851888497 -1.0101290964687313 0.5620346664166643
Ni 8.863674021836717 7.188687576553657 7.568864732714015 0.06408500340536705 -1.1043517997997434 1.4124982565695414
P 1.169448953713147 6.440992071164706 9.002532948985461 -0.19918953255240532 -2.150353441795368 0.6713646577027599
Ni 7.994223607763804 4.568151584538103 0.3814863686385265 -1.5504505395780201 0.6603821905493271 1.0187273796607035
P 6.822876573725164 2.8269915778585197 1.6861304915257989 -0.9966022656268901 0.21979126796315698 -2.933123999476645
P 3.4205907376028177 3.71023779527281 0.41229545294619835 -1.9183052108417284 0.5514597191142955 -0.22631415668333926
P 6.5306647928836545 6.589662684756979 1.3523405667347677 -0.05655784179038646 -1.8740213013226885 -0.5066281646219016
Ni 0.9564750822645915 0.48244294641931135 8.84179980345148 1.6126622372200743 -1.1682226303117753 -1.8810344994157284
