# total energy = -340861.2644364678 ev
CRYSTAL
PRIMVEC
9.35070193964208 0.00000000000000 0.00000000000000

0.00000000000000 9.35070193964208 0.00000000000000

0.00000000000000 0.00000000000000 13.68569747210648

PRIMCOORD
 96 1
Ni 4.288456369065413 0.33481404219505934 3.2514345264577464 1.35304715239176 0.7657069173307716 0.6309713414873779
Ni 4.689208756784777 2.2337424550921696 8.811988452163819 -0.7121068726171284 -0.461568810389418 0.031168712293320515
Ni 3.574661178693829 6.246409218403817 3.0182850570434985 0.3675281411622251 -1.3536210226173593 -0.45976698129398885
Ni 2.3813245852749763 8.292632694931328 12.552576903358496 -1.5545306231846647 -0.08163946734936262 0.24792736407774077
Ni 0.9327091510111819 6.321242886771871 3.3283346999750374 -0.5310312760566146 -0.9188783312818497 -1.1177673018747007
Ni 6.995727725797797 9.52518613267551 12.390483418691073 0.9229764126106234 0.9892640800942639 1.9577515897628088
Ni 1.8100621459885162 4.313245080154219 7.39527200281453 3.154160966921445 0.4020135765336044 -0.29774891558555816
Ni 7.919520982420757 8.609686948755597 8.383653363588266 -1.2201041496724148 2.362397461712938 -2.1199092663728973
Ni 3.1023198162117733 5.470226144069762 10.301607649911402 -0.2816916050123794 -0.23809058049297702 2.022911828510226
Ni 1.9759903535595675 0.33039583548458756 5.065391239842901 -0.7284632024879648 0.977885148833361 -0.6053096750552156
Ni 4.133973420782441 8.74053132229979 5.440256208984612 1.2049534100739054 -0.26881269216718223 0.42194245424704757
Ni 1.9983478821198597 6.447327752981397 8.605868122045422 0.5333797216841331 -0.643898333961691 -0.6250269509784848
Ni 8.526596610492629 7.787863097799715 4.612340375654397 -1.1162416092587935 -0.37293182867629965 2.8606397162639894
Ni 3.7509219120110626 1.5777252525809138 11.396901197446725 0.3009021165025592 -0.6965586404698842 -0.8430184467287417
Ni 3.034798396833325 1.4728851813897823 6.876597911760225 0.2422143728533635 0.636678162064168 0.2901129963068552
Ni 8.450855924027397 7.362892391815542 9.98927269540306 0.09832232732168227 -2.96064637326663 2.330511668747935
Ni 0.7374618172164604 8.872516481491978 9.416074660795823 1.5027018114388313 0.8437638095351986 -0.32107730589885347
Ni 5.146084058104673 2.2188187346479094 2.0632417542271067 -0.2338320623269392 0.4733501192950622 -0.19680997657663524
Ni 3.2459372487326963 8.028110685127018 9.949228313947831 0.08674619244830867 0.25789630236499456 0.26928063294253624
Ni 5.816968876847993 7.683920694003727 3.826740209303165 -0.4687750983298701 0.5654454918704261 -0.1627755126997455
Ni 7.417257373433919 6.039132206443969 5.808867428606822 0.3191767464420309 -0.04924562439968938 -0.4358112418093398
Ni 1.958373630929877 7.4052978255340385 5.189807940809787 -0.21321772851069729 -1.0479366542348083 -0.03250260061339563
Ni 3.7135845587943144 2.760906983592206 4.200483094200946 0.5831259398693248 -0.6224769308631215 -0.46291092623960917
Ni 2.6930863417487103 8.370495990757991 7.319029183650141 -0.9393090883323759 1.2136126284108002 0.5568466944578215
P 1.522303641632837 7.057227293067157 10.695934235193862 -1.2522887048247593 0.2401271513070316 1.6299331084853799
P 2.438560232417405 3.8567718590217304 2.6957400709856034 3.484643111073966 1.0724796336814948 3.028635339712094
P 7.414938399329798 2.4844254258880167 8.266161792546832 -0.626092930349154 1.4552860411590292 0.25317061475455105
P 0.9889957018972874 0.7339066803036108 13.36894181446766 -0.667449896029386 -0.7258355350571306 0.8345397198337693
P 8.377490315878484 0.7103775087786159 10.569792329701938 -0.40178731945541124 -0.5819848842863461 0.051499453430872595
P 6.650911237638311 8.151053715453543 1.845967906724052 -1.766114672746681 -2.1763444665424907 -1.0360848971025447
P 6.184329907608425 6.964795603473478 11.842425681569072 -0.5268246941744347 -0.7724244385602632 -0.383901697424242
P 0.06277313288622037 8.897099477136063 6.678401366544375 0.8338084980946995 -0.20622304236041902 -0.016504682523242543
Ni 4.456946668993436 8.564036821431737 11.90800776534593 1.9166990426968733 0.2123744066737955 0.7322504374445389
Ni 2.4032519815417617 2.4796846199574154 13.24965771384655 -0.378121086186723 0.40992074719582305 0.19150090565889602
Ni 5.044591538241264 8.964162712114907 8.718569328435482 -0.9190014871232753 -0.22244258954307497 -0.5314444523346331
Ni 1.3266776044057895 2.5115892152931396 3.989203046700881 -0.5585482505299607 -0.8205400631205675 0.6065152653275425
Ni 1.8221806558229532 2.6455380219122047 9.370775184798191 1.3309387505284949 0.08919491109911735 -0.649984649365087
Ni 0.6005993318439923 0.5374923788952028 1.956438970679302 1.2036331486005853 1.0339058871733549 -0.5805437809644453
Ni 4.1612587693139895 3.8245586905189257 6.58750132194366 0.20660176585607645 -1.0977337802625933 -1.3790302067190832
Ni 9.038538196083357 4.169824012375983 4.080020805123708 0.7003538458462583 3.8973553049719976 0.4230120331621424
Ni 6.431244545485077 4.143314772113153 9.807034058276292 -1.2989940793010983 -0.2693479958453619 -1.8844558663924516
Ni 6.325282390050016 0.9277822661101288 7.369049829104105 -5.960470959394619 -0.7162574044503923 1.8594889120344684
Ni 5.2447059124440285 6.516803469084689 9.852251248096035 0.290216611764255 0.24908436050031937 0.6854288491053098
Ni 7.381014052355001 7.296352796150532 13.5615952635185 0.6614759378341383 0.8992433306597416 0.6583373922051565
Ni 6.8254794938876175 6.411645474024445 8.03433918775103 -0.6819671158089545 0.30993260213594365 0.18348703421548399
Ni 3.811776280840164 4.463323847779768 0.9648606048805706 -0.6376533814932438 -0.5934419770833521 1.3642530484099085
Ni 7.879369067892152 9.284003475144933 2.9456413230915133 1.4855448400435707 1.2566531524410423 0.8581085082926447
Ni 2.543736928881715 5.47536903018777 12.60261157486551 -5.944542975310452 0.4484453856335825 0.7954340120815592
Ni 1.145937884814871 4.034949486255677 1.316356299502046 -2.8793408922179182 -0.2960460739618385 -3.0647670524376442
Ni 6.48815291805636 0.5412176985850483 4.645076248400833 -1.0077009466432127 0.561372350242317 0.9012328502859447
Ni 4.911437541294983 6.045902114715676 5.338489713551644 0.08682692508757305 -0.4619922710800818 0.7106927658784211
Ni 0.11612636854465393 1.5442590900057211 7.828930446057325 1.742293401957367 0.02286533463394772 2.7111673484310534
Ni 7.968387751243879 1.16606994629137 6.359388140644248 3.7772094540173207 0.6363737434498717 -5.3149273765200205
Ni 8.71331142868247 2.9641351415718753 9.99838775974458 0.2443365614026889 -0.433236281993312 -0.178034495741345
Ni 0.7771546122752575 7.703996651268029 0.8517442273202571 -0.3077026843641604 -0.11125497622295034 -0.09006548662952876
Ni 9.487035268381915 6.767804363749649 7.403538023411476 -1.4237488897826964 0.6826453728229017 -0.5974737239505645
P 0.908788185071015 2.6789387295731677 6.253898195661842 1.63230006605566 -0.40505493446308954 -1.3948162659087462
P 0.6362516885544405 8.49968529004239 3.4745114196423224 1.6037101702331091 0.37612411036135224 -0.5398352475014897
P 0.4449176235604225 5.686292815940389 5.567560406739208 -0.1930703070285449 -0.35293507383939865 -0.6979228678072625
P 6.411813786661034 3.045486249256752 0.5386649569301091 0.9522846746564373 -1.92694540301523 1.364877826478101
P 9.083159746183613 5.707874236231962 1.1889268023402106 -0.6775818422570653 0.7653629037277916 -0.03908848136102946
P 6.238732292034933 8.085963478603608 6.207340115170603 -0.021849491774923662 -0.3829295633189599 -0.29290264323685045
P 4.136610318755674 3.603423938146551 10.693305752852458 0.10279296149852618 0.28225673348723 -1.478721389363834
P 2.8795393402816356 0.5317501127768945 8.9809238455086 0.2792500854504223 1.9173014521675624 -0.2139792892670702
Ni -0.1469088796364488 6.230400816523757 12.476895126316073 1.1043983367669625 1.4008275050998327 3.147936840388604
Ni 6.4054366078747025 3.8958110400084385 4.604607345073317 -0.4616153473566373 -0.835944827711412 1.573350326994329
Ni 7.431807065796869 6.096358502884366 3.322655083560348 1.3163855353046683 -1.0601442520445934 -1.4918772100195017
Ni 9.306220743174734 8.545400872280476 11.950255172200073 0.35994055862295427 0.8138536522393274 0.6063203757079171
Ni 6.819513745990727 0.7228756571155823 1.0849498009467016 -1.656254262878412 0.7734495373906679 -1.3559327014696714
Ni 1.2613255478989382 1.364716260274994 11.207819716572395 -0.986814847222823 -0.2408789418713916 0.7420699946381221
Ni 7.144600252861121 4.855567096649334 13.709784254263232 1.3280267190880226 0.9449166643271404 -0.14258438246385122
Ni 6.403865689933201 4.191003352480149 6.936855705799638 0.5643268048849507 -0.7614651113352822 1.6482375632215225
Ni 4.468476084599811 8.37945396330536 0.8001246118186944 0.4857654622402795 0.8508834512991152 0.4042748617639554
Ni 2.688149171075421 8.295811933622462 2.849978030875317 -1.5175607308285348 0.09637574511827272 -1.006881793176027
Ni 6.349014471809122 8.714994555048364 10.550153985292766 0.6266531737279982 -0.7510521435320743 -2.591166507694673
Ni 0.5399067301600575 5.068389074914599 10.786683733491852 1.8271973989906143 -0.6261291829037281 -2.880562680440162
Ni 8.645415981222712 2.0522266272325336 0.910533026070325 0.3736712779454855 1.0511099097564673 -0.9700525401628197
Ni 4.205964475732541 4.587360910244124 8.612039585387034 0.5226667061420031 0.6453528070200306 0.07344150491960257
Ni 9.042409386724913 4.172208441394333 7.501651199560251 -2.447468837561985 -1.2406310659811732 -1.069876391730693
Ni 5.286943033525936 3.1933208483944426 12.43891725001008 0.16552170798631494 -0.28430744536867164 0.34005950342831115
Ni 4.488823212223062 5.391511934358118 12.709592956822139 6.145134530416707 1.2880465791506592 -1.234080923567481
Ni 2.7498170509813713 1.7764931256909635 2.1175609174055223 0.044426862854807354 -0.27153369064277105 -1.232121228737949
Ni 7.68666044969932 5.079301344186812 11.35228619283789 -1.5247379653032644 0.8099008382391665 -0.10904665571772187
Ni 7.855281659455802 2.8061082772184927 12.275126612923716 -0.6027617118223813 -0.33943755357359606 0.9024119581957104
Ni 2.7349961882594713 4.717373071307403 5.030479458733446 -1.7999395917159258 1.582209577157172 -0.8715602629221765
Ni 7.398481163752168 3.517490986465629 2.6017739311883505 -0.3498772608496813 -0.3284034072466215 -2.352689747506871
Ni 5.595132821823162 6.26079994883221 1.1737917560300104 -0.49393771363842676 -0.3786360781499285 1.2629544120687217
Ni 6.3438154814789165 1.893807033393776 10.5693818338827 0.3684177428560301 -0.8277545785911357 -0.2167275414361687
P 8.483789096586724 5.435535039528278 8.978994795679245 -0.8449467740997062 0.38407524688762884 2.234648601600022
P 2.8232013605343504 7.017262392579208 0.5963606586125492 0.3681395494939789 -1.2536115374012409 0.7254118172561508
P 3.188364976317088 6.431749483394845 6.665715269096552 0.6626907840778458 -1.9115714916623208 0.36908185880259015
P 4.00933791338799 0.9426536226230057 13.607798952402696 0.026819691296005425 0.5437461525201216 -0.4438919619349452
P 5.030490679575886 1.975307752311177 5.636632172514686 0.5663060400985086 -0.5794806298072536 0.9532048724778615
P 5.478529567474839 5.1973165545420805 3.2882491754308654 -0.6304872027621077 0.7097399150468486 -1.1566246410615306
P 0.5325009741501239 3.4888965396494966 12.177041488881038 1.147685943811004 -0.7253961335268668 0.5794909142198987
P 8.414388186099693 2.3253045293968038 4.2454132174682835 -1.7617715652866366 -3.515152335406418 0.1440699658704422
