# total energy = -381172.22350648337 ev
CRYSTAL
PRIMVEC
9.20648634551154 0.00000000000000 0.00000000000000

0.00000000000000 9.20648634551154 0.00000000000000

0.00000000000000 0.00000000000000 13.47462337256151

PRIMCOORD
 96 1
Ni 3.370872146687452 0.9498239981362309 8.853824598749858 1.3951759632410101 0.44873669162175617 -0.2500351544493629
Ni 2.8980730362542197 7.510946234309507 9.272440774617172 -0.7317812111176043 0.44512017791509145 1.1572653599693232
Ni 1.3077813968852234 9.101329938542769 5.327488960318492 0.14741162864916546 -1.034639937125902 -0.027989029013758247
Ni 7.4443557179865865 3.1033960965381637 10.886162001292986 -0.4021537016558945 -1.26664240244327 1.3287409715462277
Ni 2.8243935253828893 5.03934526879034 9.306100609641122 -0.2755487253394351 1.2265306220240488 -0.13020272097004676
Ni 7.545295635166802 3.76446785439345 7.154337585821998 0.4637066826680272 0.40371564682637573 0.8825237039122157
Ni 0.11766902366581997 5.563719116184861 5.765885272273156 -0.417954673243893 -0.3259210071444 -0.4055285316653984
Ni 2.205901767250195 2.416960468577852 12.45576666566162 1.034905532082463 1.0572111375581985 0.016967738202590135
Ni 1.699692317575171 7.31095372966651 11.916579581606852 1.0859419298339879 0.16954882686783704 -2.3907508160446502
Ni 5.649201342654972 2.991684590238936 5.815094862871475 -2.1058229634831607 0.042213657253572456 1.4596623158498538
Ni 0.6350109567277751 7.783172831454872 0.6990881022562591 0.9888683873177421 -0.3870129893597142 0.18091361706135295
Ni 1.6750005209792809 3.7048282353225424 5.120330126641102 0.2748676401120105 -0.200850465194596 1.7821290458970662
Ni 8.01947571856401 7.938504670442887 5.844294155221782 0.7298693388068721 0.013246580597261057 -1.7082509676606774
Ni 8.88724230318079 5.921529211151029 1.6874946437086926 0.3179361891667105 -0.4790479410107879 -1.9183885145841544
Ni 3.376791917459695 4.551291010348386 0.6501464204129515 0.7778530657750024 1.447216119666701 0.5044504402442924
Ni 1.607360465203739 2.2510135507400757 8.814653760951002 -1.7725478299665343 0.6707002846458836 0.32304548536881783
Ni 4.484617635647628 3.0680984275789385 12.845547205392474 0.7237406002013148 -1.0582989713057387 -0.6934771733310832
Ni 6.934951617521566 2.660315524289694 4.143810079813932 2.414506523703351 0.36326010991449054 -1.1348700229932585
Ni 5.052243556273875 7.080984905218808 5.384823275188203 -0.3212639679883628 1.4271188346961938 -0.39356158911150935
Ni 7.109874859625185 4.7091454266172645 2.8834347228360744 2.6080900229228887 0.18678344557856863 0.8844941973750251
Ni 2.8658687467343005 6.916142765752213 0.24820503276132516 2.0669975059755306 0.6162178373272871 0.41255741348772174
Ni 8.475951728563047 2.418451919378946 13.59576076807241 0.09024392118892201 0.1072006036479186 -1.5793901054305057
Ni 7.8794726794761285 8.829867479770803 0.22538491485594395 -0.6990469541093767 0.8964696245693464 0.5484924089558554
Ni 5.027165087248072 1.5091088420600636 10.775319587312419 -0.526631347216706 0.14918928937487855 0.8460484918043172
P 8.725226555047131 3.4404087386668545 5.294529738911599 -0.7144918279095372 0.31389312944558845 -0.7404046911205571
Ni 7.302308838912021 0.7714805463251636 2.658610483003505 -0.2367420368848826 -0.5709191133904877 -0.5697955413090058
P 6.5652835680380575 3.750952732319339 13.177602154580493 1.099012646975017 1.2939243780876748 -3.006160041427713
Ni 8.441353752572237 0.9036599132478003 4.864608918361177 -0.11174965647118172 0.1834780353544195 -0.6499967335499451
P 5.676783975988784 6.141021054045366 3.602035973073314 -0.17212507223544551 0.33977899607341483 -1.0998981349037638
P 6.876849481683884 0.32463452112825275 10.000852456790497 -2.35283192951169 0.9281669556726273 -2.7105914213229254
P 0.8412473004652286 9.193956398479848 9.688295004556537 0.5005097104289897 0.09183800514891925 -0.010947243040123083
Ni 7.338582395432455 5.32797782474774 11.179854442190392 -0.13191533278577927 0.7364418498180672 0.14780757853600351
Ni 2.9179222209897673 4.920756517130512 11.618278373604335 -1.2855461813263087 -1.0638677236427676 1.0061181755371253
Ni 5.6184608844768675 5.2309874902444955 1.2774681196773086 -0.7626550178783252 1.408892284385838 -0.9196838579022806
Ni 5.065878362671532 1.5421048894126623 3.3283529097752753 -1.0778198149474856 0.0022268324479897132 0.12336512922292302
Ni 8.280967552536069 1.9637159353145193 9.052791500804942 0.909591249552969 -1.191746167355012 -0.8076971457196283
Ni 6.2295874534683575 8.014992159674302 11.676097870308723 -1.0830607516314508 0.05199773322352981 -0.6362189630395624
Ni 6.055142948658915 0.245804901749935 5.1921094187140024 0.6746608119555284 -0.4094255527269594 -1.2980186027617064
Ni 0.29377345797796084 4.132782550372262 12.059167802083296 -0.006897755561097799 0.5769807462035353 0.049518675555417946
Ni 0.4947556599118072 1.9100237064751344 11.103817150145233 -0.19001120848724695 0.7048843867267602 -1.8266908916678413
Ni 6.272830320213657 2.9289055592965894 1.4968016110051099 0.3509293562632795 -1.7690372457101144 1.858201817791929
Ni 8.328436196551136 8.899118670670983 7.900697313283796 1.3680801354654826 -0.03581598125734477 1.6749978620345025
Ni 6.945262882319252 5.602736205660395 5.328567039879036 0.2852145305639733 -0.45764350719308283 0.18469468137033995
Ni 3.7460180555947313 6.894295773462113 2.298487718646998 -0.11122309454375037 -0.5997954301052058 1.4430303637201276
Ni 0.5294097954698196 4.589249353884872 3.30931389584526 -1.2760837503618279 -0.12547420514612584 0.6544735383743762
Ni 8.735547026331245 7.183259762930867 11.873878976912074 -0.611490864165263 -0.5772946778995284 -0.15289579169218828
Ni 5.404124673981373 8.467813194562014 3.0191917303840516 -2.3780642217159174 0.4351029028884055 0.602899008731194
Ni 5.115887996940314 5.426698978699167 12.358345467593617 1.523716980237918 -0.2632539671324821 1.0535128627710049
Ni 3.7422894285919965 0.36332201838971756 13.170689924571471 -1.2274433636463056 0.4366301381662094 0.11392429552499736
Ni 8.94408315037804 2.527806565152988 2.3427386956560006 -0.46509713525765056 0.20469632130324747 1.7380302558056389
Ni 6.428005648932421 1.4045599822006578 12.841019455367919 -0.736457533547351 -0.3435937418338147 -0.15086899107014662
Ni 5.504530614948852 5.416700734439981 7.268091090810625 -0.2505452613165621 -1.0462924337631658 0.838462194816627
Ni 1.3120347936142691 4.271542713792566 7.587493565702694 -0.19352230696429895 0.373562263171447 -1.3780387893400912
Ni 7.48300454800506 7.284328570921053 9.651832715064357 -0.19692696177047375 1.105436805333806 0.6363158936287429
Ni 3.886196017924717 3.358065924068182 8.185267967429821 0.5850493821442827 -0.43001288996000786 -1.003084273806808
Ni 7.094536853238626 6.62345935576715 13.341776823781165 0.2627973392110377 -1.5441600785836178 1.065817648280287
P 1.6306620823492266 6.690620674248514 3.1284036756184825 -0.5671874142621973 0.22907063638255387 -0.38693997002993363
Ni 1.687944840894949 0.22348009281429979 7.5829114974082215 -2.1091409721128 -0.8801400341713874 1.0449037809457553
P 3.611161442419267 2.7055377856166927 4.680410141182852 0.2662423603368447 0.024798032880286328 -0.7611470658742311
Ni 5.15381872101752 4.1375330973683395 10.246804662323255 -0.3465502533589773 -0.6867550241159012 0.25533856894014734
P 3.9347602338245373 6.800509296235294 11.43321786929649 -0.7415328911877292 2.645642527255366 -1.5270208478001701
P 3.021891072204303 3.0088454809379437 10.228101685147807 0.8759478504669108 -0.38209986832881293 1.4941222972999366
P 4.963216832529559 0.59082166317783 6.952703564649155 -1.1885145477915917 -0.2693063439741491 1.1443532798933453
Ni 7.034243573631436 7.5024854732835475 2.1827815178873093 1.7098769332998744 -1.531167522978692 -1.3294307985244007
Ni 0.6638447515669502 6.2644247981062575 9.658812152424291 -0.37054558783231023 0.970459031572619 0.7662818159976351
Ni 1.6737024063931436 1.6909461554699898 3.7638399720191624 -0.0450045897351483 0.3931545834810778 0.5233930427850664
Ni 6.214000871948281 7.65434646688877 7.2903772325032685 -0.8415218075785572 1.2853163247036898 0.8311731173543815
Ni 6.012231515424969 2.3671717899833062 8.859578652766425 -0.15249675648155672 -0.15056585800743102 -1.028047628620365
Ni 3.353969037608386 7.929196912665689 6.960653365678443 1.341981895716534 -0.261492247246369 -0.046951686159190105
Ni 0.2605131844649215 8.808490018288456 2.996809841232572 0.5427290241095168 0.3448651523470706 -0.20257181876107694
Ni 3.7276695281467043 9.047554851325545 4.718813158013738 -0.7599270774242008 0.6684698526534681 0.3487822280132896
Ni 4.940808244567442 4.0109070830581715 3.2426543308741405 0.11857464981281514 -0.48660544164307157 0.19243318766517828
Ni 2.185583051706895 6.4277754867717585 5.278953284526593 0.2468225610493362 0.9708192431255152 -0.5447434834363843
Ni 9.376990555125222 4.0485984384882885 9.56603930935303 -1.3654761221837324 0.03237275990375069 0.61488806277227
Ni 4.134255588200503 5.006551764139124 5.315186332506752 0.25857867314399985 -1.6351344501806613 -0.2702401686423281
Ni 5.2136516763033836 7.9568439914044875 0.35141526949431695 0.4123069880398124 -0.15984316954429892 1.349412126742334
Ni 4.959847258497458 8.746024007884609 9.256783303151613 2.2141944475107285 -0.8169531171002575 -0.03781655662714132
Ni 2.7871072553555387 4.593456718181786 3.339159483542708 -0.21012186319419296 0.903904740691153 -1.6220999855942062
Ni 8.249380097606725 6.486558902605001 7.62553200567109 -0.7444500648345244 -1.5779723991473726 -0.38606116696940607
Ni 7.100336939687325 1.3179821838457924 6.935819789191585 -0.3721466137708429 0.8438586832418499 -0.02132832916413101
Ni 1.0964096750190646 0.39521604931706344 12.65552808749531 0.030943740766708 -0.7883400813492553 1.2207196717692266
Ni 8.561212999358922 6.795464141673568 3.7460392305135124 0.2577764889576787 -0.29331324841170775 1.426997221516665
Ni 9.479090489595174 1.9876528000234357 6.697669160256647 0.17184533621149758 0.020600706969487105 0.45337984682072247
Ni 1.4328423085028852 3.7448672447914184 1.1546526700990716 -2.2254437951723025 -0.04122352542616126 -0.17541916960568496
Ni 2.787383449948334 1.905816342178221 6.5642708545311415 1.0762658401968044 0.2696524144596582 -0.8420010612078208
Ni 8.222635254537725 0.1586516979934129 11.402778463224532 1.6899984492083924 0.48574875006973117 1.1382309690456913
Ni 2.6682883415350482 9.460309257285104 2.3047665423898755 0.3415332597603602 -1.4275458949312834 -0.874996542297235
Ni 5.1078783537492525 6.367362522841025 9.534791573772823 0.16301333974216442 0.2969163923819338 0.3894794486223357
P 1.2740212111592246 5.581791449040092 -0.15106831512389962 -0.7394433556485523 -0.47962206834670307 0.5090043781635621
Ni 3.2754653278495667 2.4796382281695073 1.8926722415070978 0.4640085301791622 0.24776307058573457 -0.3125965221213519
P 7.26423081105199 5.189908147809424 8.970825231501113 -0.9454709941687136 -1.1419397853558462 0.6700554519730331
Ni 1.117676658664294 7.186426794261585 7.5284477650062955 1.1475663875140043 -0.4233257077478193 -1.0613945795119268
P 4.958742480126277 1.1748489393728985 1.079693457614457 0.7514465507570155 -0.1832900877133295 1.4410102479663054
P 0.5213311036305603 0.9179032683982481 1.1885224130135457 0.46087872630092885 -1.0084763913566566 0.6505240668083248
P 3.091906401477884 5.458986126596924 7.10747288731651 0.10992520166793326 0.8216860037995526 1.081161734836525
Ni 2.9547481666957927 0.16257826445431783 11.150937788973378 -0.7817089491859828 -0.5076509494594612 -2.039862083211319
