# total energy = -381167.1531599391 ev
CRYSTAL
PRIMVEC
9.29314788750918 0.00000000000000 0.00000000000000
0.00000000000000 9.29314788750918 0.00000000000000
0.00000000000000 0.00000000000000 13.60146129915062
PRIMCOORD
 96 1
Ni 5.857656833813603 1.0467243936726762 7.346217427835124 0.5767619453245099 0.1693541943585277 -0.5634731986354038
Ni 8.208488638783814 5.509572695015337 10.617096872078532 1.9318078733138537 -1.1977280959700598 2.1713652681603444
Ni 1.2095403406970675 1.0857556138497564 7.692687346884637 -0.12887346063566193 0.15156987379191317 1.487863203764102
Ni 7.473298434157867 1.6920498604147285 3.7177144287192188 0.028768073271627875 1.6546514371676666 -0.4498492079596446
Ni 5.694385522553812 1.8533974901086487 10.932514667532882 -1.4196505513436066 1.3820389116384197 2.8222258923724812
Ni 2.903829849698148 5.604688061327818 1.4033303488762703 -0.21133928054106182 0.10440812850444599 0.1579202414899732
Ni 1.6935088845975386 3.44190309928218 0.3667484965610381 -0.2861858933383071 0.17286837815937325 -0.2467649683385234
Ni 0.17427346877589653 5.489973446597848 3.5796600736381206 0.177336698343372 -0.49440925395820656 -0.10289966227971957
Ni 8.031147501964954 5.415079969596159 5.886848469246994 -0.5197647020038596 0.9950369780222992 -0.0035998015361163815
Ni 6.203584962354467 8.37478951618116 1.0346479482869346 -0.30445229574766275 -0.7221735128245111 -0.6649255869456355
Ni 8.14843631859708 0.13688248916101992 2.086150878487005 -1.1821101869271449 -0.0707601014326975 0.249635347907783
Ni 5.0847829154214494 8.260260764404412 12.097696955813461 -0.016998334330209433 0.2626255895198638 -1.1493450766809818
Ni 6.216716179999756 0.17762178987823035 9.892832621157869 -0.3042041842925987 -2.450332018042393 -3.2019014675305177
Ni 8.57024299779172 1.1998290013911037 10.281330800505202 -0.34697474249090565 -0.4613644076880958 0.08653407643750258
Ni 0.9603910519000397 2.1674594153192253 5.647122432178433 -0.8446408128235131 0.1855799121887707 -0.42067567171948195
Ni 2.1399516982420455 3.648461892347885 2.7621576722325405 -0.8153531196029893 -0.21063788359866306 0.21743048104046422
Ni 3.1516688046749453 0.3849695711803717 3.7030925901890717 1.0124392326591467 -0.03966106603504783 -1.0734263138654803
Ni 7.874613722759539 7.5175709896158684 6.931086945920296 -1.0558337975946979 -0.13236373317710753 0.1714074773431306
Ni 4.448062903413677 3.103009883520852 7.287825793135446 2.112319626951098 -0.32072017966975086 -0.30497165858624253
Ni 3.180626252787274 8.338797155289296 7.778131334426096 -0.4539236351393344 0.7987885303760889 -0.47633079918994087
Ni 9.04852413532353 2.399871745178415 2.1523227364086472 0.9282787986601433 -0.17314708574205664 -1.3259585237050842
Ni 6.970511266243446 3.455127248404082 1.5924858643168278 -0.4201300836286571 0.24579514822608634 0.3927401216514784
Ni 7.240737413936097 8.380114489791033 11.471213345954512 0.6068592789305226 -0.5465810508657554 1.597347718350191
Ni 2.2067043778925135 3.50121196765602 7.929460950941232 1.256477031874494 -0.9372758599524309 0.6507618938507438
P 6.176913628566796 5.721865360188009 7.544009065397243 -0.5694229884609355 0.34531740939314076 -2.568771427828924
Ni 2.8578938208087887 3.8640443317926247 5.62050406933243 -0.47885947914906557 0.695024720323861 -0.038107605504998886
P 4.7143952222362815 6.8664280124379 1.8592791232634283 0.6711975359972763 0.0511955490372086 -1.7420337205380774
Ni 2.7089246637996 8.016705950499434 2.0253123580081303 0.14986163285155482 0.061068070955914176 -0.2930016307085599
P 8.237250930795259 7.845312428183745 3.812870684881408 0.5062818370260764 -0.4422163740047352 -1.3077204034305026
P 2.005126711973217 1.9410132862585323 9.778893054942843 -0.7954800348281461 0.13052230909299456 0.46184134732451426
P 8.494922035997616 1.603188782478243 7.105634562552199 -1.1639309449149566 0.30668067085754924 -0.4998520222403327
Ni 3.342587230226834 0.4603500091195068 11.2687556189517 0.5688668588471493 1.5210558884659868 0.08328523048290173
Ni 0.9305786342028795 3.2464960834099275 11.500742322648005 0.5561728083192486 0.26967555438810975 -0.07395469711059521
Ni 9.095119977696834 4.8692934074533225 1.331082631013729 -0.5721560711213824 -0.6957034915584406 0.15772560898066385
Ni 0.16965570370304153 8.09251015597192 11.73179041843053 0.6609812575859069 -1.6447514044451352 -0.6894865641144513
Ni 6.61127535025173 2.3889244172335102 9.042306090223414 1.305959711985654 1.0376825806069676 -1.9693400659313567
Ni 2.1818916736370837 8.069017078684382 13.123982000520074 -1.177277798535508 0.3599138191500769 0.06997462941692464
Ni 4.264848497272931 6.474851942585174 6.002474741762529 -0.43826561688710325 0.22326637099595095 1.0446983498031686
Ni 3.887016992811134 6.551157978031366 12.946659449996536 0.25566072816625646 -1.0493589885036316 1.1362193379323013
Ni 2.9115803348475966 5.5017478646846 3.8829856253557016 0.03336726260653608 0.7168888673868041 0.7311404922098118
Ni 4.372518906075705 7.461672706433694 3.7979635467180617 -0.32845097265510526 0.09057893593083756 0.9771878656560203
Ni 3.9204444449485054 5.75445642903587 10.755042497331996 1.384142588244984 -0.8790329171501378 0.3170437592594282
Ni 1.2445662142321663 7.265169099137418 4.228327356279143 0.8692190163835095 2.394193266067296 0.28894520125099915
Ni 0.759241800087925 8.251357928944975 6.8190106558113435 0.8131059754400255 -0.2853155749182118 -0.5287316813891604
Ni 1.1165902777896497 0.8909284903915626 11.983621709642582 -0.026327325040619173 0.5002096626900675 1.075987132614121
Ni 5.7481370886262475 3.3499009374362063 12.865050744494857 0.25295001410331275 0.04588724945041774 0.20031310463388727
Ni 7.495304607819611 9.378737551169289 5.33808345327874 0.018850042826967537 -0.3550222953857305 1.7375931682682202
Ni 8.460583855389446 9.249023796114127 -0.10494844585280556 0.1955542497926632 -0.04553449409668932 -0.6796245837187069
Ni 5.248388779997043 4.426149661228545 5.421324964824492 0.4670899973179633 -0.36584715391537637 0.049304502662082826
Ni 2.9931369987223713 1.633837583464912 1.7600022854282589 -0.7061689098661387 -0.1794956536679038 -0.707986936911484
Ni 2.759126247465454 7.6925144943381385 10.652935896033988 -1.6304583848612306 -1.4475295371420618 0.24246659807348567
Ni 9.51534682178907 3.2983053816211707 9.166881663936694 -0.05549726173635603 -1.3197899330005272 0.573982839917476
Ni 3.6771777186210226 2.2494063913957714 12.946196651243008 -0.4775888399667582 -0.3114040444751475 0.7930598554224277
Ni 7.8807564933636 4.484687198346504 12.868953866512566 0.3847195653398471 1.8682571451454018 0.9642572736372812
Ni 5.952047334608507 -0.11893463308292593 3.38555316912367 -0.04005238793619554 0.07051507530142695 -0.32699418560392074
Ni 4.209377698883171 3.796576079772243 1.715171211795818 0.7627100394859768 -1.6568055073961916 -1.3248447218156152
P 4.431112202079631 8.266561518518714 9.633343776272978 0.6349866332943581 0.3847740727268664 -0.4427488494694375
Ni 7.642368669558252 4.2115987611742005 3.9454708916001424 -1.2728073936034014 -0.6152557305243339 -0.6680867582824366
P 9.714684839122015 3.294513777375397 3.9170301424977767 -0.6610200812436422 0.39220198975982135 1.1400528527457785
Ni 0.3927209856445865 4.507204495129615 7.044645493081213 1.3706934047186137 -0.17916552402199468 -0.8948832539188328
P 5.283098686511662 2.8604587295632826 3.3448036459440327 0.9524265995509404 0.5773075334153347 -0.7700315128480545
P 2.2020113383236026 0.06553063073301912 5.428275309960311 -1.9267338012250557 -1.2899304264369333 1.210520876859354
P 1.6499704878047718 6.049235072849438 5.923354741204524 0.514970623049326 -1.0158266610741409 -0.08051795215040972
Ni 6.495027366157659 6.08882388188619 9.588118673179704 -2.3873844706755785 3.8119681976547444 -2.0293817525052855
Ni 6.10833019882707 6.0028901454629855 11.77517919554595 0.3130120123922157 0.8214281221524756 2.2613883315877117
Ni 7.877819858702656 4.63763382255469 8.427261415820647 -1.1336742029129443 0.10620121584912677 -0.6432421884349309
Ni 8.030181014608187 6.8441523374939806 13.478408712597115 0.15895819583618429 -0.22651521695055182 -0.40516497767839255
Ni 8.319950651832363 2.326595275869778 13.29296580964721 2.0385942722424892 0.43232122637821024 1.169985892859785
Ni 5.3736511173224875 1.5962839737659642 1.4322747865818735 0.8889563469114368 -0.24186778814722212 0.15255460630268566
Ni 3.762618918218183 3.0581797392031773 10.705601093144828 -1.4535490038632644 1.0067087579332725 -0.38831988109659576
Ni 0.24842070602038918 0.1718507451806192 3.901388845669195 2.037442675136549 1.3175008798560341 0.9952758335059827
Ni 3.136130661785403 1.6009026681535854 6.443134429617465 0.8409929316582807 -0.47362548444363595 -0.05271944188090275
Ni 7.24820910465571 3.3381265193494536 6.194512991607595 0.3969423326582841 -2.0503742955965523 1.330207014568793
Ni 5.541299501130707 8.106050272114302 7.697039327934381 0.7065010963945768 -1.4696610789337785 0.1924774106395524
Ni 4.65353439820302 9.083447784234355 5.567485732610463 -0.4710178716174598 -1.4295734668842734 0.6182538939207095
Ni 0.23692043578964234 7.519531843772384 1.7741743356116035 -0.24800861093763737 0.3335720959317546 1.0632971958512785
Ni 4.101289098435643 9.235846112730531 0.29584642647983983 -0.7056600885505202 0.19977240163906884 0.5101207511561924
Ni 5.989535892273827 5.372210679435 0.5366486100475695 -1.0426707778501785 0.8431174342004513 0.04429625081421403
Ni 1.0202482159858903 9.098019439767132 9.76795687877513 0.8955885075159736 -0.11840701388669929 -0.9864111840265013
Ni 4.478163408688335 4.798349518207649 8.608895057544222 -0.8268456936236211 1.3318604910118161 0.1002380562871564
Ni 1.1960559834406526 5.824963540341467 11.689707328561507 -0.23244572350237389 0.3472886741868987 1.9309182716200486
Ni 6.664394982283204 6.977797094009834 4.774588798267468 -1.6566931501880435 -0.30376401143138654 0.2985575275297826
Ni 1.9845052173129931 6.36601989032475 8.010580836875931 -0.3925614299817691 -0.41488477606931773 0.5011311460630724
Ni 2.0837560343347112 4.895602308482206 9.877462684240996 -0.8235958192277557 -0.8449236341712545 -1.1433780604642696
Ni 8.1221738833065 8.10980470376943 9.224796560161353 0.08682872485978595 0.24774635841518625 -0.3103658330186203
Ni 7.794432444738623 3.1587315968974643 11.122445231488383 -0.16294443417744195 -0.37583820368981724 -1.1351903824471545
Ni 5.842351019615591 4.182687778800178 10.399799846890302 -0.14566996336771043 -1.2724662082138989 0.5443318498202626
Ni 5.628339122125595 1.750559518089704 5.077575150095416 -0.8781332881540038 1.1754410024370854 0.6664065423665362
P 6.806357105955841 1.1896344184067567 12.575339654100947 -0.9054977962098858 -1.4560509443495118 0.18714699956557446
Ni 3.9263270074180507 1.1986859442287747 8.948877430211445 0.3072054330127677 0.14709743984285634 -0.2918718879794909
P 3.257461997650154 4.428974778117553 12.651168021757353 0.008905015799113696 -0.4352563977471343 -0.5660157625515994
Ni 5.3283191430311065 5.172175676027464 3.2180237376055136 0.17201605746140697 0.2965217280466764 0.09814414987260517
P 1.1298144269115509 6.204997520798971 0.4380055648828946 -0.14716326008378525 0.7304519507832195 -2.2704771812628572
P 0.33920360689321305 6.696038150069622 9.709226044185819 2.389866356557168 0.5706152089968236 -0.22427372921454278
P 1.066137779136943 1.2167704095774885 0.7596609210474456 -0.22437605912036196 -0.2138355646003543 -0.7900966590290457
Ni 7.199949788851049 6.278608543423412 2.2889626744157097 1.2661970873757356 0.9776362660473485 0.9021846726762527
