# total energy = -381168.19660480757 ev
CRYSTAL
PRIMVEC
9.21815089670309 0.00000000000000 0.00000000000000
0.00000000000000 9.21815089670309 0.00000000000000
0.00000000000000 0.00000000000000 13.49169562229363
PRIMCOORD
 96 1
Ni 8.378442043406032 1.8552543044535266 3.0750000553207624 -1.1314432566998966 0.5527804948082481 0.45008086435447653
Ni 2.424364515812666 7.116799795881516 8.458443611181512 -0.10950045542568884 0.5583237932239804 0.5631404978863335
Ni 8.192935971077947 8.11402859783563 6.168201349948411 0.042351468383017385 -0.09655906477367242 1.5444832662509917
Ni 3.72269500463443 8.894428050092804 11.94027201536355 1.6094277894431768 -0.7642578435890709 -1.824002803312717
Ni 6.422838946298783 1.0114800635233459 11.174403134653323 -1.1902173894153116 -0.018693462644445224 0.13852898144755496
Ni 4.223286699018085 4.504329689136285 1.0507337162660753 2.1812455033885336 0.2901623614875519 -0.7507904052302554
Ni 2.144639721298865 3.4791791075617295 10.761313817578708 -0.7049494356367407 -0.24132631382145533 0.516094452241124
Ni 5.937060820700222 7.483802044818012 2.1409838025806516 -0.46026448975569767 0.5653557603700973 0.3880892531430284
Ni 4.14427792611389 4.068375670123557 9.445131457375977 0.43467121466762565 0.4907184353701807 1.3788790258531995
Ni 2.574537415052223 6.051421202995105 1.5754797319238945 -0.27718137584685165 1.0800967839071205 0.5621405958669093
Ni 6.10309815794796 3.406069951348549 10.735531570823868 0.49932494609226913 0.40148007262763763 -0.28458306762756147
Ni 8.386609325262656 7.054051841481929 11.064809458281758 0.31093096149347094 -0.847092102577483 -0.4321322502958558
Ni 1.4695668632784578 1.419327939894038 1.4565231795006681 -0.051960195117375034 0.9987524792006734 -0.2167877052501428
Ni 5.893173203409722 2.547804776921064 12.858624785789017 0.663262854531232 -0.2680760711114738 1.5137668110037412
Ni 9.249216248848684 6.06170865960006 6.502012724107304 0.2595670051991981 0.3235746183994105 -0.3935806152749028
Ni 4.2665659183373235 4.183077124008389 12.0313952824167 0.7507024735021395 1.282507651610301 -0.6382899866359781
Ni 0.8634033718393153 2.8233168763914382 13.040493375701049 -0.49020395762760743 0.4030312191648413 0.8975003798267059
Ni 8.649695357077581 4.064190629533369 7.258276291392473 -1.445128641010053 -0.5629301816477402 1.245358039143197
Ni 0.1527300143490682 3.57962929987733 1.8818486703184902 0.324087553480087 0.29673410116779864 -0.13637465410871352
Ni 6.676116865364896 5.193395700495692 12.42556895347575 0.18200067947794463 -0.9718122031664037 0.9938200748960626
Ni 1.7237205066971437 4.114208317291876 6.262791563622641 -0.29865831477370497 -0.19821097068921992 -0.13277613812417777
Ni 3.502501029793396 -0.0010877418274057873 7.655498405013583 0.5854556164437659 2.2768139221141626 0.5657234281221611
Ni 0.49177637650612815 5.150356153104526 12.115934024153614 -1.7287470307315003 -2.4212093896448237 -1.4916316696675989
Ni 2.300030094049537 8.767761436106507 0.0820940880705739 -1.1061495151301144 0.4681544340267356 1.3879645330942356
P 4.583827024047705 8.075616562286477 4.043204586785301 0.16211499629761114 0.4290960345726933 -0.09644413646236294
Ni 1.88820919456349 1.1276103308255332 11.871140491341265 -1.270509084487528 0.07351041048432501 -0.21181262063305456
P 6.64421284447802 3.110111992783378 3.619025833961795 0.6964725085139811 0.09058356391652787 0.5073431884110553
Ni 2.7401230628970548 5.605262690737138 12.862713035792869 -0.8542469684547095 0.4406212616034734 -0.6845189356965308
P 5.620279058845986 1.3423102876230604 1.5322521342507023 1.0850376728521638 1.3155743522572827 1.6953062345745513
P 3.738365861469937 2.7574624050779897 5.79619456679074 -1.1989856225262447 0.041890469586198825 -1.090806971235773
P 1.1587308088706345 0.06950209369568995 8.418602762215006 -0.048306143304555516 0.5891433497079983 0.40442115753383256
Ni 5.241118068635351 1.9058158631257365 7.06257863123066 0.9994201946916594 1.066293302365125 1.9673736862336053
Ni 2.900260783453778 2.7108185606146566 7.887542313067585 2.000832994333315 0.19954023102360474 1.4126260403966575
Ni 4.027013826228898 1.9953425464118806 11.585076374329947 0.19531719408119266 -0.5286144390850057 -0.5821635759560554
Ni 6.497690333066028 0.32226563993155577 3.3771470805208503 -1.7614028690933086 0.9117401775751718 0.758219607814791
Ni 1.0034694902350778 7.250647349558905 12.481734226189317 -0.22577628190199828 1.4728096518650895 0.8479107418240365
Ni 1.557213043744341 8.39697052707625 6.512644017747533 -2.0095865721562296 -1.0734926483270417 0.3484256160048193
Ni 4.114162226536477 7.5382352269437005 0.3077700973587117 1.4176245220525134 -1.3952209575463328 0.643158370471873
Ni 7.676968400693337 5.095379100065135 4.428568470857472 0.9353447043679892 -1.0857079594463108 1.7064239417542677
Ni 1.7667600540883102 1.591228021228471 6.442082758492785 -0.43097705364549005 0.16905826038466368 -1.6640555040903855
Ni 6.113201251531322 9.109266279156525 0.2240766600758081 0.483265064415929 -0.6594200837463741 -1.1727359448010966
Ni 6.6838048033653745 3.7579913051186398 1.3172240112747375 -1.58070213937371 -0.7988857180755855 1.8285976217722508
Ni 0.40027793070403406 5.668397807482072 0.8220111080460933 0.08172971307032376 0.3518564960632392 1.1033282436312353
Ni 7.081780039929697 0.9433394907421291 5.954425051889071 -0.9954501543003178 0.3982235133635529 -0.9217793069787288
Ni 2.187928158769183 4.7601518179003985 8.723245140912372 -1.6618854930222604 0.39182095227131875 -1.4327773185335517
Ni 8.737996026270123 2.739717464249548 11.210304145848363 -0.8066843881843978 0.3597873208745417 -0.9824005202052113
Ni 8.043316160903174 1.7937047096943026 0.8722721549931044 -0.35617466382261886 -0.9078768379650236 -1.5326795887478442
Ni 5.842289009449723 8.200642345380585 6.722129266479269 0.7186636998990397 0.04778498069376287 0.46349276688500823
Ni 5.837440261981795 5.121014778217809 3.1881279708162875 -0.8830302112349888 -0.7411130300414914 -2.865579319657452
Ni 4.780597676995196 1.9474265970995477 9.27821194306991 1.4055282530096118 -0.5886936637650894 0.7705974126538535
Ni 0.6773174778083163 4.277369591402744 4.045930394059571 1.0311859171390305 2.974764557835567 -0.3154337344598309
Ni 7.44410868626878 7.347327318082905 4.144204180905253 -1.5875119632066919 0.08455818365805438 0.4053053599109987
Ni 2.670249477712853 3.8026440289487558 2.279786112463386 -2.675372450219631 -1.7375188633868592 1.1849070329459916
Ni 3.582975488719265 -0.004868105585194883 2.2674006046726873 0.9457846687543906 -0.9634412054938891 1.4174895391365459
Ni 8.91522419892863 1.2457132824587787 7.1734803632404365 -0.8239490888021165 -1.2485042980816627 0.6461688751634226
Ni 7.396091337294571 2.132545507082285 9.225985586312706 0.7557114966809565 1.0127469937075526 -1.1781941397021902
P 2.0706179681287926 6.2008105593928855 5.8557060283462405 0.9373828178439405 -0.24162687578100964 -0.5235542509532789
Ni 4.860666537273557 5.9586958212843015 8.391807440656505 0.09436848488025683 2.08729122322756 0.4659106322978815
P 8.855582761442905 6.182595492859379 2.869548669501508 0.4733742876647783 -0.4842883634741208 -0.2837096638836727
Ni 4.569833870708705 2.2831332231204287 3.5332454072744452 0.13733521824976994 -0.06166045312427445 -0.506407049750031
P 5.889052689877092 5.744585826155876 0.9117544178826106 0.1117915654527107 1.5577535009973364 0.04048304771571092
P 2.872062459300945 3.233994725143601 -0.02664137843547005 -0.2649326403864856 0.2732835834543422 -0.6934666318081217
P 0.11811309159943298 8.56417856951111 0.5682833432072898 -1.0143598467206272 0.7501491721018307 -1.6324337634200465
Ni 2.8157026835995977 6.669470578436425 3.7102836860207087 0.8024952898037148 0.8454327125971891 1.0588360747561314
Ni 1.296090478109394 2.1724969738617483 3.792002595342338 1.536157777104432 -0.6908320223987522 -0.00958970057096413
Ni 3.778510909422075 4.49272403692693 4.224884204600198 -1.1590756737051844 -0.7023469650168872 0.540039907313128
Ni 0.619689284518401 2.712745154190316 8.624337145272406 0.8938825805684605 0.15348380298517436 1.8297996125001519
Ni 3.82315441510111 1.4002094945547192 0.4979313359820505 -0.3417232642839792 0.27346176090341934 -1.2829321407422292
Ni 8.355396665706758 0.41039208606869193 12.321925593626137 0.9521653754697538 -0.7854879566124409 0.39180912519677685
Ni 1.3655769009482484 8.515866239702351 2.225941048376584 1.9991658910435375 -1.6186688484254705 2.4646255518469293
Ni 9.040305290929215 0.4184561246332223 4.633628085255839 0.8266541464381054 -0.6328135369024392 0.7323769357200741
Ni 4.100003146478042 4.790451880499406 6.729832875336583 -1.6540312870851641 -0.12017413308945109 -0.19612657735636543
Ni 8.684927130504233 2.862844308221235 5.314595029076612 -0.793154472018763 -0.9563035660078434 -0.05895590970891782
Ni 6.428213128378254 7.743505015186684 11.802238499280865 -1.3197773345950368 1.0806919942889581 0.056184774721683886
Ni 7.991565460741681 9.218427624242452 9.878160557051114 1.404933042627774 -1.2109237687247274 -0.48257240922427863
Ni 6.073609292643966 5.9132042457059315 10.430173863602716 -1.6495827643955077 -1.299607544515381 -0.21530443583639694
Ni 0.6465703348819434 7.2533021770698625 4.473603747957395 -0.13910696543821205 0.46335469864524714 -0.645881682940307
Ni 5.794557423158984 3.698469703596952 5.666957932283421 2.0306855589183734 0.008147825918115 -1.22720862192768
Ni 1.205835560887953 8.43705104797083 10.375761883224511 -0.35623379919532844 0.7703143341957959 0.25918853881385684
Ni 1.8795902233039612 6.179240085866364 10.542964394768724 -1.7341250072139618 -1.0697853746787833 0.9716970177447782
Ni 6.269587184598603 3.9660357568366162 8.296785817511745 0.0052558490823006255 0.7520831558997499 -0.7525721797210264
Ni 3.730576523807582 7.347364190687224 6.625947078113573 0.36082861765486246 -1.9185672062538637 -2.3765189887159845
Ni 4.629484526345509 0.6725074465749236 5.434442054894139 -0.5681991433561634 -1.9566249323575338 -2.193214502824952
Ni 9.00105440363181 6.933598261323357 8.800497856035882 1.4768185159141665 -0.24604428812241497 -0.4222188478368858
Ni 7.703203258666191 6.9275050634596695 0.2971572400206415 -0.03739669548090334 1.2006426985136935 0.007142010361419958
Ni 8.419121744120794 8.590994171001988 2.531555020197751 -1.0305182016480448 -0.15039873630194742 -1.3847467974878862
Ni 2.3367644261021816 0.24440083957635284 4.736677796175917 1.1195110240386847 -0.9259660913665666 -2.487409382510665
Ni 6.751853194635794 7.303965135403948 8.895425454039628 0.49731717163362094 1.2205900881698977 -1.427574948397006
P 6.249436306338357 0.474548573953258 8.553424674461521 0.8369380448626167 -1.1041319704794532 -1.333144757040878
Ni 4.882596518692188 8.676566267474936 9.781020602788237 -0.9391309108832987 -1.0372406079735428 0.7765459169278046
P 3.798753969193118 6.649762171428005 10.302380791554478 2.7656220278355077 0.8458787989956722 -0.2897540703055397
Ni 2.8322308284855175 0.9675924462328463 9.671293263226017 -1.882643495774061 -0.25956237721350783 0.7048841296164441
P 0.04119130809968441 4.8495586652225064 9.618364483356537 0.6491012183188692 -0.7673207987851108 0.5045381148620923
P 8.174306087745855 3.999193446270333 13.480565142801083 2.7879140064644887 -0.5174314258849927 -1.887174293764879
P 7.089661559102848 5.775190087740513 7.036729091972938 -0.8957566576627217 0.3989909876571967 0.22639308955039075
Ni 5.225382684742286 6.1841257059386106 4.9479449135113605 0.4879437008385209 1.7850238509463578 2.0576826563325077
