# total energy = -381166.4034906674 ev
CRYSTAL
PRIMVEC
9.31804832813319 0.00000000000000 0.00000000000000

0.00000000000000 9.31804832813319 0.00000000000000

0.00000000000000 0.00000000000000 13.63790561097959

PRIMCOORD
 96 1
Ni 1.449851011350507 4.878650440967537 3.8506628754490606 1.3892413429241302 2.5733410494774778 1.255941213975682
Ni 1.513977818338567 2.2601112014774682 0.8050840144103285 0.7362821843117513 0.34991017097014576 0.45958777540364726
Ni 5.411204843726705 4.856259171395856 12.324629992706022 -1.1698686505556302 -0.8668386890767911 -1.5718408323283382
Ni 6.893799476082158 2.574800321733319 8.976550950124182 0.33518623449640983 1.3839649250165391 -2.0380527979167224
Ni 8.113597198021417 5.915264655412132 11.743845373008437 -2.2377089856929007 -1.0167347747107072 1.6167811444844544
Ni 9.017084459336338 8.626005980799738 5.762519483823775 1.199062241400451 0.5222758984614877 -0.16754028107824048
Ni 3.850152246413468 7.9203967888249 9.950243181199369 -1.525898818380585 -0.14872006304794388 -1.4729042684614249
Ni 1.3610593310556474 9.430330574290345 4.342609224611314 0.3773386994947437 0.9116231923813333 0.5682760193406858
Ni 3.3435765617424593 5.870687113326855 2.924662278132417 2.1040854119667634 0.1259269764128283 -0.7380061089813935
Ni 1.4485651207134318 7.261731923151403 3.3342091279928083 -1.1266494348556793 -0.07708655787135756 0.1053344969734573
Ni 3.2878266799915785 5.946386936048593 7.643881848003615 0.031303695209288024 0.9603468828392816 0.6830330951796236
Ni 5.439037853385719 9.177578519720289 13.044178984630609 0.5862485446587065 0.3818484144396392 -1.5642817890341576
Ni 5.550649433464619 2.190794241700633 6.471717987924712 -0.18958080581804768 0.7691596517660624 0.24895837644541638
Ni 6.860077460027264 6.240268854908869 1.820196832876291 -1.0283481905799192 2.6543811926799448 3.725002947217094
Ni 3.3621753857395773 8.741512504982243 3.077775512620517 -0.9436779068240329 0.1969760698408543 -0.3699087255792597
Ni 3.7069058930528977 -0.19444716403159532 5.511500586199341 -0.12727294891776145 1.2870032254878092 0.06345842556496169
Ni 8.792631316830034 1.171576823048934 0.29248793886530244 0.013595479296247551 -0.1997315210988044 -0.9001555580613658
Ni 6.933401180484841 6.64891185410407 9.608013637994677 1.442147189784226 -0.07618358644111396 0.7887619993780223
Ni 2.076070433558088 3.881302481194213 9.067761595704438 -0.7122284857966572 1.2015086460584146 -2.5330894010462828
Ni 7.678761165631878 3.6814955758985186 11.296127139127908 -0.28167155040772135 -0.870247971868656 0.47103869755306615
Ni 2.769249349374533 3.2697310305915765 2.9168341859280185 0.4099958234081326 -1.209561084049246 -0.1777298200167326
Ni 5.418034972980156 7.906391762538492 3.506646130619798 0.37949328394390125 0.981210356551852 -0.6962776188943557
Ni 7.321563109967784 2.45335820091446 1.7137940416823565 -0.5962095125261603 0.6638284972267148 0.1680907542650718
Ni 0.8986558533777942 5.855004838383393 13.056671691711236 0.5911511241666465 -0.5654022973373166 0.35390695083436474
P 1.8235140579980216 6.564741925664206 9.07519367086481 -0.2441622406083537 0.134906039982987 0.9641258902657397
Ni 8.088522330598447 7.828390381937351 7.542770776322688 0.2645775710399121 -1.4108545503185317 1.0454599105595412
P 7.032638392693913 4.840949618376184 8.405545621902034 -0.2883685028119227 0.026216253384051622 -0.636332348688975
Ni 5.662792142284919 5.98837406076353 4.564839080842212 0.8757519324060208 -1.6362145706187177 -0.9155690644029586
P 8.951736988047866 7.6491484087867665 2.3139574060025923 -0.8791406463725956 -0.17401611861057126 -0.9011839993258802
P 1.1796089805066075 8.918219969051055 13.544362488308618 0.1817245429984225 0.9083293521214099 -0.5269275383008861
P 5.871646872280613 8.878264178820773 9.644589772180996 0.9150389029311015 -1.182986675994827 -0.16209339903105632
Ni 8.323914861567989 9.103378902741806 9.48891314266203 -0.7364055972634931 0.06845125079386276 0.30757001544103807
Ni 6.904347506525414 4.8701989713456 0.2867098172417488 1.4915977311058697 -2.980462122440976 -1.8428135082613164
Ni 6.120625117372297 8.999165852850137 7.465635042389549 1.152168662172706 2.7250934715938424 -0.03769082968255444
Ni 4.274831606379731 5.089256964005045 9.871020204493005 -0.019278902834270025 0.15859541318012685 0.42465445386157186
Ni 9.44346902210394 3.383616214405594 3.057018628684655 -1.4783002426660152 -1.441733499285575 -1.7388432386252375
Ni 9.273051240499083 4.160256887006702 5.34877298968708 0.734709954728625 0.46841051590159977 -0.0682195943990309
Ni 0.11110747367697311 7.282772075749345 10.739400787806153 1.27413176884178 -0.339695435220673 -0.8066553347186753
Ni 2.752383682323038 4.153715617244188 12.71422317437632 0.0742917687350398 -0.37061526472798106 0.21379365561882535
Ni 5.335150935177367 7.00351017434973 11.279065793066422 0.2487344333600684 -0.3304505195836373 2.153257759926356
Ni 0.8053980326311215 6.359204420790241 5.920051336718405 -0.4904420417803425 0.8995665183271153 -0.42315421516696156
Ni 8.810922645240025 5.050437975642323 9.712766202871034 -0.5426012402824011 0.20447700620358977 -0.20659688076007
Ni 3.1663472869803404 8.535471825511161 12.589859845479758 0.5440243458821727 0.13838988476652941 1.1940722443850273
Ni 6.945123284988035 3.7451192082894615 4.070314427772141 0.31157296595284406 -0.45700895893287746 0.28666514696757084
Ni 6.278715121347802 2.2691217539850905 12.933670661446126 -0.14427642545429348 0.8497261977662206 -0.373112320118222
Ni 4.345425138745547 3.8106344044436393 0.7627260313812202 1.0469768614247001 -0.41601220480554163 1.523127940503667
Ni 8.419900074991993 5.838027354754761 3.974317100885613 0.15944182034082216 0.5164703475233041 -0.7925145244419189
Ni 5.280332858235961 4.99344879349484 6.660862250785586 0.18501092705917813 -1.1717864364036334 1.1459579053763038
Ni 4.7436785143151035 8.010763219247771 1.1645789689297779 -0.7095085157623329 -1.0043225170892833 0.8578303149305936
Ni 2.1913905967786973 0.7117777398135631 11.272273867810162 0.46842671385151585 1.1373449668963123 0.13451497519215544
Ni 1.7946374269523955 4.8439127576703145 1.4291975577484965 1.8615121131120844 -0.6454718490963981 -0.9380788154697005
Ni 1.2183720605807618 4.714000531133329 11.080893273406547 0.26644881992069597 0.6312945291547515 -0.6522621325453541
Ni 4.643518815344651 0.6319136813982822 10.977654891345589 -0.6014162535380804 1.3727322895255132 0.27514197681931973
Ni 5.99247400192522 0.20996450952378024 5.210429793233966 0.9440401752594579 0.6558156542245672 -0.3477365603575947
Ni 0.1856416085820579 4.724958555692753 7.630516971621317 -0.35141632320202704 1.805572878742303 -0.05314675922630846
Ni 7.811207901250635 8.242232851969423 4.005548402684782 -1.0894160044255174 0.0763954453416039 -1.2588792135580835
P 2.098033072917411 1.3533160330889111 8.838780813628894 -0.05574383052952335 1.076942297438539 -0.29398970565344207
Ni 2.988670745909674 2.848424804035612 10.691422158166292 1.8218852427490817 -1.0024073023444413 1.024298445990578
P 7.564344853076459 1.4758390474867609 6.772869847908511 -0.038272670327953444 -1.104215017111563 1.8383940390373823
Ni 2.0706380115188496 8.215396873456546 7.0087785987424995 -0.76761107633202 -0.2600213191277973 0.649192749591411
P 6.399887018771913 7.126051824843769 13.517182673821045 -0.13155177879877342 0.1737968035109136 -1.2365532963673738
P 5.484686971001893 2.8126434993517773 10.667419798079028 -1.0362255364454669 1.2637285712305848 0.49383049863660117
P 8.866271850922832 3.5386685347022113 0.3269330354523502 -0.01935989258385053 -0.35613121217919314 -0.04384502220940836
Ni 2.295044563784681 7.337925602422162 1.1416845247609804 -1.226850210146997 1.2516765251620572 -0.014056220982749985
Ni 9.030381313967544 0.9532735922851633 2.6742565080726184 -0.3944979848828496 -0.8712183062017254 0.5288790056003021
Ni 3.95091761851008 0.389993857738371 7.9035618713321165 -1.037205383860233 0.7831888761656189 0.4818740976056733
Ni 7.512666958342983 3.806152423310065 6.533552555081464 -1.6719261650877142 -2.3092555875826357 1.763749514948614
Ni 3.013754931380737 7.017804060127073 5.038073857625401 0.6953458511087057 -1.3137992626347308 0.6576519361023577
Ni 1.444288136637942 8.728411329361027 9.686144539464335 0.5522763014783199 -0.3019704098660735 -2.169899996468727
Ni 8.528250338237731 1.9897293999121475 5.018531115356285 -0.3360966621258212 -1.4232853198827167 -1.2304273859752939
Ni 5.469545142847926 7.013089127791131 7.9936534193361934 -1.6084677395227522 -1.7225840964538979 -0.3707255650536002
Ni 3.2302318247179374 2.2081724013973396 6.0272862296072 -0.8574055686883492 -0.07670449194159049 -0.10096876380559384
Ni 9.294883427185079 2.4753953846585404 9.761002942443117 0.5583363916294706 -0.4965476404574481 -0.20073682243486718
Ni 5.128886622552012 1.45900133457955 1.1569064881285618 -0.4607175181327162 -0.7647769493173344 1.443974987021584
Ni 0.1911867790032428 0.4951955525328925 7.739443090239309 0.2352086309594917 0.47177557571909073 -0.4484261023598729
Ni 0.9368645095903109 2.6866075808222076 7.189276644776257 0.5139869189798181 -1.4177114253393648 -0.38424853924069957
Ni 3.662253806582862 1.846222141204924 12.98503174254438 -0.41397923353591287 -0.09674495553223338 -0.10373938457219552
Ni 0.9284549711848004 2.664132448817674 12.069082523707543 -0.8634188647619645 -0.04375683337097625 1.096567527868634
Ni 7.483473513662137 6.0195802038328425 6.108090479075241 0.3303643876277343 1.1702054650697589 0.3597572389675546
Ni 9.259363027847897 0.4856799618185352 11.683975050390059 -0.15147422875431332 -0.5340127272824416 -0.16411737143962057
Ni 2.217490449492088 4.541989363304269 6.349563036426605 -0.10999950654929443 -0.939425302195266 -0.3795241371818367
Ni 4.441317171688605 3.008378417630067 8.489664301077376 -0.3749722561450961 -0.0910587037807335 0.33526182492935164
Ni 3.926299335443754 4.262736779952748 4.837856026408727 0.53776448101539 -0.4315056724554504 -0.8539394645166196
Ni 7.055402384189384 1.3207587730458596 10.834415992423494 0.5107442436728042 -1.1927288429832554 1.1008553566107107
Ni 8.835419793681119 7.615892295136609 13.17645333635961 -0.7645774317120186 0.9730753861495436 1.5187465236065198
Ni 3.686359597003977 5.95503408468052 0.16944684099338478 1.3913522186195457 0.26675838074131475 -0.11398317378739078
Ni 9.07093345927589 5.426719393804462 1.640994927332514 -1.237406131285972 0.5407083941350624 -0.1592243050133774
Ni 7.375421427955431 8.324455308357484 11.433733277976726 -1.2450140255402171 -0.14356500120956564 0.7632772248433565
P 5.346742587007235 4.4814779589769715 2.9587570161111025 -1.564648685455273 -0.1108572265638994 -1.4711798295711502
Ni 2.8010611655700046 6.5053114149159 11.75489285082957 -0.15172491131253868 -0.8451642894271508 -1.7913816748435858
P 6.829085632064129 1.1085029554955805 3.4811025653776637 0.7382436789134964 0.5554505854412434 -1.3628194012871757
Ni 6.996633454855805 9.013292013761776 1.096888940350286 1.130518688003098 -0.13472734831327765 1.3214660351513692
P 1.3112264098449318 2.529756877243304 4.753328284922025 1.6603659710539405 -0.5976213052720224 0.09374730635649016
P 3.053272773350566 1.2379772337721127 1.9727230303344219 0.9407972428421282 0.6430578403382667 0.10248571467075253
P 5.2473096957881715 7.558288121814873 5.829126755214657 -0.7137721761346932 0.4420667358007483 1.070320678356963
Ni 4.636977545582137 1.8990647919502432 3.7363499932274937 0.5342649525025637 -0.1795910415951875 0.12670910599449145
