# total energy = -340888.5784711973 ev
CRYSTAL
PRIMVEC
9.11702569763654 0.00000000000000 0.00000000000000

0.00000000000000 9.11702569763654 0.00000000000000

0.00000000000000 0.00000000000000 13.34368867157235

PRIMCOORD
 96 1
Ni 6.429718657561671 2.2500272762356737 11.386383038801815 1.1403387594173136 -0.36182594857112527 0.9701178461831163
Ni 4.754273701115786 0.33749497440950665 5.7951773056037945 0.11445342855559 0.5820491618653781 -0.2955516508239232
Ni 2.459162732079698 1.5628314532162164 4.63438298785714 0.50556501346471 1.5373173446301718 -0.041468808667747936
Ni 3.6638500590514917 4.723549324020255 4.863107285430379 -0.14953973073576182 -0.07807668969876876 -0.6757872122504878
Ni 3.288110072927434 3.1134552088268204 2.706059997268522 1.332584513662034 -0.9778306414463417 0.2523879709522556
Ni 5.097994692474414 4.785289823038335 2.7059670036049095 -0.022387366556264672 -0.6536968081093517 -0.4407058508974797
Ni 5.2604692100469475 4.606067328989693 11.366795108775186 -0.01593441184206933 0.8289344578318497 0.4885114004165329
Ni 5.892133228648341 7.787043231219924 12.463445679491183 -0.5046823537494406 0.6966789680978324 -0.558770908063728
Ni 1.8994502814420793 6.320897837083261 13.670742299259636 -0.3023141663587374 0.37211061832658493 -1.2072586611683145
Ni 3.1892268106193873 1.6732295191657038 0.39980802265061294 -1.4221311516736153 0.3600009795472445 -0.22776837263136257
Ni 7.972109738834809 -0.022783447585082897 6.935461962010953 0.6531239663250172 0.15790224376784417 -0.57101193021461
Ni 8.725732212156352 2.7827806814514875 1.2957536513208774 1.8767168458769807 -0.1205687974247085 -3.393856172897381e-05
Ni 6.982037200239505 1.412582867300984 4.615301964467456 -0.1504136487002829 -1.8311898079794593 -0.5816902358640627
Ni 0.8598230605722824 7.36709478677651 2.3449801887022126 -0.721437405989435 0.37456113674960656 0.2010798075965827
Ni 7.578026296711877 3.643655846806211 3.865239689738139 0.0049899970154236644 0.9890571062897805 -0.3472575638386471
Ni 7.622435329599806 4.270496958735933 12.798639516577573 0.14435201588723529 -1.4221522347195377 -0.6748826981583473
Ni 8.694588451871981 7.435062214446296 9.12680294288641 -1.131624262362451 0.907594016617282 1.036021133744145
Ni 7.170996677889937 0.4523394138632937 0.21167090073134381 -0.5398157071174637 1.687255082135301 -1.8713846350307897
Ni 2.043262247111186 6.8848405877126675 9.207118470359813 -0.5923024641622702 -1.7663167614551578 -0.5918990580762645
Ni -0.11885137231238802 5.199458073096417 1.1737477880663372 1.0558862480991877 -0.7967571017683568 0.9108073813482572
Ni 6.507805983918709 2.077596966441087 6.8027727678719785 0.6423477016451196 0.18485460398697195 1.1464374161158837
Ni 3.535382047878462 4.232697769585171 -0.08313451186448055 -0.6532435226220169 0.45154845003893845 1.2342079360636486
Ni 6.025360327312133 5.852884432388325 4.780897239986517 -0.24041717174362465 -0.4227482379777945 0.7290625266348605
Ni 5.45817191548213 3.0568475953591214 9.412264315694339 0.21118450013075243 -0.21490102975039121 -1.5034122072422946
P 0.3747671994664638 5.947847373583292 12.111799257566046 0.6664795616963167 -0.4601709016006268 0.3822109399853804
P 4.1449099277297226 6.2191427116342375 12.504411211717697 -0.2744179541691016 0.320596509607693 0.3726659766094227
P 2.2569926839807732 8.579522468690175 1.3056702403317997 1.0026782966176409 0.5837977691253687 -1.0689320255395527
P 6.422497973092931 8.041271496890205 5.780325670503314 -0.24236426816766643 -0.5338903427719645 -0.27631979917750477
P 4.791717326258618 1.0044683224035647 12.357884195752137 2.0596775752753493 1.0650352615883076 1.2666621999376122
P 3.9925461918185965 6.402878133475844 8.00339754812752 0.07314557094573855 -0.29366806064796525 -0.03766229043746417
P 4.847322066883435 1.4827019130700407 3.5058273851987645 -0.02644328179319317 -0.6646725903945649 -0.35922373506158783
P 0.212320032971463 5.6173278356473135 3.424297469882893 0.05268704598107056 -0.5052562239750396 0.582200599841578
Ni 0.507600442613779 8.942936235872645 4.644217523635462 -0.19166468493026992 0.5933465891560684 -0.5322903452746962
Ni 1.9178393225701753 6.845336514729008 4.569853590633266 -0.13764375062912423 -0.2700177682188769 0.3818738683609359
Ni 5.897731082516785 5.680545292852181 8.993312362175717 1.7472373762262037 -0.7118729022294513 -0.16450586512729087
Ni 8.804065698211188 2.359003086153439 10.416243965512647 0.10881242821972872 0.5951756719450072 -0.20183185527125883
Ni 2.297873427866932 5.435625510569001 6.672484998340412 -0.686008889978496 1.2567122878137515 1.5898532097453588
Ni 1.0479747697329027 0.187429640713746 9.342557359493448 -0.397410016323322 0.8337640180100092 0.1882590016828306
Ni 1.9286521152215994 1.4681511398224247 11.478401180649053 -0.8477271650583207 -1.64161440147805 -0.13787694968585285
Ni 3.7974874238782808 7.0058052866157805 1.4142038744961132 1.7268181891399037 0.3813781596714399 0.453201155151013
Ni 6.002230432744964 8.05781889879774 8.044536303845076 -1.0233224552305538 0.2908167072420992 0.45592215362660193
Ni 5.368934466517429 3.157162230724735 4.872781361553841 -0.9227815229909978 -0.3546749393486408 -0.8167461432957741
Ni 0.7254189538719822 7.559309042653383 6.676354264108763 0.3499173700589973 0.014340842102704334 0.45637055401793014
Ni 5.015604129918833 4.574732111162589 6.969622546147226 -0.20938447080753617 0.5282228600735419 0.2799615096951501
Ni 1.341615938128401 7.963120351352259 11.516644368958435 -1.3523218441899616 -0.9318657446804532 0.18201610609691235
Ni 5.2546434305323935 0.2233051374113455 10.36286924940936 -1.4544509468522433 0.6643002946568108 -0.6846091814174919
Ni 7.974644272019543 7.101260547206343 4.641241726399859 1.5846963481347676 0.8443132542807653 0.538800378479072
Ni 7.496137170577737 6.359581377740926 7.164266489411622 -1.2807423321797622 -0.5509953778833672 -1.5729597764241297
Ni 2.3485093894065683 5.269485948607031 2.720191387327297 -0.176227010218961 0.38579917155727106 -0.9736590265671554
Ni 2.493324227918556 5.473534104029896 11.282929411437987 -0.12503068985080404 -0.05143954672721463 -0.2512371451772641
Ni 0.9205187484285974 3.353105350171954 3.5892919333988114 -0.005734331380615931 0.7490482257281681 -0.49439485578050335
Ni 1.6550319355803396 1.3143286797761988 2.4005165516331974 -0.7774378326144546 -0.5842006609907422 -1.0570021068711861
Ni 1.2258297099048903 3.413077146176226 7.57162249775879 1.8849955409460055 0.7312129973189601 1.1768898190684698
Ni 3.744845716652883 2.523939200703953 6.620737671350346 -0.27799975798308896 0.45284351470127815 -0.15000741440079973
Ni 4.069758283694574 7.011175214838116 5.890811259900907 0.15116338238211385 1.041226074983852 0.1592528442584677
Ni 0.5580677391752942 0.0870612148956511 0.03758402734083463 0.4705694712261315 0.24782683394413446 0.7075385365201557
P 0.19558117352119803 5.826089493431718 7.956334549016294 2.551784149242309 -1.5129507428603493 -0.031234275423933304
P 8.975866933222513 1.8057637238653237 8.008748330595582 -0.56794434703288 -1.0512328084875766 0.36144285420009364
P 2.2752632037728926 3.2606040059549666 10.281486118209584 -2.28782132896826 0.9721814135803644 0.011376103047425569
P 4.123776661822471 6.486052760254039 3.6756794000845634 -0.5198904289484465 0.7482241871649759 -0.737693205726665
P 7.122366462036063 4.27835583501378 10.341185315141109 1.017044849751958 -0.7549807891625191 -0.4386487112581349
P 6.753336606933462 7.891378474982905 10.252049976865864 0.3929697211637813 -1.2487356973661785 -1.0834718710269404
P 2.5019307003156417 8.889410177140343 5.647423137959582 0.17234053068036126 -2.650208292249178 0.38764342385486145
P 6.91909325380997 4.111678368526991 1.645624076611533 0.031500641711442526 0.34608334102488786 -0.5460904843825821
Ni 5.487929887838157 2.8444664783145015 0.305475979644076 0.10938192756995356 0.2202908333073948 0.10611945476859788
Ni 1.7809836476203236 1.0610668188454193 7.157514420071281 -1.2938199912993265 0.5029982811787982 -0.6324119305886464
Ni 7.329085906031328 0.8808004253375956 9.135049292762645 -0.6679913703551529 0.1589257999363521 -0.44492014608914343
Ni 3.2569571956172183 1.9542436067667486 8.876782184643305 0.02965844629638118 -0.9120206849300679 0.7291538007970862
Ni 6.8246955682173525 1.9645549629967318 2.1533776852594975 -1.7027508637780544 -0.8480781206398362 1.3182794098932715
Ni 4.407826719029692 6.79755418227866 10.227003683466208 -0.5519736826362365 1.4500366198346317 1.185361603984907
Ni 8.268577185242062 7.207756526094441 0.37366039252895716 -0.23791394570579671 0.5282807098946708 -0.9013287524338607
Ni 8.146226698410604 3.9024243913469903 7.9970192768468 -1.9143629383645289 0.46849870474003186 0.6085474652662228
Ni 3.56533147777722 8.489519189554546 12.507826449598998 -1.7887043851217388 -1.302152679534738 0.5172105681234382
Ni 9.576979798219421 4.784533109893253 10.034254258172272 -0.47000974206791957 0.3563803520755217 -0.2438076854824124
Ni 9.064311200938755 2.2737497774827267 5.784596085408817 -0.4658736084123589 -0.2300484269147909 -0.4826893944181171
Ni 3.893471471967818 2.7097988895672986 11.4836589694535 1.197148826427822 0.3625476572284982 -0.1999032707899783
Ni 1.07888148734532 3.6478496786946213 12.242407946407333 -0.35209586576755486 0.036974520341820194 1.0061806533439446
Ni 3.179754220767086 8.580370352093702 8.022666382249598 1.886378537336461 -0.28957897818025613 -0.4120028265358324
Ni 5.734007532403572 8.262578182236465 3.3845335616626695 -0.18599051736362807 0.1889449720062617 1.0665159598988925
Ni 3.14737054496788 8.593070369094912 3.3740188957563566 0.7396742407124357 0.023891976126249173 0.050138568527603976
Ni 3.4461445989137593 4.496425976185288 8.986707988654054 0.07743957033540212 0.23120079535167923 -0.2501056026759822
Ni 7.463443515899823 6.2588929443156935 11.53748680174125 -0.09586075315506716 -0.3033184392535357 -1.4809124834778817
Ni 8.066106275290274 8.900505597592943 2.1445706382938354 1.4288101063556877 -0.014689997912006958 2.358992806906763
Ni 4.948156372722178 0.4689178136586977 1.3120393945866773 0.024083009091132715 -0.6075928146624374 0.7164157844051274
Ni 5.884757554740244 5.730743637151288 0.39438065716545895 0.13583163712104993 -0.1554308994092162 0.5854342762875273
Ni 8.103185219399329 0.06685697392194073 11.274415932704512 1.1445450841891773 -0.12233745928935703 0.6119276945923655
Ni 0.006058263673584468 4.835624922725107 5.49190217599855 -0.5494298331684603 0.7273321742073151 0.8022338086122119
Ni 7.256797008111312 6.25010413140172 2.6239830604019883 -0.2457103018217639 -0.5180551755119207 -0.7871383477316701
P 8.806363188723969 1.5224156776481204 3.3872686694159806 -0.7378117335824003 0.12061559150224388 0.5022912278094447
P 1.774601729529264 3.381395481367037 1.134052257539946 0.5601410489383772 0.38019108134187424 0.4274374159233478
P 5.155787519301881 1.0716152177473566 8.085367815791676 -0.7862019519603298 0.22408398180123987 0.5028463289819662
P 8.692181557049068 1.8973168973944963 12.67479657261539 -0.23399224205388736 0.059497126924368496 -1.853257586412776
P 6.35504109887043 7.841061609347821 1.3383721003329736 -0.4696670140165202 -0.9856550225867671 -0.19211359954223042
P 1.8986023980385527 3.684016920219241 5.531772753421152 0.4617156203799274 -1.7247790472226876 -0.13208168316031446
P 6.904059278192602 4.077708330230865 6.109501358829833 1.278894480337746 1.1812964327765978 -0.7469885149856619
P 2.9285436906512894 8.529369709520292 10.266073786019675 0.18141009708179723 1.4341518302835752 -0.03291911932552395
