# total energy = -381179.72059226857 ev
CRYSTAL
PRIMVEC
9.08199439606801 0.00000000000000 0.00000000000000
0.00000000000000 9.08199439606801 0.00000000000000
0.00000000000000 0.00000000000000 13.29241682071679
PRIMCOORD
 96 1
Ni 5.8349088863874075 4.174202652262635 10.005654023415016 0.380868309914557 0.3154108516416955 2.78821148310025
Ni 2.3206584328861575 1.1654105922613016 1.902769536753334 -2.167511184521577 -0.1522815551469571 0.8315549261738323
Ni 3.740346701927814 6.879883152061657 5.417165302163594 -0.5661119218098315 -1.105207205821503 -0.3097431118329569
Ni 3.928943395835266 2.0345392840438006 0.8221802303799571 1.8099386119101668 1.6085757258555264 -1.9318459256406406
Ni 3.0403792362225666 1.5788683833687258 7.7590492639590805 2.0245658191738807 -0.4515052555058289 0.16842576900698739
Ni 7.822875703593232 2.0046141127818795 6.194930947554386 2.2490827747474813 -0.22528365853629587 0.18423188280130853
Ni 3.6394911550799733 2.054619573470237 5.2673196615916105 -0.0921730198908348 0.024077609774494017 0.4981710349934839
Ni 6.289798735551549 0.8999920330569714 7.460793846116023 -2.19016825979946 -1.4860356636370602 0.5435062685951736
Ni 2.4021693318469293 1.4692668759972949 12.271598889760865 -0.3508745917659441 0.47036146898038345 -0.5847336506760769
Ni 2.186753508732662 0.36395728930287924 4.144190293855308 0.9599061957574371 -1.5480025922581597 0.026535070176051077
Ni 5.052903766051224 4.0377093597298845 4.061856566209762 -0.4457768376624839 -0.2968284606538178 0.5740340048703856
Ni 4.898591600676019 4.074945536413915 1.6790981808083882 -0.1246293406473273 -0.07679730876571289 0.19499889150982547
Ni 7.037428507412354 8.73155648060962 5.226937482077496 -0.45266790835536236 -0.31528641024868925 0.9524952480053467
Ni 8.678099862082256 2.244578566524666 12.738721277065425 0.9789382726882239 -0.5834347293589952 -0.09787264137877338
Ni 7.751336834388329 5.219876231499 11.896805873042933 -0.7812813747302609 -0.6060002733643369 -0.45940085620382176
Ni 5.41989807425243 6.93956093669355 9.848471039637413 0.3642319869094566 -1.771127809690556 0.4648150852408575
Ni 8.754043498529049 4.795965064937108 7.632212855979532 -2.7052293856800635 1.0475777282334926 2.2501829497901955
Ni 1.341292494130305 6.6043536085884655 6.435762731754081 0.11699599247178562 -2.2104951442822705 -0.30335983401443234
Ni 6.8960127739618615 2.1528413419672563 11.29115037728288 -0.2391565598636462 0.25254095159035217 -1.367583141224406
Ni 5.995859989605546 3.7013758643299677 12.78880665930374 -0.5266010081994028 0.42144417445439036 -0.4030412464671703
Ni 5.924893286042374 9.265723058133492 10.099392011319619 0.22377519231156945 0.2947070434354408 -0.7107624427740921
Ni 4.440668365411275 1.3832603898515001 3.134086345346505 -0.22869885486543196 1.4170912752568625 -0.7288123582972673
Ni 0.3642579033146454 8.502245206196191 2.978059499444971 -0.2116061610492033 1.40962402034554 -0.7702261453573638
Ni 6.477341918118673 5.924657154190232 0.6728286502986092 0.3071771508779935 -0.21142489827633268 0.3348481344307007
P 7.364289482743627 0.21930110028144417 12.101522198656845 0.6426084115056739 0.4660854673128489 0.19295820693071286
Ni 8.255532830678714 3.2745766235764853 4.113019072973619 -0.3177035043306142 -1.9774601239353298 -0.034517059940263134
P 4.7034377068744515 4.929824579119037 6.0926858555766295 -0.5502867818521168 -0.16459919617204558 0.45668988503056185
Ni 6.574918865019456 1.925573516274292 0.7833338161042013 0.08436715069317083 -1.2482219909545536 0.22891328486908316
P 6.475906963017191 2.633578546946702 2.8265391391216363 -0.4149372265738079 1.2015916926905241 0.3089242154760873
P 0.003929778939312079 5.545511137597993 4.709343727776311 0.23582158195314223 -0.011463263444593162 -0.13028036828551756
P 0.35234141857632467 5.176754922500031 -0.038937234218887624 0.11405336490369389 -0.47995888286083144 -0.3872323044593718
Ni 3.7129917350565225 6.223609160997109 7.836278002601189 -0.407691086534356 -1.7348480014229155 -0.4001734380010721
Ni 3.493271046637809 0.7503471045593079 10.12079282271919 0.1863764399481371 0.5517553959778433 0.2941488569391257
Ni 1.8490486321914552 6.762089685819739 12.81563123770714 -0.8289059185867595 0.4230449432826069 -1.4691864532902053
Ni 8.045139350419635 3.8397672936741727 1.1277857062206682 -0.45501455421066805 0.5934712876593908 -0.2886148144947739
Ni 1.6577636679673022 5.184647175558183 8.530820793103175 0.4803072673391857 -0.4254638371367446 0.10335526175989941
Ni 4.836815875357782 8.29864505768337 3.6713126467544863 -0.3432682401735959 -0.012887911706261676 1.5589459786435411
Ni 5.049071164451063 8.958188566700661 1.0291243691988914 0.6964234004436006 -0.3456603945548563 1.7135039885295007
Ni 1.5263835382328705 1.3610821597387197 6.177783234091676 -2.330468474214825 1.0764131644079462 -0.24099181330017205
Ni 9.321304863330141 1.2817872673903634 10.477109430206394 -0.4554930365089833 0.34721102687142785 -0.014095815971433789
Ni 4.186199966750344 8.302259691420014 8.31830121797538 0.3437906883359692 2.1480060246091135 0.13847524539148412
Ni 7.125287720398037 5.016548542815573 3.1606711591000396 -0.5799177173446722 0.22593440474641735 -0.6860117181919734
Ni 0.10457099072136168 8.46911409094172 6.153804044506591 0.3251064816629046 1.1783147244404544 -0.752131235528866
Ni 1.5649729320695636 2.575998703001154 4.16353040074522 -0.17697982922458555 0.17212841466955517 -1.1200203595749356
Ni 3.4874313242944357 4.314319660526344 -0.5014205388282773 -0.19358067100606013 1.5609421831379633 2.0891025654046858
Ni 1.3983909923772544 3.8428914997179056 11.711615835202352 -0.36904972001307407 -0.2971868724345011 -0.649850694890384
Ni 3.900952689362052 6.73639672390776 0.5297345642990408 2.746055161447174 -0.8686356330762137 -0.5021104792572063
Ni 7.847578728125075 6.53443133437131 6.319267990698949 0.973170002745879 -0.45078431817940434 -0.09241804602210535
Ni 3.0158578515769863 5.104089886000295 10.451468235661999 1.4281542179392437 0.32155193154242684 0.27679673881392325
Ni 5.971710966726806 1.6489450514892063 4.986357269120275 -0.754864318189313 0.8043261723648664 -0.8502638154372454
Ni 1.270743562305539 8.302005395579245 11.033556864378784 1.3310498221850626 0.43608763539917805 0.12548397533813874
Ni 2.0550464272029565 5.68828008820115 1.4482484165583074 2.2376359663631202 -3.0800576600481278 1.0335729293139684
Ni 8.660226497273921 3.608875752250251 10.20212934738915 0.47192829924687113 1.2394203335025233 0.15454309748762418
Ni 6.776575466749258 0.48747150376266735 2.8337702229937882 -0.04139810333081257 0.5366388520513791 1.6262654298258057
Ni 2.4625191840579963 7.939797298381084 1.9429655353840278 0.30409516951856014 0.20688304454192114 0.09244658526719562
Ni 2.062702548408965 2.8560419976479947 9.440420667944057 -1.8952213324390714 -0.07924679874746997 2.031884207212165
P 5.370782649006763 2.182848251177996 9.197820619451587 -0.2597888914020171 -1.3573012996824239 0.37273051129877094
Ni 5.891081021214412 5.268855426829968 8.105382943297236 0.9776516926663161 0.0248139737198863 -2.427371809701794
P 5.159798839117327 5.490238120207993 11.935101010263878 -0.41017965728416456 1.0021957005542677 -0.24890078373460361
Ni 0.7370410746910709 5.988013146518961 10.682078235262212 -0.7613021033948567 -0.3486318184783544 0.1156659608064524
P 4.87939226469796 8.765050875636621 6.182329680444852 0.2293431733176502 0.02468413301024136 -0.42571529102591843
P 2.707269848803828 3.3063000297124154 2.394495954851725 1.157761068658819 1.2060096192525618 0.9244743373123885
P 2.42469267774361 7.075872589340036 9.531686536996613 0.045033128980238576 0.4113744489232142 -0.24806620364845022
Ni 8.57631795181447 7.434375232858421 12.45722758792677 -0.0922576091848411 -0.2665817459541344 0.9796229574600741
Ni 9.219132427306889 6.573156958122699 1.628999175578605 -2.690404147741773 1.2757047697558546 -0.2192266537089386
Ni 9.009810622376765 1.6526686691576093 2.024727097387843 -0.6377539116268499 0.2335153024174688 0.017343119264137872
Ni 2.4414126292741707 4.661587877079328 4.462118219580139 0.36777805238950206 0.7037957816482717 0.025310196630014475
Ni 3.798934647242125 5.999919641063537 2.9408542015416064 0.8092385220648193 0.04577566357321794 0.6361032633973045
Ni 5.983626543265696 7.640963357500278 12.230897932246357 0.3724780289683327 -0.4268692021247036 0.22493990204363196
Ni 1.5250757310517729 3.2876546953874617 0.6340231049972626 -0.39569303363221536 -0.5182279536443591 0.621718198320226
Ni 1.0789590883941613 -0.03293585237673966 0.21286650731055765 -1.2731511500960653 -0.03581649547797702 0.467053230542757
Ni 5.009764293063629 0.9258729922512344 12.215664703184864 -0.43382917838230445 -0.11229781566516787 -0.33917350127893203
Ni 2.631934705976017 8.519573651345736 6.441864015533674 0.5293160931377207 0.35868868849372415 0.40437359212534874
Ni 1.4973756483965803 0.04649708628517691 8.771360137085985 1.1823220458276347 -1.122314297815435 -0.11965888401592942
Ni 3.756975833515243 7.506640661608377 11.342219339505311 -0.786740083851987 0.36807655746652734 0.29030788592648066
Ni 6.7182963092415955 7.623698486310928 8.042975111174805 -0.330777821016069 0.043636505743028076 -0.1904961185434655
Ni 7.70792490157134 7.21242945583298 3.656637052143822 -0.16044557901498818 -0.33508724702470033 -0.5087092155206465
Ni 8.11317256981965 7.929452906858375 10.260403055700225 -2.029814726277646 0.9182988046292959 0.7053914082701658
Ni 2.7581380989519366 3.91000743769229 6.762583746310376 0.13624532761970085 0.24354234763616767 -1.330295203407225
Ni 1.8069445065555625 6.990674400688114 3.9774503274619493 -0.663420977375651 -0.885089921977495 0.6156488521976946
Ni 0.5760382041053469 4.487740341936476 2.7501877211301813 0.4354510302564436 0.029564601030994248 0.7438309431932867
Ni 3.8847958214789085 3.6234160251456484 8.5999011664475 1.617750450376259 1.962124522019524 2.0676973602560325
Ni 0.13246633625428764 7.1458221095401315 8.541800016028375 0.7331816910095567 -1.1622594707498048 -1.6698016625455436
Ni 0.5431713748853875 3.7037735108286465 6.09975709634887 0.6545918091197952 -0.6150914370323277 -1.783747812447412
Ni 5.942603174953071 6.46390056653517 5.128360607602831 0.09404606854383159 -0.11095312871181537 -0.9865099143878947
Ni 8.330849809517899 0.20751357986237057 8.165305941775586 0.2505869131877749 1.5677018704593 0.6560619659074186
Ni 5.251145537919271 2.8950854912003465 6.9680575102500075 0.2065264325334508 0.4465551105894051 -0.9492654282141394
Ni 6.889855181817526 4.2359420496036195 5.774704346085351 0.29191482540228436 0.366486073050956 0.567612674725074
P 5.522397462070956 7.072430513495341 2.194883710041819 1.3358960945337701 -0.779150187319871 -0.7758555757289993
Ni 7.607605192387976 8.501891008417978 1.1411979954223692 0.43879654968990883 -0.7494727148600964 -1.6162988055313972
P 0.7114698115028872 1.9604574564312085 8.09954776195102 -1.6015483866951 0.6139712073849555 -0.08728946654628839
Ni 7.373316985090926 2.8214668452977265 8.527311510500562 0.07546239200437327 -0.2973020578561267 -0.7193051901377805
P 3.262978916838557 8.741083492644144 -0.1040042742762194 -0.872778965820626 0.36051828550329523 -0.7483565989777822
P 7.513715535178343 5.812567180376989 9.68279457477813 0.5796487799540018 -0.18293424703580752 -0.7333200163596338
P 9.052114551887547 1.0285358559673976 4.3775121769574366 -0.7153102100457746 -0.10410011034572393 0.6706763733864837
Ni 3.9931167676521815 2.9528651390207843 11.253532756837698 0.7750181674293685 -1.3325842565517179 -1.9319405422369758
