# total energy = -340865.8544476641 ev
CRYSTAL
PRIMVEC
9.27319692734462 0.00000000000000 0.00000000000000
0.00000000000000 9.27319692734462 0.00000000000000
0.00000000000000 0.00000000000000 13.57226105227813
PRIMCOORD
 96 1
Ni 5.593935310725861 7.049178056632047 3.1677388032240255 -0.26715098819404315 0.4877053595754698 -0.6482944061468577
Ni 1.8348966888115896 0.17156155606615148 7.336946676168047 -0.047759783882782264 -0.5263521254133903 -1.6930025261420392
Ni 6.047246254400607 5.6416551805431885 10.241193161293067 1.3522038305548583 1.2888065972451352 0.748028526214402
Ni 0.002801432699536472 1.3020031717259792 13.103705625020327 -0.2791361855803774 -0.15116235394084934 1.5268550116462674
Ni 1.9706470141625145 5.206872083719399 11.569443188738239 1.0802546496412233 -1.418185793872622 0.9177578445241613
Ni 0.450183094454112 1.3120831364542023 2.3561171059893 1.7691850841418888 0.16996534557996534 -2.060376144004271
Ni 0.0655661367165595 6.519205596482397 11.212967600789774 -0.5756915950784666 1.2758672634756478 0.06731996540289696
Ni 7.442018485134077 6.428189171636483 4.38175046684222 -0.541341656843687 0.8985393626141814 0.9111848192923339
Ni 3.4608960773171282 8.848873691066144 13.047421030802827 -0.7019237614365395 0.33175329755546096 -1.270679034406489
Ni -0.05653126124764727 4.407735818416669 7.1663031665674835 0.2747424273880559 2.5178450732927025 -1.9329034203708775
Ni 8.118062338475049 4.396116503049178 3.825260373632014 1.0860411744160134 -1.6460428695630491 -0.1125235585227288
Ni 1.4178717635191214 4.132238419970694 3.595481689172317 0.21122795177417816 -0.6645478918912426 0.10690775499784815
Ni 8.289727754343367 8.631241039542074 3.932236897184224 -0.647816952289807 -0.3660237887025567 -0.7627722601824799
Ni 3.383585437078678 7.015451440517468 0.8137387680235505 0.13859762990196128 -1.0095189736885581 -1.8393854564163739
Ni 6.947163620592322 4.406669400805128 5.946495755060475 0.6176239736461944 -0.9121368987929581 0.8622569832433794
Ni 6.5115181164826765 4.903341811884815 2.1800580495614303 -0.0037856922946773513 1.0805942923688292 -1.536968188820869
Ni 3.0542200394549233 2.8474833939618214 10.777827485896033 1.1252582109351073 0.5973076306863455 -0.7209748645307197
Ni 9.181929820945495 2.602847193874196 8.15551677963171 -0.07842815950091654 -3.093328923235737 1.4508904831944949
Ni 7.610837029639411 2.9313409110154733 1.2754846113457594 0.37836097011167097 0.08785510924177128 -1.2447448310392304
Ni 2.2969522569009766 8.7787405050132 9.47224393295426 -0.16144599525504455 0.5904134746696735 0.8995942862412573
Ni 3.515190643539525 7.853108564588402 7.305011641640858 0.012850373600106902 -1.290803573070506 -1.1088265477416452
Ni 7.814615525410063 2.3806984955951633 11.638050933946849 -1.5149312636254877 2.1806981155254963 0.6588498130652009
Ni 5.695513906524347 2.4268790147732227 4.698825169663044 -0.6507737209252857 -0.526407661241674 -1.1217039179249455
Ni 4.008951270879872 4.733948329188911 1.8609608625573266 0.625313114760336 -0.3174111699011759 0.7457402444008576
P 4.566669135322845 2.967098357190292 9.06609368534053 0.42331722310738706 -0.8479171695819396 -0.8375219423905447
P 3.204742567024854 3.786635655061642 12.905672801876728 -0.8731360920497284 0.22123725638106415 0.600919773517636
P 9.092081818873966 4.415432571613013 11.014988562186584 -0.40433065470255525 -0.998007887725165 1.13846416810242
P 2.472095121502583 0.4185448022188305 1.223576038614229 -1.289051880486722 0.6461362221532743 0.6909580064536551
P 6.6863735119889975 5.2656456039102695 7.979050629872131 -1.3344169388850824 -1.7603170922282974 1.7871851202637352
P 0.4697903413918807 7.98106013158014 5.599738477171972 0.3467988790346737 0.892104148511799 -1.31427285983704
P 9.145384153057798 4.367814706958528 1.9354181401951558 -0.00138351061108794 0.34597998267780417 -0.6554166190139358
P 7.738399122373021 9.185917295492997 0.3644616648794177 -0.04745407971690537 -0.6253506528664907 1.0512821736682734
Ni 6.583960328494523 7.458330037992352 12.769040595527041 0.12656126756271752 -0.6400221388357364 0.47058155541098956
Ni 2.2407845049609154 6.401269081842527 9.382462697898413 -1.3805939516617771 1.1346285964064138 1.216881271859743
Ni 5.099896487486851 5.515697350825202 12.633982977963788 -1.2937451721973332 0.7649001051587601 -0.07143450179190278
Ni 1.983657309023321 2.600426889555828 0.8767575576280192 0.9953568232555632 -0.0949708943509461 0.9355907589405242
Ni 3.88456061139102 3.1657024092458124 6.338693551036595 1.3019156238232674 -2.1947926459453493 -0.6298626818042313
Ni 3.031611986090243 5.110987230646883 5.381428882294488 -1.1526671990756794 1.396607296370898 0.03716092532101342
Ni 8.95633149352304 0.2135246254204793 6.99584883017801 -2.4364328914627973 -0.3100290185044919 0.20098184856613774
Ni 9.076437936172482 6.181169760016979 0.24653627807549383 0.3625947084163497 -0.9660614167255555 -0.11080734716257047
Ni 3.7227804231218595 7.16540830309345 11.396070577371793 -0.8503224365893227 -1.0201594841215398 0.0419064104257988
Ni 2.7434937670415898 7.577305150653897 4.773418763291217 0.3389701270188743 -0.844034803808398 0.7063766550015705
Ni 0.24640738064244663 3.759131353880493 13.423332311551553 -0.41743556751562944 -0.2568056404039771 -1.493831505532395
Ni 4.595508776817576 0.27338310961613616 8.639762179918122 0.21881990518882313 0.9595400706672701 -0.6292463883764711
Ni 0.37021846534241754 8.261871071690578 0.779176636893321 1.5168698754090975 1.4703195384533838 0.6742391510370775
Ni 3.031305970601714 1.5922449528010936 4.3312477107186 -0.9351647271466992 0.06861760116839795 -1.0063629445580797
Ni 5.267583702004289 3.4730439648920792 0.07853192023358 0.1215743558710874 -0.809200212627716 0.5414247034757966
Ni 5.502297581706267 8.581657257203704 10.68721908170149 -0.16870550503093523 -0.027280432982507857 0.749442118732477
Ni 6.316196776031379 1.3686403626523913 9.909256306246004 0.057401420737604375 1.640328592787091 -0.8993248346299545
Ni 5.37541243232607 8.706344658984463 6.0781195079145665 0.5943405776382216 0.26097674106253116 -0.39274243564432365
Ni 7.539099580570845 3.7454904816493833 9.676627968464336 -0.9716281121800556 -0.8583193387518702 -0.6229785530898885
Ni 1.686228800566079 2.931748931666846 6.4179691816392666 -1.8191295343808156 0.22346357460842162 -0.9826733142506239
Ni 0.6701284812157335 2.095992812903443 10.856207325705011 -0.4336720839791499 0.11263642995150926 -1.5458981443206474
Ni 2.8659185088465566 1.9014967869515134 8.166388675351461 0.8131494270834512 1.2454241164944422 1.566819724964663
Ni 4.698506171699243 5.13296470664126 6.989972405478585 0.9820032847667928 1.6270992385810108 0.849465487905666
Ni 6.151931371067497 2.3411575851985282 7.125273908113 -0.322501954160522 0.9647612098568932 1.2525090483656816
P 9.440021429331788 0.6991062933401344 9.075485578879393 1.5171961484002643 0.11950693181909741 1.3628690235781882
P 2.3174182018459515 6.90048234879667 2.4912424178878956 -0.48083485770788154 -0.16726543015029904 2.6547357478058857
P 5.12589853081522 6.741984872131733 5.182567962692536 -1.089977533355942 -1.103135668004455 1.2591877459374379
P 6.022273535897292 0.24525008570400852 3.702078011663021 1.391571019498571 -0.12381327250393515 0.5663214667174763
P 4.14921764298576 7.518179248991387 9.288855341916284 0.060434808247289466 -0.7399706889069321 0.9587952220814454
P 5.4790125849881735 6.611566634838516 1.0317442020518286 1.0422506595936243 -1.436020765171514 -0.8109932999723969
P 5.832033907194907 3.7166322937614074 11.462561251791575 1.3107789877511684 0.0802739544604037 -0.30514212272583574
P 2.342632023461442 5.099089719380728 7.701416686924424 0.20215401449736795 -1.4203362645567215 -1.298591444546041
Ni 1.8135126974010265 5.056062087054183 1.181003720241829 0.008645591490139949 0.652377832187612 -0.3474051451601049
Ni 1.1633132430458486 6.897366554731644 7.361512301339652 -0.0029269438388078626 -0.010124747138827724 -1.188379050654992
Ni 1.3453831855241638 4.14891162749723 9.532165474886948 0.23726885592263008 -0.5572056204591371 -1.5417995487712415
Ni 6.008567751289828 1.2127301078450206 0.33033259203144016 1.4852144532873455 1.2992108232975947 -1.567161681685114
Ni 5.493840426386912 4.69862672325533 4.26771611334093 -1.0412291603076453 1.361225060216862 -0.26107778541676974
Ni 7.3199090320142615 0.2477260292021093 11.928985422809633 0.5778173831722179 -0.5272111309795758 -1.286538884256881
Ni 7.508052918280053 7.336100033316449 1.7711258429610688 0.22809464562252973 0.5242055113840326 -0.5736578524778894
Ni 1.0653048279468715 9.004487203581606 11.529771526269233 -0.45917254224309945 -1.4068055770601384 -0.09201232594325444
Ni 9.143251317834714 7.85800481240487 9.020694896637714 -0.2938598649437971 1.615332842073702 1.0936896921002068
Ni 1.3796105542563357 8.74439258472494 3.329519918812848 0.5868013318383829 -0.5876361690348524 -1.0110166412800072
Ni 0.5556295405636756 1.0242894792873223 4.787926679406493 -0.2928386227681344 1.5746235372797979 1.2591154979386057
Ni 4.061956862771797 8.85428923789345 3.1929285145282984 -1.360656589307902 -0.5028951799420307 1.2378177649020938
Ni 7.76518938741427 6.521616627604144 6.879114121820364 1.8495549407502083 2.32789865660512 -2.2221036750554766
Ni 7.855232126614863 1.7044969979116165 3.2112922257990433 -2.5306969895547065 0.2832769472216283 2.0480695587227755
Ni 4.323303363172447 1.4013191075486724 1.9153444514672955 -1.5008704146570473 2.303359276702859 0.21975321563636996
Ni 7.30899447959005 0.8913841706600577 5.476149021871269 -0.022519264148438637 0.45870511568837774 0.4734434503398169
Ni 7.428869092323939 4.891722496517323 12.778147801929606 -0.06733847734565822 -0.6095651078974599 -0.7049193537297537
Ni 6.147554422261866 7.558944221342138 8.368954237003942 0.297400531107204 0.0017789462772937106 0.32972752537468375
Ni 0.3695563591035996 5.8938583090744485 5.220053932717714 0.4838183658162377 -0.4798827782072574 0.2668054319291663
Ni 8.580989587046913 5.726551295618516 8.915739929949122 0.5834198169606597 -0.4308538978040644 1.7624115128634807
Ni 4.053638805401773 5.052528999141163 9.482789412152913 -0.9065699462281419 -1.132869961844094 -0.2099889371607545
Ni 2.222256658109959 1.4818197274251244 12.426789163877217 0.2743837584970565 0.492184735503062 0.9143526754973543
Ni 0.3003542019915146 6.465328324107995 2.965783417909278 -0.8616692290607095 -0.4048641586085221 -1.1095377148760568
Ni 5.007748732653041 8.749214646968433 1.109398877884958 1.46820454899291 -3.1137023446857666 0.2483030022496046
P 4.163674556519614 1.0848898192127472 11.653333161980068 1.4571287507947228 -0.7924649021509061 -0.6648296847977195
P 8.78337710332425 3.0537656528204407 5.406428493068009 0.43728731213423394 -0.6343536276960494 0.26650512707992813
P 7.427617210779956 7.476950616809529 10.585467077126173 0.16195173124686948 0.4373958126876403 0.11792467493364207
P 3.6617627893484404 3.6165374094224574 3.992714830914237 -1.0420490851057795 0.05097751948913156 -0.3735015851368406
P 6.6933098630623284 0.40584886872351317 7.687695137882702 0.6468039376442603 -0.9449228349747275 0.06527619549999081
P 3.6417790506278145 0.7634836062497407 6.121333531493215 -0.5116680410386543 0.042734819864365114 1.784115994420108
P 1.7706334362204352 7.0463126388758175 12.624292487493694 -0.38834764901073765 1.3280920251083193 0.678555004803612
P 5.674389564619203 2.9155115643815486 2.3938886904704386 1.2756695456425449 0.8658200180042895 -0.1611642023485676
