# total energy = -340862.78212079004 ev
CRYSTAL
PRIMVEC
9.39060166973021 0.00000000000000 0.00000000000000

0.00000000000000 9.39060166973021 0.00000000000000

0.00000000000000 0.00000000000000 13.74409476021243

PRIMCOORD
 96 1
Ni 5.0784466629151845 3.539308301586111 6.669569515834633 0.8670163523052358 0.9400747628538068 -0.839942121796263
Ni 0.4269812580155927 2.715348757235847 4.880748208391209 -0.4564057781312398 -0.1847083082170948 -0.48821058134666245
Ni 0.5482946821023383 2.7917788625601094 12.596462655480419 -1.153946322898419 1.8497179486906339 -1.285975041333611
Ni 2.7327589323521 2.792107533611387 5.43020920319551 -0.6074547464226765 1.7031707249242927 0.16080347657503918
Ni 1.0572878189530357 8.562002963603133 12.409969066624571 -0.12901615686111328 0.3870692965189463 -0.33308487188269087
Ni 8.546893485845825 0.4026520877398708 4.928852503456213 0.17185459218287824 0.17885776297358874 1.3955102066519773
Ni 7.560354458330679 4.239837780279401 10.04638284966905 -1.9434176896386401 0.6296623928679672 0.5911472675119045
Ni 5.354680595611894 4.611339364839318 1.3233874145486337 0.5016816192499037 0.43524868443765036 -1.461995591968721
Ni 3.0249850593438357 4.92814069586516 8.171331405212406 -0.8360242747990956 0.36749214571796707 -0.41303512445508866
Ni 7.730512156877877 -0.027336979924986075 13.09589522097952 1.4440202384372225 0.6042727491502691 0.9045050932793132
Ni 0.1475676676628083 5.640220614360495 12.19454397371497 -0.2352924489225496 0.010567748213517284 -0.36135826490608736
Ni 5.499239514565292 2.6242505324231336 10.09661787220648 0.6730857541589247 0.3105944040896586 0.12388886293687695
Ni 3.9580070491095056 2.7068127005040914 8.395071875719335 -1.8518982441714043 -0.9314592532706539 0.7221262045263434
Ni 8.328195768325642 2.0270834040559476 3.0243051797977643 -1.2311102709749315 0.513093203520955 0.47469892001347275
Ni 3.67865543672639 9.249648537086337 12.023072530022807 -0.13897558206667035 2.6211756524622536 1.684310654794996
Ni 6.860792211588292 7.759491552999106 4.642975362115016 -0.9110585781271149 0.16959922048979822 1.7097144395800814
Ni 4.7352389605695455 2.869598776901204 4.323053534222328 1.5543347051237748 -0.0703834348195691 -0.8227105884093251
Ni 3.2663141263948536 7.878592551380679 13.668776375837723 -1.1110220127310673 -0.4028417288618546 0.9008186455666615
Ni 5.8642897559187 3.9612655878178873 12.153682649559979 -1.5826404940470034 0.6772000334376144 0.5420759639065503
Ni 6.447737215545409 8.789574799507813 11.39786788286134 -2.3564247890692704 0.8255359736732621 -1.873543847465638
Ni 8.130213717637421 8.626544567472608 3.008485772569695 1.0487087565141424 0.5228525969005641 -1.3541912932985323
Ni 1.6652165765992002 4.9403954307770865 0.6109788250020213 -1.6864446704188631 0.1578850173766636 0.32804113881119634
Ni 6.083982877194181 0.7390159197377622 4.110871955058764 0.41914920777262654 0.9351012208986155 0.7043799362865159
Ni 7.890189944190049 7.103407791040026 0.8923231230160256 -0.10544119775465068 1.4312752800667288 -1.0190623944026191
P 4.731576625998165 2.748694783038336 1.9594954890712015 -1.1344807579746397 -1.2425550224767632 0.8880996553380964
P 3.1777607545791753 5.0155296330991685 5.594299634136122 0.43014298777996884 -2.28996511478414 -1.4294945340172218
P 4.746291698493942 1.9505218303111738 12.2114489344724 0.2468403016611491 -0.39565420997447986 -0.06382352221386428
P 4.721462948220277 8.198060813222602 10.029409337520923 1.5598363516682945 -2.517609560243129 -1.6575603832843453
P 9.007183207258045 6.80150934453926 10.217978249300552 -0.7447765949360077 -0.6607030642238556 0.7267747590419484
P 2.698163956554756 8.728000625701302 2.727570625042645 -1.3257723758362072 -1.7578205510586886 -0.5452039680125708
P 7.089115295610179 2.981234247118041 5.036729854966727 -1.2542491709852397 -1.3902790401600251 -1.0457345043771669
P 1.4611963691689338 0.9168419834413419 5.736743789639584 0.7564023521003941 1.0019092796621003 -1.2419430999243772
Ni 7.496094572505156 1.45460416694045 8.896483980007277 0.3760480057077782 -0.2328851250326376 0.5884211268299931
Ni 6.72713578093585 8.003055583198812 8.787341714479417 0.49485585457732195 1.5735904680295933 -0.016906545947351526
Ni 4.037761427352406 8.453672985102003 7.798921749490818 1.276249329405415 1.507851731070887 1.2111993909836174
Ni 3.877623500568445 1.0682090884569206 6.282507704647084 0.7927196984741897 -1.2956958681658008 0.46413271446185234
Ni 8.413499992034403 3.3170703273135955 6.6861448664806415 -1.4816642740422419 -0.5829079103212477 2.4150791083773697
Ni 1.8590479814398573 5.9353578278064045 10.410134370839838 -1.0833464011926697 -0.3345342027347077 0.23673329513413421
Ni 6.420786189340637 0.7724455218932903 6.447877135507239 0.5133976221352513 -0.003384600201516752 0.9698910748842908
Ni 0.2068984267793122 3.5428955113457703 10.17552240101679 2.610705606168865 -0.795157875602037 0.35034520162503535
Ni 5.112619061646601 6.2268139254780035 8.15501711328713 -0.16440764898652976 -0.7897706431481946 -0.7020278911145715
Ni 2.2209899337083256 3.197903594721766 2.444703171471005 0.093055165385472 0.19213082593341102 0.44076652893208607
Ni 0.4918684360189828 2.0655191358525085 1.3056175793962683 -0.8961960591929856 1.2040460677682878 -1.3807263634745834
Ni 3.7901030949139263 5.355807467787703 13.234669529430429 0.217170028290226 0.5810127501810639 -0.4079767360955748
Ni 9.345545359247705 1.388653972851213 7.18845001696791 0.22427167233201373 -1.024254737236836 0.9463683091720024
Ni 0.02097954273312885 8.78873903597742 9.164287030708639 -1.4520616206844605 -0.10874043733121272 -0.2978242489081838
Ni 7.842485688747457 7.341882115245659 12.245837317037514 0.428585670595178 -2.6916089666831513 -0.8327875130293528
Ni 7.150219939343435 1.8376749725053418 11.741057743064196 0.4802057087643149 -0.15839486713354656 -0.5473143294873541
Ni 3.897907199733012 7.0627277054933115 3.8932072036997405 1.0173479828146739 1.2241433527387948 -0.19713187869242824
Ni 5.526744586256503 7.889682851710935 0.4099006930107639 0.2694228149473553 -1.5196476952645506 -2.7484809972798474
Ni 8.312288089443802 4.802729213299055 0.41823015651028733 -0.1623919041080816 0.20629066237356083 0.8455152450086664
Ni 4.010096715436289 4.876191888560354 10.556371390275046 -0.07325021484440288 -0.9586396703401878 -0.096054357223112
Ni 7.2518074659926395 6.428101467881933 7.114767601632329 0.13551230610841825 -0.6200739778485836 -0.7864176675155617
Ni 1.489555985593467 1.4009838325748591 9.912721723715874 -0.6305535372236689 -0.13322916650119637 -1.3218290749177428
Ni 1.8237674917355624 8.294737055305573 5.167793540554661 0.02803093799528721 0.5976992096978094 -1.4531733656914005
Ni 2.752591882646343 1.0188614777579401 1.366908157038534 0.8470957021219089 -0.039622242377312406 -0.6073927828364895
P 1.593650802833847 3.1617028260738937 8.17104311374743 -0.7046838406801799 -0.0695784224197705 0.7399159244095966
P 9.17021343929325 4.303374589792113 2.3393960275814836 0.528480998830935 -1.8548282733340056 0.47191261551758723
P 7.904304018192059 3.7939344603116774 12.375402262631622 1.2806454015905817 -0.06320260080041372 -0.5916560888275229
P 9.002816577576784 6.9229016496783125 4.269286706473882 -0.976365626865041 0.9168399606955823 1.6001031696081411
P 5.394393449207706 6.512062835581188 2.1463327739406695 -0.907218121335102 1.317901971949195 1.052805552291335
P 1.6028160298637624 6.915633324144343 8.621931904032962 0.01889503713229004 -0.05527023332721448 -3.3895809425607943
P 7.631103249768571 0.7877700444241496 1.2120083077517931 -0.16786475429719477 -0.3432507566720992 2.419831278350374
P 9.156240224313215 0.5757903631920842 11.018420910401822 -1.0211961529161702 0.5276595313709042 0.5380231339934154
Ni 5.520556179891017 5.884122706212944 5.426869905314528 -0.6056035521465505 -0.4778274383401254 0.13521148703854777
Ni 0.9306649487979355 4.736563035376122 6.201995504865951 2.861766116558949 -1.3915977589714486 0.3766069635350417
Ni 7.357958824953872 6.0551161682905335 2.8858201018719787 -0.4005246506929037 -1.2179480225613606 0.804027667287841
Ni 8.294690102298247 4.774510455896498 5.10151937071488 -0.9593248693326702 2.5566892998534096 -2.3033721322186653
Ni 3.7189411170115716 4.75951366535677 3.2437297298713426 0.21208824289194442 0.6198238095109906 0.2988868858447433
Ni 5.870712927320813 6.283091800058211 10.334707181752046 1.1886451598321852 0.18465200105786264 0.22465810913715503
Ni 0.21550209584161586 6.442271885492734 2.3859471171641635 1.0998641963420348 -0.4202547821319794 -2.183436597502582
Ni 2.3156659776792337 8.51311549237594 9.797367575318868 0.5464908051447943 -0.009402781371138645 1.110116213087346
Ni 3.0163363153944993 2.699140579107124 10.971278212926842 0.26168302310093644 0.653619417904197 0.9094485533275176
Ni 1.1401129238750163 1.0084285195302394 3.236513991705577 0.3924148771015758 -1.400224581408511 1.511910988741925
Ni 9.136651429657064 4.942405019490612 8.248147464256885 -0.03911882037833263 1.0937930504472906 0.7332462256989049
Ni 3.5902992675414795 0.8122936001501986 3.770705868527663 0.9281867531669693 0.7332891631216983 1.1643996570212591
Ni 1.6747386464847882 6.183560815129859 4.206407239063727 0.4958626985752815 -1.3716552544112506 0.5036603402428294
Ni 3.351383585066987 6.848950663140831 6.422037956515932 -0.4534487523854448 0.6094368098497117 0.07923137212850226
Ni 5.87455368332003 8.724751477594385 2.387829932757912 -0.10831877641276184 -0.37015889391685286 1.0063907124722218
Ni 4.125112802180553 0.6879094493843728 10.06536407241041 -1.2848859220344904 3.2161101549307323 -1.2671234558447468
Ni 5.285481253415741 0.9158400062650183 0.7029419242096683 -0.3100331322695499 0.5946596515405371 -0.9773439316179103
Ni 1.6269968286363359 8.995726673470651 7.430002580333797 0.5677957372701576 -0.9360353026771104 0.5058015549555483
Ni 2.539077777134884 6.747691807542903 1.8225626775675932 0.6966560852796969 0.13370379214476974 0.8738313183445401
Ni 0.30845402538353545 9.01392565910997 1.2451430450213181 0.5047054936778921 -0.18079148966119188 -0.8462189559439104
Ni 6.911191569651361 2.7611467205810283 0.8073917061854283 0.16632954859959095 0.5096479252848319 -0.370267137359943
Ni 3.666860841286254 7.13983393412306 11.380124341393078 -0.26448835376021546 -2.2738255289098 1.414402672681106
Ni 9.438587438563689 6.757861828929581 6.38055873078454 0.43596627932996523 1.7746455930358276 0.4678387025585297
Ni 2.930036687930441 3.162688839227727 13.646566664312669 0.9581796999846337 -1.8796062516096341 -0.24736557803699977
P 0.9049365789039172 7.054679960037739 0.2668686858555879 -0.3763331410483648 -0.5928233696627468 -0.39855672833325556
P 5.6456389914058445 6.238505224302025 12.426173488512708 0.048359622250310264 0.22875259092150282 0.9373987586835404
P 5.489717444679704 0.8011028203842662 8.510906822911355 0.5372823991726489 1.223533229958622 -1.8634692368384553
P 1.9497424103895724 4.444515329812222 11.95460002038005 1.6239480945465385 -0.5108432311445138 0.7294121966647954
P 8.236947293889488 8.608251675818638 6.936493606238865 -0.3965250426152074 0.5640784363195704 0.6810104083226401
P 4.810730005747301 8.54758839035424 5.414568217395277 0.029782887689387416 0.1016346795243669 0.12815432308145025
P 6.817783256878238 4.443275770418833 8.036350899753389 -0.45951835561829246 0.23837982959862175 -0.42904666939199654
P 1.5612156653734708 1.2046169653386312 13.279654266688736 1.3133997132034672 -2.60632007550666 0.7567664203080321
