# total energy = -381163.60832167015 ev
CRYSTAL
PRIMVEC
9.31817158895884 0.00000000000000 0.00000000000000

0.00000000000000 9.31817158895884 0.00000000000000

0.00000000000000 0.00000000000000 13.63808601566494

PRIMCOORD
 96 1
Ni 8.96257133633705 6.904196593786311 3.665508649039351 -0.4141964917530415 -1.0986897164179594 0.2978895549284805
Ni 0.5498792711602721 1.6148950114418734 3.640004813936606 0.3466641532290223 2.575484578183042 -0.26633414871970257
Ni 2.027876367581325 3.3515039776196116 3.252928906086939 0.3895025885507873 1.5930094959861532 -2.3230670395444313
Ni 1.227631808347207 8.375424038690321 0.5191367601003606 -1.3333576443826327 0.5130736631369294 -0.1363384015541394
Ni 2.4418734044026182 7.949518378828725 8.379757920205224 -1.1071458176051125 -0.6939070617796501 0.9537298917433962
Ni 7.649100533117175 1.5945813978050503 8.623743056326257 0.7934941147463689 -0.7264135190477876 0.49980651371437795
Ni 0.08642697148756835 6.081243650867358 1.268463103574361 0.8118731314741889 0.8918547515051544 1.0320055848268486
Ni 7.8917363980204955 6.6361128028086025 13.022626271231866 0.1667892618448289 4.123984936013226 0.6774607432981686
Ni 2.8734538306425743 5.727982455185888 2.510853031773862 -1.382617152739393 -1.4598327799894473 1.7535990567781736
Ni 4.61085484138872 1.2987480924188743 13.307798656727266 0.08934763462689774 0.7961307810382675 -1.115036533207099
Ni 6.725334293896943 5.038325954044347 2.903166683763555 0.2322608611850774 0.6044133884931914 0.5911069011922723
Ni 7.620903746481841 0.9724723210916427 10.851742995464445 2.676506049603442 -0.7367020454579892 1.7080193112658455
Ni 0.19258610271703433 4.727108347688264 10.943677006245299 -0.46141120176563116 -0.17314091509446955 -0.5801619721449944
Ni 7.219504877383937 1.6975471916981222 13.482352234164495 0.6045537707257975 1.925650081242574 -1.0336829725292715
Ni 7.946331564212307 1.540824867038613 2.1612408320099052 0.8265428176712216 -2.9163282680755453 1.2326079385663804
Ni 5.67591251344159 4.563965802938952 6.130823777215436 -0.03139548359214593 1.3087395887236364 1.4864647807546787
Ni 8.733577274353136 7.5324090727621575 6.00734496081773 -0.09859666402899149 1.1479209426399457 -1.2298386033513593
Ni 8.593152431460052 7.354236317555875 10.873277289553755 -0.4358876035732299 -1.4688085011254963 -0.5999710364511216
Ni 5.883679780992162 8.01295648967253 6.1359524987501635 -0.9401374977709421 1.0589057516518021 0.8511544455723147
Ni 0.674232132034645 1.56449302237693 1.1944237091366976 0.2927771734025797 -0.18280132100236907 -0.8894834230595003
Ni 6.802414207660155 5.590427609081858 9.563953072603784 0.4127813565730697 1.4631788136435444 -2.062881684034944
Ni 3.0946951740274797 4.007288925747459 6.802963979772344 -0.07191966895843742 0.8157647532191112 -0.3480713179891941
Ni 1.1760930023723128 6.371840143930646 12.470774343187689 0.21113153540562996 0.24547761698566756 -0.2864347761243196
Ni 1.8333968124372257 1.2291133975987 12.736812795544623 0.730963086091683 1.5165610859194267 1.114972512738383
P 7.010461020352517 0.43251690246495633 6.729276812213336 -0.07044025619943352 0.5713212339249129 0.25069464241023276
Ni 0.06486472288407802 8.965199060669885 2.888192382334943 -0.29096120323976343 -0.9734533383142527 -1.783938331191663
P 2.06950995736542 4.363093982219229 13.628702502246412 -0.6729106620336411 0.7730998673607331 0.11327483486645654
Ni 7.295839337435705 3.6639329462567884 10.540698707096274 2.1430597363474315 -1.7918910103798364 1.0590962703960534
P 2.9744162176861426 1.8999565106976972 7.165696164857698 0.45848760036093295 -1.2025414581983032 -0.25991076169186206
P 4.170841470038065 8.688179143326254 0.43845537309373955 -0.48120638211468736 -1.381628820684195 0.44775838686888697
P 0.1577706189412258 4.798541449587296 3.1636263469074795 0.1048578144473549 0.8019268188947544 0.6850249287986718
Ni 0.6950023360697273 4.013522782409401 5.064298493168161 2.42616467676757 -0.4368517672587121 -0.20647861001465084
Ni 0.9861607148680158 0.32243202562760337 5.312852328723202 2.310283514626518 -0.7983874382829282 -1.4998609995559267
Ni 4.77797624532286 4.23888275755003 10.471527125394331 -0.8706230958198876 1.0336883718459102 1.0501105219576754
Ni 7.188503321159297 2.851947491067442 6.811746356310282 -2.3380470578930312 0.30553652995077707 -1.2901294298216168
Ni 1.0924903686339744 1.718019214248627 10.56166086546205 -0.6094445231591956 1.2179451943478832 0.9577469833225892
Ni 4.92099153986321 7.058524148397808 2.161527831688811 -0.8035859517647321 0.1195490979109425 0.36325625325974853
Ni 7.130292704466989 7.532269300191262 1.7816250521775057 1.6294643963790776 0.3022797135763761 -1.0132205909098615
Ni 3.6374041123008087 9.069189853416193 6.762744888405712 0.14836550792200254 0.6965403856374391 -0.5286018406795153
Ni 5.171957849991907 0.5519628142837554 2.0537594522597673 0.519405518892228 -2.0140080982626927 -1.1605895392465495
Ni 4.155680805181592 6.515004529213285 6.900366825343771 -0.6181559348902645 -0.4454119981238974 0.24981763912191818
Ni 4.430771861046865 4.483261120503848 1.4591930265499022 0.796499477231596 0.17468974763882816 1.3623910555005052
Ni 4.807132803611677 2.8404115948828608 5.133894051668486 0.6831089427228816 -1.7022263587331523 -0.37795910668756194
Ni 7.927751130454588 0.5143500154557569 4.645581802536295 -0.7396325888412228 0.4216362358605384 0.590970375614408
Ni 6.223839627695021 8.211191267888024 3.9418157262714155 1.0156078601951153 -0.1314355649358833 -1.702699698825145
Ni 5.203630314556844 6.751266764883768 13.484507527207702 -0.13628440838775238 1.1575882905263806 0.08754092043546215
Ni 8.882845061898214 7.378500835863346 8.259456600252543 1.1697272398817595 -0.8997105001041472 0.6859263575670187
Ni 2.4743379135359636 0.3086374046973497 2.0957508598253547 1.381909328039091 1.7561017685953695 -0.23097608093538285
Ni 3.439700469854718 2.7346689859146633 9.14500435950423 -0.6219835361664707 -0.20125104306712435 0.18650473799588524
Ni 2.8539881706025176 8.673773250352617 11.919959527619554 -0.17539037325027856 -0.8616077796951549 -0.05534016733320147
Ni 8.752139071768068 4.700896331559648 13.186788223931575 1.0182542966790271 -2.1691165813354836 -1.232527463037432
Ni 1.0101363698623032 5.60981872375077 7.249747002640041 -0.09635543340329857 -0.2832034136712155 -0.47883505366903345
Ni 4.342677868697082 4.868921598118912 3.974697689483169 1.168654061422239 -0.6485751706120702 0.3123170432077202
Ni 1.7857064112476562 7.617418750380845 6.079217880406511 -0.00799818771412816 0.7924895847412545 0.7168557001560234
Ni 2.4605656562170526 4.035700030324832 11.11351279350623 -0.42415951650302436 -0.5532715755120536 0.5607992513476665
Ni 6.341174041876158 9.00799742187811 12.99925070647529 -0.5804890164671099 -2.1605589215734597 -0.9211928383476393
P 6.577846277087934 6.102097718444978 5.001808972172169 -1.6733564697763377 1.9687751945668222 -1.6887640625806595
Ni 5.941387216429248 3.159279419952627 8.873716049384456 -0.4645888281626644 1.3603305734270508 -2.005015407845779
P 3.4289286637243657 1.491522422198048 11.192476841525114 -0.30963152595575705 0.2873431468712019 0.3481566786141488
Ni 4.207117111271162 0.3392429386377835 4.36285077794587 -0.22311030503406093 0.018552566191206758 0.17024302472138425
P 6.010826229650169 3.6638770372284304 12.238244966977257 0.050807312459854426 -3.1527414608660993 1.8221449241683716
P 8.384304256027887 4.784126238442265 7.9240956118170995 0.1499364519535482 -0.5060553228375672 0.4768118525914176
P 8.253896447382317 9.192664942545342 0.3834567300806104 1.564856430590705 -0.8683728663331303 0.9703407608271999
Ni 0.2408812532300119 9.152540896526919 11.96139184490156 -0.6672650337120896 -0.7474963078600158 0.3820836703788968
Ni 5.671635472772186 1.6206909140483432 10.730064449779874 -3.120171754460194 1.2848306433165229 0.09092526352666276
Ni 7.053371199617458 6.5326531458316985 7.37656824711643 -1.341288212083619 -1.2042350438506422 0.12540607091235176
Ni 7.917352051179957 3.1228267334630617 4.263442661890661 -0.7107467590448081 -0.4318774539725724 -0.31868746551043825
Ni 6.413697369828174 5.586765567724394 11.757079755303526 -0.2825927766704101 1.3422490333349915 -0.06506099416539117
Ni 6.777935371410643 8.524952735034404 9.284195476504877 0.26846147947535054 0.6712633562382052 -1.0674006764966908
Ni 4.260463642496306 2.4745988223349684 2.682011067555466 -1.2033801520495147 0.8561668111852416 2.0632107852395887
Ni 4.181175322112944 7.231776909108567 4.5083558878824395 0.008930469720410427 0.40826855630438075 -0.0067576304388077164
Ni 4.776280338129327 7.411897162135995 9.139781524438432 -0.1487177490550987 -1.5471140190056194 0.0035262679857036043
Ni 0.88982573173823 3.4971469964927984 8.93676466066403 -0.16250708952970722 0.5710083306701843 -0.4806080864090561
Ni 8.905944808781555 3.67430407101724 1.540340322126175 -0.747330728816429 -0.8708251845283647 0.35138238464029803
Ni 6.334027004417697 2.7398126165236207 1.7373283290092807 -2.020730504588191 3.0629438831859765 -0.34862847604424474
Ni 9.119321615510737 0.33715846369716085 6.99554728703796 -1.2446147332192694 -0.03407688707905099 2.448189774888409
Ni 9.290235515201845 2.8047136802761314 6.810628175743117 2.395440765321152 -0.38485634802802754 0.49815432282293565
Ni 2.2439274895003085 5.65803094253835 9.265415633879346 0.7548208665458871 -0.4042126410674522 0.5108278045255461
Ni 3.956085573942714 6.565509018163552 11.556136184664076 -0.4365527479610546 -0.42225612883272445 -0.9584532653609945
Ni 2.1036983282064767 7.722835223350286 3.028541748039744 -0.6683724078436554 -0.6599702998228891 1.227632596838976
Ni 2.4735365507961617 5.924027463124018 4.98375221964674 -1.2000186917764495 -2.2767627571612534 -0.32310847739626936
Ni 2.9774259870460944 2.4740863229083514 0.8190383791167369 -1.0881065415854745 1.2341076630403582 0.05979871732518733
Ni 8.320381600271645 5.281250682260851 5.649549542936407 -0.2092590009732654 -1.1189862618834663 0.7044012764427546
Ni 1.5577839389739425 0.9620825599884053 8.55218415911342 1.0209043327073644 0.21797658335192138 -1.7682828840425935
Ni 5.288770446575033 1.2972199123104162 7.8505733758917495 -0.5017718649708649 -1.0117218948771478 -0.6217274542916067
Ni 6.600918069457097 5.078617727147844 0.49442403774888405 -0.008901416254687896 -1.658689354682466 0.9932765436877669
Ni 2.657393390552198 2.1714787069194363 4.986820693486467 -1.1415325226150985 -1.0438761110121895 1.1786093728627378
Ni 3.866705673940692 0.1559600982395585 9.590779156227201 -0.28162115678576016 0.35668837023424377 -0.48934880871616365
P 6.271157302028869 7.695477072140325 11.108303003880382 -0.6482661240120836 -0.5014815874239557 0.7957163192086684
Ni 4.080921116095246 4.426159366207311 12.929982215790863 0.4848149254015521 0.3887906500854272 -1.352767159257496
P 4.3937787206165035 4.899904518000764 8.405301823444958 0.2991103147094591 0.3117544858360308 -0.24954587351777022
Ni 2.8158954859477774 6.6538918738265185 0.5994528747883745 0.8555451184408426 0.5108015792733009 -1.9127953367670927
P 0.24338504588332124 2.818784119079619 12.439079515011407 -0.08813895903077724 -0.5022272073407286 -0.643112347725286
P 1.5285062444570165 7.36587471362578 10.468662719508114 0.07076138698427814 0.5223774570363583 0.018605530916329247
P 5.991658751094689 1.514212169540096 3.8250469250938366 1.3251275431633567 0.2210297683559484 0.21070318961895973
Ni 9.076476663445549 9.152019078928909 9.478483077318279 1.598353533906886 1.1597888977221251 0.5845765562729222
