# total energy = -340886.8522581491 ev
CRYSTAL
PRIMVEC
9.09773511651488 0.00000000000000 0.00000000000000
0.00000000000000 9.09773511651488 0.00000000000000
0.00000000000000 0.00000000000000 13.31545495618107
PRIMCOORD
 96 1
Ni 6.494309112844773 2.6547191367342515 11.846959809053716 -0.7189588625419553 -0.5677314596911254 -0.07702176607169317
Ni 5.068430169797403 0.36809163761661 6.287970658544019 -1.3734604259407894 -0.426814180517052 0.7358129579848166
Ni 2.9875324864944037 1.7322269810571451 5.0937873773981766 0.3252741175890204 -0.09586743802328651 -0.16580118689994672
Ni 3.388178550043077 4.728738932212127 5.071896406915621 -0.48430841807877884 -0.8223532050699063 -0.14141915851115644
Ni 3.6795790090889926 2.8399399280460154 2.9358846436594472 1.414096711404913 1.0414890988372514 0.639915180944227
Ni 5.42248673129256 4.837711604658334 3.23533568860014 -1.4866966942598268 -0.6709165144217477 -1.8563922753870157
Ni 5.171443825675546 3.4266164813408917 1.0649863433090938 -0.4887443423629453 -0.1412440663858729 -1.1340231016119309
Ni 6.059664812784873 8.169256752966762 12.538445001385329 -1.311403765819361 -0.48904721831534487 0.059811829951309896
Ni 2.836937675423938 5.456357599510729 11.035343572030508 -1.154331731262296 1.8163640558205363 1.2694549321914008
Ni 1.0410720365139614 7.755764687289681 11.628440397069022 -0.8496711761585689 -0.9469604342300466 0.8001954380259445
Ni 1.0793098176369704 0.32064330935847496 4.685495577171944 -1.1549225707687596 -0.666690392155542 0.6125442451304418
Ni 0.019593792339905956 2.685706022888182 1.3976168285913557 -0.7279548953929785 1.5504857636913296 0.17922260251217523
Ni 1.774813479614558 1.6019929014054974 2.8481488145335936 -1.3732506239228286 -0.9376288724164755 -0.2307822197570219
Ni 2.08710233872196 6.967273073644648 0.6384508546493691 -0.13020374941131124 0.24809937087923079 -1.213166284902001
Ni 7.600812061049594 4.157437551436376 3.8841579613985053 1.4643345245145427 0.2043623350025964 1.1408887183835126
Ni 7.873716824396466 4.389839197590854 12.865885228725485 0.09041078578408945 0.030147984338290013 0.6538639298148352
Ni 8.024857499580037 0.13795714707856244 7.301117196805047 -0.21205430433021547 -0.049453369535121285 -1.0091273946770942
Ni 6.573341138687167 1.160479811255692 0.7044339988679864 0.8654199543523934 0.6576977017386286 -1.2614390038654597
Ni 2.33725366628757 7.054101858569226 9.340379094880959 -1.3086472861201461 -1.8589528370253405 0.20603432338838065
Ni 0.29097195571712786 5.533997671864705 1.453222186246324 -0.6150096759517989 -1.7074624103211111 1.1906056259926656
Ni 6.270704976646505 2.249869919514669 7.32677553944155 2.387353360327327 0.5375323103999259 -1.1435582947958758
Ni 3.2377838891474164 4.878596826729902 0.10681832874648457 0.2698863848473352 -0.26005834301331987 1.1565925022720145
Ni 6.106399878601884 5.863963430501492 5.107275679633002 1.121998566347229 -0.177550614126391 1.2140016363191029
Ni 5.373313472437013 3.3462379906861726 9.646674366026467 0.08259360373251583 -0.7297374412146981 0.19838297749070993
P 0.6556264689682196 5.791918465306844 12.686658935149135 -0.4372459173733373 0.5358533800356061 -1.4060165054999398
P 4.018842653119003 6.8223916402913485 12.73672559160313 0.29101313952362134 -0.5429167146402908 -0.6606038196418301
P 2.443178597435606 8.783954330734364 1.7207565564937646 0.591110243626382 1.9243588732349761 -0.6952556053877446
P 6.494345503785646 7.8976438680209045 5.920331178367764 -0.16304213609757082 -0.21965808481940235 1.6013393560080873
P 4.669485382734574 1.7451639605377351 12.88454013479085 -0.2431674807952522 0.135093987624077 0.46981048157291994
P 4.499839914116741 6.246878008109469 8.450733402436427 -1.0608705886876568 1.1291413480395973 0.8706516350649779
P 5.190658242456844 1.098123934068658 4.339906277844569 -1.0964687975072407 0.7664803051616863 -2.7909713052335743
P -0.2738272736980199 5.979240833454061 3.775011522209628 2.8276025833033627 -0.07524307690471559 1.8013123036937362
Ni 0.9872316394913659 7.603423111057279 2.715180865448811 -1.1444612662261193 0.08611858616663878 0.6955530820235053
Ni 1.730125404221691 6.722771439649676 4.937756669534706 0.7015344964179209 0.5558146536488815 -0.1013397739917674
Ni 6.532401330204288 6.227199606832033 9.563332743011108 -1.1083308390521491 -0.5572431585652919 -0.3828426600321084
Ni 8.444181213532122 2.7036467567389013 10.12537808797564 2.7764885382363667 0.37827458104545175 2.6867051016236307
Ni 2.4841729923297957 5.569742673537867 7.226124565399631 -0.944877840669405 -0.0936380344721355 0.620256526173035
Ni 0.6281176469882904 0.6965499015277057 9.398926660105563 -1.0235466554262178 -0.416812846329966 -0.12012605346033506
Ni 1.393090705320193 1.3598111898912213 11.803258837932049 -0.5353412162858779 0.3398471303071889 -1.356701718425212
Ni 4.24727768671825 7.167295880156778 1.6581068224591753 -0.09571651426771903 0.9692948360611888 1.1839066167059353
Ni 5.981851883461748 8.44913038149094 8.329229509500372 -0.8516103021628106 -0.9077541963442303 -0.5947606958947756
Ni 7.273029758865226 0.757358253954087 4.854815346868959 -0.3648709060450361 -0.1174472210765913 -0.14092473537324116
Ni 0.9461280717745554 8.041306204854937 7.3840057526065275 0.12651293082328532 -1.3267769058413215 -0.12217445134893153
Ni 5.27490327057939 4.578326075846029 7.387467440857136 -0.16747960304363416 0.5302113512584804 -0.14530512382912394
Ni 8.465715552794116 7.805238171407437 9.431562965654592 0.05972261267161327 -0.6793918988826105 -0.1342969456440784
Ni 4.916880096529003 0.866289076818288 10.872348547857339 -0.11563742156136214 0.8499647961395876 -0.8076012435717124
Ni 8.41332169567125 7.659565235090135 5.187155614397752 1.1921349181529983 -0.5800557855844334 -0.6520970677223995
Ni 7.4965793086521835 6.298398482651369 7.252422478821989 0.15915385678675814 0.18071744189014682 -0.3385052715673138
Ni 2.5101106354375045 5.412333658788807 2.7378970005156784 0.5018667386775164 1.0107453898964913 0.03414399287156055
Ni 3.350723174148852 4.338091279668494 9.127145467058165 -0.3925840556895884 0.0031701701978655078 -0.48379214056399256
Ni 1.1141996321996017 3.822158715432033 4.026766780494245 0.030348530384870315 -0.32327019978511423 -0.6843019345897182
Ni 0.4332923766064433 0.6003513591016799 0.5377116325758312 0.23492786649427927 -2.365838883294319 0.7262921629785749
Ni 0.9935818586738214 3.7335012857285537 8.20500994260162 0.27388419315281864 0.01730172450324117 0.5246672815117996
Ni 5.098643748457768 3.125208513554717 5.1537869411636406 1.157901193781109 -0.2446296671630755 -0.5569284555383505
Ni 4.198168112009232 6.722616778150962 6.17344472852049 -0.18111133489445583 2.197751471463357 0.48207875741731165
Ni 8.24578690162409 7.4493984538094695 0.5135016493861001 0.3613798621726422 0.6602430938683016 -0.6780148160294259
P 0.38174551863241113 6.118372498149322 8.312159428910055 0.32421456597625453 -0.7017998342641656 -0.815356462037099
P 8.578718521942081 2.0563701891541455 8.056702302165064 -0.19317237982404797 0.10250731193730732 -1.1882584659167277
P 1.59398689441329 3.2883854924322553 10.516333243969656 0.35087484887626025 0.7907733733810962 -0.4057858990918431
P 4.0934349841748086 6.456044038516109 3.912333647369945 -0.6389936975712222 -0.045847654461733944 -0.0856241630287235
P 7.136772978498986 4.290218996949181 10.550221397884739 -0.9985581038016803 2.28916550170098 2.0397790365792097
P 6.486994533729165 8.281513707826816 10.438597645395888 1.692702221292801 -0.04028173033818224 -0.3839986280134225
P 2.613260757343923 8.581766263240251 6.123045094957501 0.359881937470877 0.20827246869028002 -0.43132929477858617
P 7.077191910553569 4.313609274195732 1.7926468601897 -0.2680616729337706 0.8185538859284741 -1.8455409344948088
Ni 2.603435203308032 1.7994501465860329 0.5740043179091426 1.1049087007444778 0.6222573586531477 0.04527121313297365
Ni 1.580149239146077 1.2118365265636593 7.124593840362091 -0.15625545219304057 1.3205116416579001 -0.13724111587406687
Ni 7.141185380079919 1.1047015966315739 9.471029850805609 -1.9291861194202904 -1.0344956982385538 -0.0229910615785346
Ni 2.6551285348190805 1.8371329658607185 9.350925189546148 1.4206946763374049 0.06848390380401108 0.045449133471734626
Ni 6.481144689983723 2.4039764563794446 2.8369112919918043 -0.8473533266586697 -1.4462792096747283 0.2004707132576741
Ni 4.522857184219338 7.601285143280951 10.67179170428789 -1.6495218292505849 -1.4838666810101993 -0.583114627015415
Ni 7.789289841569551 6.544710565954806 11.664325503864548 -0.10167530295431522 -0.3161305034165394 -0.351326334591382
Ni 7.646373519023429 4.159566421477486 8.517470748904652 -0.1319940085425146 0.47368153449255196 -2.366048428201964
Ni 3.267942881396471 9.021723640667707 12.527926199925794 0.19387017722202096 -1.105822470807999 0.12670113557469145
Ni 0.24691890224250618 5.1264009386091605 10.246216026693707 0.35280266202659244 0.116728854853328 0.986166672115863
Ni 8.710344555082147 2.5176981466096646 5.666045839918905 0.11793238824312592 0.221095074376245 0.6749351486628377
Ni 3.488035291800429 3.379726754025168 11.641196331618765 0.9712753568263273 -2.7743815191956926 -0.0377813325138317
Ni 1.1959063921962103 3.6065423907555365 12.698403201542591 -0.38304603429216616 0.6842065466624345 0.18050249766586335
Ni 3.4703220013301697 8.699954941462714 8.368763717892007 0.6414385595672889 1.150806748828173 -1.1107083381453902
Ni 5.821167684034055 7.776134516443719 3.7851445796959013 -1.19573703368196 2.4388553848613608 0.05179281630157532
Ni 3.3780618684801973 8.664783097108312 3.7434542080575026 -0.3089013326579519 -0.3386104296866104 0.9675387726020306
Ni 3.8164635331853036 2.715028023497142 7.138988277024671 -1.275049909780675 0.27498205420268773 0.3643356023668564
Ni 5.191431549950409 5.0574310079183356 11.632022175424513 0.840166064881611 0.4138684189896614 -0.20149169832302072
Ni 7.9633750049739715 9.027209575004413 2.536287548981457 0.45328831554818066 0.7132201602859652 0.2330442763183212
Ni 4.649215628667939 0.6571958282933967 1.9851613058260693 -0.5294603320250688 0.19408229323282705 0.1693084287222568
Ni 5.854847499812637 5.923453521094724 0.5522934825839109 1.0408368099652332 -0.5113150285746098 -0.26432920247453184
Ni 8.098831184640991 0.018613966256882383 11.594445799651885 0.7613944059983467 0.7441281627187314 0.31555791874252104
Ni 0.36684888698577417 5.010623160219578 5.964778163777343 -1.5821404144821334 0.7975227762897878 0.5662199081426055
Ni 7.328152936553618 6.683278171066524 2.560016261978134 -0.2347059802914603 -2.0425198325491407 -0.7663584348718414
P 8.515107157294906 1.9807316185482216 3.3536835771889257 1.2696055988366521 -0.8752312840158605 1.8192915138799766
P 2.0184053400876887 3.6178690711024664 1.782207209026566 -0.153912920102793 -0.24796773039737297 -0.7912924791093597
P 4.8479647522494895 1.4609325168439329 8.580093189733585 -0.838602577049233 -1.3330889641022783 1.0461901038573467
P 8.360636711021394 1.9256994182120137 12.650108783909143 0.40493589238672195 0.8462847761848392 0.25298755220946756
P 6.259260025741736 8.212571070341648 1.3010170760421977 0.35105096944280834 -0.2689330197951304 2.139883652612295
P 1.7625133415992573 3.3760967576730185 6.221526259149827 1.341880080031347 -0.38154476715629126 -0.9916845166102985
P 6.946230012084448 4.1275878821847485 6.118624505414871 1.0669890428805686 -0.048168075064794466 0.17617173150099336
P 2.2631071242574667 8.922048853614724 10.423045067040004 2.364615809520495 0.34888095837468297 -0.2900888279371391
