# total energy = -340858.73474499694 ev
CRYSTAL
PRIMVEC
9.36690359199603 0.00000000000000 0.00000000000000
0.00000000000000 9.36690359199603 0.00000000000000
0.00000000000000 0.00000000000000 13.70941022801012
PRIMCOORD
 96 1
Ni 1.6192940449143012 5.2005140913640275 12.120255845805769 0.42761790736527 -0.14165132912662054 -0.9446927212417925
Ni 0.32220929730782866 2.413832252312815 8.987354526161047 0.5103158978861341 1.3399119005613827 -0.2192701053523643
Ni 4.891059706309978 3.2397964203571603 -0.14757930860188798 -4.417731672417927 0.33918070036778364 0.1731208604898115
Ni 5.394156083742947 6.319859038361604 10.84729649439584 -2.6487836439875094 4.33485524733767 -1.7843134551428945
Ni 7.614102804190466 5.903294113818707 7.4956470713978245 -0.34302552803517056 0.24513360338268747 2.609669708705183
Ni 8.690275693776229 8.413961412675965 6.987576868300791 -2.1798745911829362 0.34015797667938835 -1.249910691510886
Ni 1.520285876799118 6.687603662789426 0.22299693070022256 0.33098119527612674 0.22684663214804157 0.17731664373871397
Ni 2.6637131322379557 8.28586900974549 2.0538200065774315 1.0145935599979883 -1.7236809290625026 -0.4614381983488246
Ni -0.11111770073006566 2.7969011305756846 0.5532327274648062 1.190738294915788 -0.32977740477601275 -0.3348409353418491
Ni 7.257064550259868 2.5388523109536236 4.856366569785379 2.925595295199768 0.3096559514357893 -0.05327737126690179
Ni 7.461337977909434 0.5059485994945655 1.292097808277757 0.599378140062129 -0.4909742601347286 -1.360561201380618
Ni 3.5424879012126134 1.5976845989500885 11.384307618687336 -0.4801925961381923 0.4962285665551324 -1.6375543724760637
Ni 0.30710048224919195 5.0102910186976946 8.995785675841319 -0.6417085253992239 -1.8676447083723833 1.5880459813332908
Ni 4.605978003700177 2.59033281161219 9.062578253360613 -0.7664427670555316 -0.6052016887224416 0.18319752799952319
Ni 5.6045179985519145 8.311028512068798 12.77489466863623 -0.29787927051583535 -0.7943289519428384 -0.43768968977897527
Ni 5.639746921946541 0.4989477759515865 10.893620514775561 -0.44172246508745217 0.30722728738963867 -0.3244817035947122
Ni 8.535393947344387 0.9323206718157594 12.877234644263105 -0.1847414754478754 0.5792392032204089 -0.7557212668729694
Ni 3.189112106480977 6.669478704861056 6.412768415723731 -0.037179694374090806 -1.8355586264711161 -2.138815616359097
Ni 1.370836934294128 7.906022346225441 6.552960984365768 0.22944627455441774 0.012619745646539556 -0.7248932257485193
Ni 0.3823279562100868 7.24247091488395 9.406232139134184 -1.5784814775733074 0.7381966277256448 0.022379910357096938
Ni 0.10096210414818473 7.358442544915556 2.2609971742568655 -0.08600828584101962 0.21995761833769217 -0.49551611386914013
Ni 3.383475350415703 1.1053976279508868 5.61925401085833 -0.43832398092886443 -0.3192014290323793 1.1753109046171242
Ni 2.9400555140481863 4.4529134365128344 8.368237810799195 -1.7255100118514413 0.17380914480608775 2.469747703564843
Ni -0.08561255967416859 8.016476870200298 4.547562247821887 2.169147177463103 0.6159010774178166 0.6183346265599737
P 4.822259801408746 8.595014286989908 4.580080389395082 0.192100744026424 0.22130179107041242 0.32001672584482305
P 3.671863569898225 4.358036072762722 10.809883209146488 1.1925110705454947 0.8020846846288574 0.38911435197343314
P 6.3529523077987795 0.9267061499644594 13.13978426093146 -0.3953780734949578 1.191431721438387 -0.4940189604983234
P 2.5371850021622806 1.6386741678878407 9.363718575025917 1.1165838230895608 1.8080120843114154 -0.8167194038228967
P 3.633609136730542 7.747356370851451 -0.052033147954573526 1.3654887205892225 -1.052505247442097 4.898117101293216
P 7.821270604966579 4.345896566057209 10.100585695360252 -0.8467118364199289 -0.3953256229904676 -0.1697848541380431
P 7.327494296339155 7.575361292050032 1.7076988784688043 0.2709935018685849 0.9012611324207188 1.096569841861479
P 7.391179872026489 7.751627678766353 8.563665134951318 -0.6235601366249712 0.5683151001087373 0.13625921157677182
Ni 6.942252296505545 3.284233009717466 13.556125316484959 4.365997991489062 -1.3490084635460122 0.9695874276009431
Ni 5.202228234671982 2.1024670189810455 4.640909059569159 -1.795140884775702 -0.6685192178341648 -0.27540705755524825
Ni 1.8933696361205696 3.2194234056314723 10.824579880458948 -1.3228662579330057 -0.10754641702311155 -0.12165303162782275
Ni 1.903092481768967 9.15931401072984 10.007800897812308 -0.18459569389863048 -0.1981297238293233 2.389550367978646
Ni 8.237357817440047 6.008934049485976 0.4815047285850687 -2.6429030168370162 1.7358540740899266 -1.3419744395173663
Ni 9.114437176913393 4.044188610050582 6.751280808263772 -0.6378557273120369 1.1012996432369806 -0.04175728644244422
Ni 5.618961763474679 4.630294484724493 9.538787871497666 0.51550232718308 -0.3962910722275304 -2.337968382136296
Ni 4.069441781407113 0.27075127721723546 8.36668852498971 0.1506339922412051 -0.07651860118302951 -0.08521947139113711
Ni 2.5023401218038623 8.508398531969936 4.477315156357382 1.011636020031561 1.128059427829328 0.35077663273549914
Ni 1.0573547808115513 9.11567360815192 0.49491345069073417 -0.3576707887521711 1.395597109938829 0.29712850839273985
Ni 6.655362781554568 0.4109953638275435 3.4421449493740237 -1.4983376209328647 -1.345956821203882 1.8723428851790012
Ni 2.37435075480993 6.988131388977462 10.753551589257375 -0.2904112442735644 -2.4013507030476835 1.2300373496257269
Ni 1.2503879244745308 0.3856016889211801 7.933361526951817 1.5072668051016944 1.3015512985053133 -2.475179416103376
Ni 6.152069699151834 8.792965054897019 6.583861461735227 0.19595482766519157 1.8154222607325574 0.40913373251815344
Ni 1.3691134240828513 4.468350093187747 4.921541483100936 0.7960384784347775 0.18924681951739664 0.2756495125833575
Ni 4.488723107913435 6.5131638222209265 1.3746427071139198 -0.03713624273066507 -1.2840148322834468 1.467716296502582
Ni 5.715956047375598 1.9439415471568868 1.998366065529607 -0.16097136961147115 1.297879506080681 -0.8475883254876112
Ni 3.939241825229152 0.8573301805089152 3.2295396612194 -0.8663956880021014 -0.9376147313490885 -0.8653055402617164
Ni 5.902685265102766 3.2839332688111567 11.459558509906538 -0.7555189210541763 -1.5732048025554004 -1.4909600975218709
Ni 9.251212699223508 5.20664941304004 3.379616186246975 1.2909704376656734 1.0880510057571906 -0.9240164238393636
Ni 8.466266200826881 1.593984672137837 7.057481131103704 -0.9430197044147437 -0.28143500891688306 -1.6012658224576746
Ni 6.602289907331235 3.6289444188761086 7.029732616702152 -0.1867937299912138 -0.5064625855783149 0.9607009237445906
Ni 2.8226132801950015 4.939346092935689 2.4847209766548874 -1.133601697803796 1.1805202167322055 0.24794664735145042
Ni 4.686233631364405 7.167282781917008 7.916087083845098 2.2868422528844423 0.15982362916027315 2.5616674697942914
P 0.36111941370806244 4.85552167510572 0.987391506517708 3.0553059070247444 -1.082499479811342 1.6788329195098763
P 7.66578937672212 7.36806235462741 12.434489224934781 1.5700834833175994 -2.048839347009265 5.046554600103734
P 1.7964971219628378 6.657816910224972 4.101416642587623 -0.7186783551870591 -2.240585278799432 -0.8046257058831562
P 4.08585259602753 8.148952983885543 10.116009238370513 1.3142425208197366 0.21932486984969973 -0.15901630276762937
P 7.8047567544096195 5.526557262201615 5.561304726765482 -0.5845755278316577 -0.6884213560747305 -3.2524472987988693
P 7.933148898246404 2.8332728161756138 2.2640957458758346 -0.9054450885950792 -0.3308446696982625 0.9039160535450625
P 3.303716168627549 3.1926902635500407 3.535451483437011 1.0610099424789985 -0.15721858743725828 2.7126387907702574
P 1.700280291037657 0.734715542641236 2.4564113847443374 0.08680918447576016 0.9198052139714933 0.34636436260041636
Ni 7.16142846734066 2.2364137364878687 8.985037154279144 1.0334325470813621 0.9208889339539754 2.7473399416968682
Ni 2.4957926563816755 7.518719627660958 8.581391062798165 0.569290062427497 -0.4820527892753827 -1.7645159608009935
Ni 7.332262050130132 7.250873027163923 4.147055005644161 -2.033462350332562 -0.79734331328913 -1.3077242600852446
Ni 5.424130174373845 4.195941810772823 5.196839455190746 -0.9489592098276302 2.49580352011163 -0.5446707212169201
Ni 7.150235017870685 4.66896106163835 3.5190135047969604 1.0603293714722062 -0.25595049149253335 1.1426522380418385
Ni 5.640561842535569 6.738213041439033 5.833683035089776 0.16642030854118436 -1.7288796996546225 -0.9160969118819707
Ni 3.021154163011408 2.548696926345209 1.577513909336159 1.6749078734238572 -2.803149078246688 0.22408783845598182
Ni 8.91738563172521 0.7938806507852986 3.028956793478763 0.38699319186537223 0.6375687921992375 -1.7803979221385724
Ni 4.066228933567613 5.850624016438227 12.804136267427335 -0.16059830254276858 -1.6901465447504829 -0.8465089763805035
Ni 5.309675982680427 4.364180761342056 2.5621515462771534 -2.906535964575472 -0.45543210136406076 -0.6075758453815729
Ni 8.738271706398953 0.13123031554339784 9.036475503872762 -1.9872244024109456 -0.09692287587099437 1.5910708842025436
Ni 2.7559396623478984 8.591614101083966 12.277050313895993 -1.59364661534952 3.637578754865155 -3.077697130235751
Ni 5.449345878117088 8.607078858468844 1.548628252871296 -0.5430578682038454 0.8366235989459915 0.25098774817061936
Ni 3.1366949154901955 3.6129644818085116 6.1982981771176675 0.1078228106129498 -1.1671839046346157 -0.7670824575220595
Ni 0.40903206089121974 8.522561289793035 12.029088712461563 -0.8996937879335989 -1.562509527625083 -1.3317337356259644
Ni 6.646576626238386 5.367366740241583 12.124094402787188 1.5223126436912233 -1.1948518028635293 2.931972402370705
Ni 7.345207110521351 8.092742197049288 10.756266117840136 -0.5489243542869514 1.9358758727356402 -4.694770352039328
Ni 8.700729157883755 3.1972425785646084 11.777808417180092 0.415951012550303 -0.157735893393309 -0.7944065992583093
Ni 4.080878770363465 6.598430743162507 3.8318896196345933 0.15358381889814837 0.3174402233668984 0.1594184233020545
Ni 1.0865139508534214 3.039007480743436 2.8736291824487883 -1.0048925306601404 -0.29155358540812365 0.052668534038309296
Ni 2.2647954535539996 4.056599756952438 0.30224561625731877 -0.6495439622832426 1.8820333729938876 -1.402793884797584
Ni 1.0582071690138677 1.0647546344360543 4.648833459779702 0.8225144132381189 0.6338373501812633 2.0538270300318437
Ni 4.095594175482571 1.1806419623377613 13.42480226859867 0.6613108730111836 -2.453301127973046 2.276854802654427
Ni 8.851264661174115 5.73995405368696 11.452538952556914 0.6875088715627902 0.5830104973373831 -0.608293697384204
P 2.0065405620588517 2.071200295691691 13.211456995081598 0.18324406496674248 -0.7651232769131597 -0.7428007021565594
P 8.16353725235814 0.5033830046746272 5.006265123649833 0.15419908388464412 -0.5845318190779158 1.8212010721978635
P 5.865929536466629 1.4809636166527096 7.655732132625123 -1.0339264559986452 -0.9024466680883877 -1.7038322697676915
P 1.0453557776558704 2.4326503610870254 6.595213211871347 2.2042339938639066 -0.7828186373103938 -0.5547126788339543
P 9.609037773033167 1.070103136233005 10.7442568110908 -1.248441048943895 0.3795359642563786 1.855158660090231
P 5.757095486766504 4.985609228443815 0.514098742075173 0.758123705666875 1.4287270597235784 0.06528365169915855
P 4.53976336411586 4.979005561601697 7.254690976958034 2.811372751708061 0.21515376919114557 -1.3030965315052463
P 1.285157869606372 5.920023403152077 7.4551773655944515 0.5967422451011788 0.19440445245893617 -0.973673938965491
