# total energy = -340889.51613004226 ev
CRYSTAL
PRIMVEC
9.09673917927164 0.00000000000000 0.00000000000000

0.00000000000000 9.09673917927164 0.00000000000000

0.00000000000000 0.00000000000000 13.31399730135767

PRIMCOORD
 96 1
Ni 7.054457655334693 1.8165824526329923 11.342141140798335 -0.5142085480723209 1.221272458948903 -0.168095125140446
Ni 4.875870461983159 0.16798766543287266 5.783574038940429 -0.42622462656216914 1.0035452726036267 -0.08357088004412058
Ni 3.0285410304928067 1.8490578119586663 4.687845408878953 0.21722247879471623 -0.4729531409669597 0.12431129518627623
Ni 3.7505947129789043 4.420651433586697 4.822649078994144 -1.4320054733645338 1.6835310963164942 -0.40959755952844945
Ni 3.8046384412012655 3.134554430375553 2.5829290684783723 0.5463254832115236 -0.4358420950472752 -0.19257331278746834
Ni 5.429498016201792 5.12881439515114 2.2384428283170807 -0.19436845701467814 -1.372593964175436 0.12548603222066776
Ni 5.486843860792561 3.1089198190086766 0.28884421484270634 0.15065096152206958 0.06299177034118829 -0.28068733211758107
Ni 6.285410217589091 7.9570361293664496 12.309442914998765 -1.6719544472224883 0.8260064855517775 -0.5071637254103976
Ni 2.1953160969369443 7.08032878192355 0.3150501014380569 0.5192851912642799 -1.0457162495447219 0.02679835113976675
Ni 0.8130438174034795 0.12280689031723548 0.30212272520900496 0.28451544761441966 1.440813558574467 -0.19495543986639974
Ni 7.792676243569173 9.081393107700707 6.559074703550355 0.7974034771031041 -0.7588888659676737 -0.5239370882139944
Ni 8.929604915625582 2.570865882483477 1.3749630495003613 0.10296856784444201 0.5478524613790113 -0.8037137355918481
Ni 7.062990396804577 1.2888260250032166 4.525547753882554 -1.207041917171818 -1.4856582256929833 0.20409648293571947
Ni 1.022546272011304 7.522948826379941 2.306770256599154 -0.3785892840723932 0.4963442661973903 0.9966248913347093
Ni 7.5900918592042546 3.70683939691266 3.793704160554358 0.36318529081249706 1.0395211764776033 -0.8309237203477368
Ni 7.75130427320134 4.129783194248202 12.679984945556845 1.3200406155587523 -1.6529485955439467 -0.8814615811962884
Ni 8.315493141755296 7.8950691412077685 8.470577992155246 0.09387097641854801 -0.47475111340764686 1.0264867118911483
Ni 7.053293272703409 0.8484710686342463 0.18863817333349236 0.6200014727394354 -0.06897318473560379 0.22273852351693896
Ni 2.204585674290687 6.670638933758178 9.140818466897036 -0.8287866194000759 0.36060544590046284 -0.3312532179905908
Ni 0.39048208311882815 5.150073474911392 1.3138629805976292 -1.0390964302353587 -0.628418493158537 -0.4086398236008704
Ni 6.586621449519544 1.8253608060641617 6.879342694654857 -1.08549018700855 2.1470261771943475 0.22157792754993452
Ni 3.6852801247552804 4.829076834988408 0.37490482672967296 1.1878871986202382 0.2633604108033593 -1.1808863418223725
Ni 6.091595089916035 5.702372905191216 4.496696535496754 -0.14779549435114547 0.21287422912834952 0.7262070594639364
Ni 5.557188945852908 3.159761494995005 8.867042091042299 0.4812189805201777 0.04929910334544413 0.7298228018396528
P 0.5333017999112689 5.828763001121443 12.289924951141856 0.38563770627874233 -1.8118155172179053 1.3712503056633483
P 3.9602563605245997 6.569437708968788 12.32162526827858 1.650461310345719 -0.15341155498634224 1.1996042299468501
P 2.690988325031243 8.919689469781048 1.4668428455219593 0.5774463729860442 -1.0607641450167795 -1.4572945869486258
P 6.10127402053859 7.507830045651854 5.817790514169446 0.8654742046290965 0.3250674008948531 -0.5624676401890247
P 5.078072783297188 1.2466899285336026 12.323742079515299 -0.10601558220088193 0.7906846703220318 1.0418431397425607
P 4.100009566496681 6.465880428698908 8.055966808024834 -0.27161905126772573 -0.4789008739099623 0.5199037986848852
P 4.90688124628042 1.1264037446783124 3.6016756324811796 0.4881625017175463 0.49486948142407683 -0.47659870813934696
P 0.3516908576923656 5.787782190543807 3.6004639468054993 -0.1653008502247605 -0.5239100916308009 -0.16877621036787063
Ni 0.43122910749627663 0.26205522725778274 4.589880803934963 0.5662438194020054 -0.39047626531796625 0.2613652347502015
Ni 1.7710350789232865 6.97379686790031 4.688630457481139 -0.38545798616776844 -0.5893122711856947 -0.7271709660391025
Ni 6.671612284864018 5.969535041895898 9.274797062757091 0.0437041257561699 -0.5499206567619497 0.37704456529309255
Ni 9.19298280877859 2.364233449126983 9.920326245171657 -0.3931237302431423 0.4276348766461345 0.13446946666620066
Ni 2.367581049191927 5.478074604100699 6.5827462385748 -0.6252910032731489 -0.7731582314024942 1.6939067831238634
Ni 1.0791097970216796 0.19227414003446489 9.124575329190616 -0.4298167147888017 0.12068629683917924 -0.622193852405064
Ni 1.825124290842182 1.2944569066341949 11.413917142951657 -0.3160762531398363 0.866832518429204 -0.3624561259559564
Ni 4.394389147207643 7.198167942905281 1.5400570421597053 0.13039066861113674 -0.21861113161212675 -0.5741363347762046
Ni 5.698070147499045 8.078268374109658 7.982247742355555 0.7449275186915751 0.05138632489177602 0.3614652227975968
Ni 5.357424550673132 2.9731691783316365 4.685582140139394 1.2325722002324384 -0.5261927170173906 0.37189130322692726
Ni 1.069294415309522 7.732710538058012 6.957322673015494 0.24063442996075332 0.7320964283651779 -0.4875613777984377
Ni 5.277627953472905 5.091108410723992 6.830067477177178 -1.47241113087509 -0.8451812587080153 0.22624396556703616
Ni 1.2770002639042317 7.6044738040484825 11.553168208913998 0.42928938153042195 1.3673854233913032 -1.5642941303293316
Ni 5.01830720605078 0.8439982019170379 10.1117816786685 -1.4882465552454498 -1.016135193453495 1.1464050202160514
Ni 8.288321181445552 7.295521246967847 4.940012480510123 -0.20921863465363322 -0.20476034177196348 -0.40659759635986104
Ni 7.2856148978626205 6.192104962518101 6.978132373853984 0.696470194521136 0.4885587087147006 -0.3237723362325134
Ni 2.4862571101898934 5.463447047295185 2.350572875709794 -0.31252993054947464 1.1062461886089787 1.8712247124141583
Ni 2.489404581990085 5.485543027071673 11.275451125591504 -1.6053829299498417 -0.33647101474610436 1.362200536756254
Ni 1.2123952213465465 3.3396859017464067 3.5772581648335677 -0.3999818908155563 1.737964178454394 0.4452944987094266
Ni 1.8478843325880747 1.4186001079556156 2.4438108149099143 -0.8515347117298689 0.33421924259745023 0.30823721671139176
Ni 1.2269863911948324 3.775528875419149 8.076830179625237 0.8350796514976392 -0.08325000636959212 0.11900042449632407
Ni 3.8291905405906195 3.109192721187884 7.131629843244877 -0.14421189076494517 0.07683844641629348 -1.2867548569224292
Ni 3.8099691304351153 6.981201613696136 5.798605490971171 1.971367637884347 1.0481230592140014 -0.34078995383643246
Ni 8.702632173178834 7.306273592828616 0.30721144117729127 -1.0264057221415677 -0.21076515320514672 0.12369525886883215
P 0.16694881780402338 6.014181838414219 7.95990615061778 1.157807091405406 -1.331086846070585 0.5252882029252502
P 8.68697668483164 1.7265793139304102 7.803107474532409 0.6191290974368112 -0.21626397153618884 0.19948932318101129
P 2.0445376429248867 3.485370181746594 10.27419850094982 -0.5375335959515065 -0.30093014152701725 0.40576250205307546
P 4.075293725799802 6.252343570208468 3.5039511814548914 0.28456352724353573 0.5511825541935087 1.748039560412525
P 7.057759771703102 3.8425900375897 10.437521358466107 0.6156161991875462 0.5306859769020538 -1.049899948608766
P 6.937000557403852 7.986746079942822 10.135693367610648 -0.7236120450432505 -0.34130725979248316 0.7052003753052822
P 2.4658076402279567 8.896310849762287 5.488375751691846 -0.3953672748616804 0.42433152330451435 1.7007852554112515
P 7.247117497115772 4.222924708011669 1.4658176430020702 -0.13475794444089695 -0.4042828321837554 0.4932049492374603
Ni 3.0103657453575976 1.6765927314389317 0.16519860516137364 0.3560108845512449 1.0165154596110495 0.8597295888358355
Ni 1.7492210980653127 1.4627011001155223 6.852474565437963 -0.6801508885358222 -0.17617481682478692 -0.04248156620297845
Ni 7.11364104126546 0.8338899051991979 9.202874603100927 1.076714497698449 0.5652639719872394 -1.4351370770149798
Ni 2.9572498845445416 1.9818338188823459 8.991221679320947 -0.3234131531208817 -0.7008017320169544 1.2082495643266742
Ni 6.497346049961515 1.9983080137671627 2.1955180445495577 0.4488408212997883 0.9709282578995537 1.1111883631056025
Ni 4.537499049983974 7.151365219171222 10.27644903425435 0.07921620261985067 0.7946174297175347 -0.4352229734060376
Ni 7.708704243027073 6.269381762930313 11.660505184365899 -0.7680455927662774 1.2586218461316387 -1.8470419445203674
Ni 7.990721355019942 4.01291738437231 7.967109858474924 -1.1363450648768882 -0.5825937215149386 0.6287859038002849
Ni 3.470060369493062 8.715021932114848 12.288233867304701 1.201385490216989 -0.0019656083668030664 0.291514247529756
Ni 0.0011552858919777562 5.075962339777984 10.242844769580689 0.8174732512697857 -1.1516102185660748 -1.4767056444853857
Ni 8.738436939090837 2.5532364017066826 5.63967635854012 0.9618275811498661 0.009345702880958097 0.972780480616944
Ni 3.9778949380407016 3.2092204666066824 11.64327686979254 -0.7380055947607613 -0.723097310190361 -0.4175780066307647
Ni 1.3120227102358408 3.5568705526989177 12.545473280773406 -0.27350289855399995 0.29003226366759083 -0.19761704585896286
Ni 3.3887264233499663 8.667882629026433 7.994869468143894 -1.4385653859702385 -0.4071146452055956 -0.40836702955545795
Ni 6.084745245217931 8.18423629029587 3.6822254396960195 -0.828254658156006 0.12770515135917362 -0.3154445330931084
Ni 3.2913822160267063 8.599129473344796 3.541390631420347 1.1834178499949748 -0.5314691349249815 -0.4204046774462824
Ni 3.7121791828858175 4.697965531357893 9.640851671815069 1.519416810200667 -0.23935839146180715 -2.7537957246245415
Ni 5.473780943147837 5.084586048640937 11.284358652720833 -0.21598115018844738 -0.28213589163864955 -0.11331134453134678
Ni 8.08091552524797 -0.14249860189490673 2.303201605769053 1.1138772227916753 1.040598725812498 0.7853928257954733
Ni 4.921263191124648 0.41876748431973865 1.346830473519807 -0.4477041365921837 0.12809930147379872 -0.05580502278476195
Ni 6.254654141992424 5.735721551490353 0.05541187781412051 -1.1412479014951442 0.9479508231677738 1.893038980075772
Ni 8.677261367251859 -0.01654878814713334 11.172041212498396 -0.8045316035074531 0.031314493842565426 0.12868217056046227
Ni 9.106654752756 5.013613288568413 5.873536242316131 0.8849726796733404 -0.11874177151829875 -1.006311522494854
Ni 7.60824895086085 6.523198983071757 2.6162940889082624 0.1357874141466758 -1.317622493035563 -0.13875909518049007
P 8.6798175509971 1.7936131858830409 3.3619174229385678 1.0298905953663748 0.040636542574439695 -0.6363989402608524
P 2.1490500808219926 3.7096229991405756 1.3069885747033958 -1.1223250964487124 -2.795230080509928 -0.22887368988039938
P 4.773886917613376 1.1752896217136546 7.975803612230538 1.2147886509967722 1.3063096391259053 -0.8712918397521381
P 8.921745332864411 1.843208608584322 12.484575159483287 0.1753448647243238 -0.42784210756093416 0.028701738810066702
P 6.684757073162505 7.8557985176198315 1.1741252390823698 -1.4470153165098045 0.05213194480854892 -0.4124910790261606
P 1.9425540985551022 3.491401319907076 5.750209018510539 -0.38486071890340173 -0.07162707741868309 0.526409718124203
P 6.988606359491961 4.101665173050539 5.9467367938449165 0.14664543990710227 -0.6483712821313802 -0.3495283621506948
P 2.826620708097293 8.837500430143104 10.234802342359446 0.10424126390927854 -0.470500565661409 -0.7806491404629007
