# total energy = -340898.5250389537 ev
CRYSTAL
PRIMVEC
8.99581793089858 0.00000000000000 0.00000000000000
0.00000000000000 8.99581793089858 0.00000000000000
0.00000000000000 0.00000000000000 13.16628885308512
PRIMCOORD
 96 1
Ni 6.470143002104768 1.9596129673258742 11.430274115367858 -1.247087363129478 -0.5183896760332041 -0.6985134502034099
Ni 4.444806589897044 0.3363662218663062 5.956336972784172 0.3209677769041827 -0.21702141852750365 -0.003989580775367323
Ni 2.7233039240463555 1.6542589277598267 4.641801506095403 0.14565479385905883 -0.19189685554573402 0.8709722516291902
Ni 3.1950086264587183 4.325782924521768 4.687514653852261 0.3140350543400915 0.0933248741070909 0.12171319544179683
Ni 5.044377846586799 4.651377554148609 2.4921410926618144 -0.24621038138663404 -0.327234840859817 -0.008163766757714973
Ni 7.188333112368584 6.278640032676239 2.6548106668624074 0.022627507591528772 -0.6750238517219019 -0.6890309646342714
Ni 4.925066315041769 4.3760515544149765 11.364982469740637 0.7249569891069193 0.6921283726126726 0.21213760807264112
Ni 5.68232526203182 7.7134819683592495 12.331177381483137 -0.23078504797049934 0.41715994525673966 0.43796788314102636
Ni 1.938769657472158 6.440528769891375 0.39019179811953175 0.5206054527376002 0.38941131438856164 -0.06713381753401987
Ni 2.7668706696749896 1.4654007287659074 0.47239198289264966 -0.1352081446044381 0.3919482218778024 0.270877802226327
Ni 0.5506448028130224 0.10516830679232693 4.678640279587828 -0.12309927715604607 -0.47094742339084056 0.26397310468669377
Ni 8.570999304783768 2.141382461889613 1.3388007856354311 0.6081934243609138 1.5058143889258842 0.31631845105762946
Ni 6.953047497684105 0.6084789154800657 4.860150694598789 -0.6166027314705317 0.18696933633712962 -0.08379482312946859
Ni 0.8729685530860397 7.236910528514491 2.4151314947620652 -0.040981070398052 0.37515891823460545 0.44181990989726494
Ni 7.657357061075118 3.7949037325894466 3.7791457585407824 -0.24783249037108931 0.6624141333776914 -0.5435983140883477
Ni 7.651230909150049 3.6216622733046555 12.526538657168143 0.49557833456564326 1.5317768744279168 0.47550007575852954
Ni 7.776947462972096 8.736657289659115 6.998658992699769 -0.0681576308128439 0.5936859747733583 -0.007097273166413584
Ni 6.872966727585797 0.7168191476303641 0.4127829953727198 -0.8455394133783825 0.5376719213015837 -0.29024129435460333
Ni 1.6836932436171244 6.502132130218628 9.089071150907401 1.5212808599925993 0.42128836560281635 0.1934531442892604
Ni -0.007427846761421318 4.888264424402343 1.410965236065517 -0.290860415995841 -0.888236952246909 0.3097263996624085
Ni 6.259487936569825 2.0029997965984125 6.872315430376729 0.3717691758267662 0.6044311291050042 0.22165274665192797
Ni 3.2660216122097903 4.246268890945162 0.3889449777717869 0.47132409000396885 0.20774487832158417 -0.31633053524248744
Ni 5.774118586911974 5.563076701211425 4.686790490518976 0.17390993205001018 0.8203618856714904 0.0771516067813381
Ni 5.2981408710423326 2.8112650305416658 9.393106403583262 -0.5203660830332845 -0.18092930079063677 -0.7002944533632327
P 0.3614843443408619 5.475772289415864 12.469568143010362 -0.9009898810372031 0.19619599714172017 -1.1023478819958368
P 4.144823053560461 6.089628904779638 12.508961728759349 -0.7974407580989428 -0.07723825295787343 0.5521670295939652
P 2.500954295365175 8.394447384546813 1.4063566786041188 0.11018205487374573 0.5334643109781393 0.5956340996386645
P 6.138323266557006 7.549578167955838 5.781185701379424 0.4634328601813502 1.0286690642544476 -0.19508193814193497
P 4.731161462259358 1.1076730379403292 12.595846035863424 0.44728864632132 -1.4835434933428258 -0.1776532011425263
P 3.907117563886491 6.145402975169382 8.146772729581565 -0.20649635062646376 0.4999839198325066 0.37886927720665714
P 4.797514614387546 1.1194035843577852 3.9174582564531057 -0.5560694499721649 -0.7000157457805493 -0.047061472264177014
P 0.07040037055856496 5.645721279384099 3.612249949135496 0.27578012462395085 -0.4894089725301378 -0.2838518458884918
Ni 1.4555772957230686 1.0112018878016804 2.6134820807036068 0.28792755861976216 0.5457919793055568 -0.5693278576439679
Ni 1.8345890914747982 6.330033139795047 4.768566072691707 0.08388506885042972 0.939443299917395 -0.3417307204831469
Ni 5.849008770136914 5.437773955008399 9.097102617043523 -0.054409942209448225 1.0178804582793761 0.36708693985974844
Ni 8.620089482544548 2.359036273676689 10.16502043735911 0.3504842983060609 0.646025664717339 0.22213200028119162
Ni 2.36387602365567 5.151050254116088 6.9133021754589485 -1.0313016167812885 -0.1433091764450177 0.40085220923565157
Ni 0.6103797317822194 9.070932883467588 9.217244462571935 -0.7882814601971778 -0.3751293505482507 -0.403706390854995
Ni 1.6139306765409196 1.0895194776102477 11.375331258543277 -0.8608446762768853 -0.44954967444135474 0.009973052052311856
Ni 4.315221834418935 6.967359843811537 1.520456033313049 -0.11576006318215547 -0.4079317417902523 -0.49925346942438537
Ni 5.610790518848071 7.826487431623115 8.039309589667235 -0.7534813217988572 0.13577455863086937 -0.05214685720688439
Ni 5.138141255566203 3.1020548410817455 4.730186315609318 0.8118201667490663 -0.46670613161598334 0.4286846580668875
Ni 0.6673718359027336 7.319312219606436 6.959370658019097 0.3866730895217921 0.3816134156106976 -0.719865690626941
Ni 4.87569726692904 4.641743033279671 6.9011362314597395 0.6056575453129376 -0.8246700261285411 -0.2783918512151851
Ni 8.04308873272703 7.148229756594796 8.980435855933104 0.38427527871357686 0.3946759052216106 0.6796662355899198
Ni 4.6644124941477605 0.20715479282709698 10.439155390815388 -0.41880879371407226 0.8164512377631746 -0.4530175783852972
Ni 8.085908825477867 7.219305713070502 4.856648622727382 0.03106201151212715 -0.09985290503359577 -0.2640294118459259
Ni 7.173759887524812 6.077025764035117 6.987994450692182 -0.268542469224931 -0.9294345095311413 -0.38858187650873083
Ni 2.4063092962409 5.123792926167552 2.4384621482388074 -0.7070130030339888 0.2535552517874795 0.681244121600001
Ni 2.375930419514099 5.151086237387307 11.480226992056119 -0.5959878834336574 0.24656853605700113 -0.6703935520387422
Ni 1.1035169701145127 3.2495592656270107 3.7802783320024065 -0.6505443785232989 0.5290119316337405 -0.6024966310864526
Ni 3.6935838366540117 2.605188836269364 2.630966352189011 -0.29823639674493796 0.47928216850878097 -0.5697860282273091
Ni 1.1468048453911985 3.12452639395813 8.153895618119405 -0.7126406336334113 1.1685185642856393 -0.03682025415214304
Ni 3.551539873516259 2.568216025091646 6.93252533852602 0.023645664443397985 0.5460372625471436 -0.061232107337604216
Ni 4.068286635677243 6.873767355370424 6.049119837622854 -0.4151508852465108 -0.08467311196936385 -0.7901318831423554
Ni 0.8454314552037739 7.436716637776849 11.27076477196209 -0.06603698492541529 -0.5153262066165318 0.5186509001143906
P 0.13412674388775064 5.495707021671295 7.962958485630797 0.48124623421368734 -0.5105778932982691 -0.36855272577199755
P 8.508595316671888 1.5886434326916337 8.083389996492524 -0.3859261840534386 0.17642241405921874 -1.2053020516625756
P 1.8356326063401547 3.2692601066195173 10.312811828492348 -0.43109069640521885 -0.15881138584567486 -0.008586199007114244
P 3.9078642167642887 6.227912616074986 3.5825736457792496 0.009840897349821761 -0.1630467640832611 1.1466893842256896
P 6.8412204865526665 4.023163613568379 10.40816209973252 1.1745719695685708 -0.2292153894905343 0.09818965839855992
P 6.311528742570578 7.684434472667557 10.155026983359761 -0.6726669214539512 -0.08866449251694408 -0.10422069508398824
P 2.2977837502438225 8.338592351796825 5.799276290984871 0.0969958952007749 0.0268932248464182 -0.07376314992507942
P 6.8204491432413885 3.7746001718040185 1.5567955389173092 1.0610752484992951 1.0199368265877726 -0.3451284333107863
Ni 5.19005612011769 2.9849023058098676 0.3448870604910105 0.6599096217882828 -0.6319118510237762 0.46687196776988626
Ni 1.439204907318337 1.0721755408825981 6.804482466219654 -0.033533612981071284 -0.10301484770134516 0.7481516820558277
Ni 6.814889727838024 0.7663123380287992 9.163131020148956 -0.29144996995072386 -0.22897576267590244 0.07712126776403493
Ni 2.7078041299686895 1.5938430153828067 9.129333732656333 1.0323393140171833 -0.6589151190854975 0.25242679460999107
Ni 6.305825394082336 2.0423115204053777 2.7040924555424297 0.7314929904532241 -0.5472351395099866 -0.5097366283438963
Ni 3.985848961314079 6.815780313800699 10.399551302929767 0.3658127011330152 0.045581802394856985 -0.5862804263379064
Ni 8.246079361492287 7.224181446320702 0.35032953026291297 -0.6093463070184345 -0.9155492669086168 -0.20904508519024642
Ni 7.609373368904328 3.907594342230145 8.214421279473644 -0.04440269448509127 -0.9131509418797693 -0.3377365117220893
Ni 3.2291927341169493 8.267561374410143 12.471569712471927 0.1858730179491573 0.17661704656852809 -0.5558766172350684
Ni 0.16109620566653365 4.973625739552066 10.107509274551258 -0.40312969241591856 -1.212160469345306 0.7629242123793119
Ni 8.540386536794044 2.3181053026648604 5.8835401163624095 -0.03076402065573411 0.7218408120754407 -0.07380942978198256
Ni 3.49905827244307 2.554686315113231 11.575116677424683 0.14296413440077313 0.47504987559498835 -0.7030609603647763
Ni 1.105586008209616 3.243190226621214 12.512398131160781 -0.23482450814719555 0.09906023392897133 0.1900016954055502
Ni 3.0631209416225817 8.33548879465417 7.898772426011786 0.3226662476525282 -0.16449455227338122 0.7206089965508686
Ni 5.735472553622564 7.9864330721924155 3.5395592433638297 -0.9332417990923735 -0.1918570034467341 0.3015477205063581
Ni 3.0791874722219506 8.34349507250044 3.7217803279813695 0.5307908779110343 -0.2230393425868094 -0.4375359378099304
Ni 3.474328769297682 4.4174593037704595 9.380191107960917 -0.39476872204573304 -0.3913789796378937 -0.7086713645730183
Ni 7.343007203704273 6.147040214009856 11.313712605325756 0.2512181190138706 -0.9801070961853442 0.394516753935927
Ni 0.6492623550798957 9.03611906856302 0.38326142008271574 0.32803959614929956 0.25592709445376566 -0.6324949772207559
Ni 4.639799936633835 0.38746066783399524 1.7509189900723763 -0.18935352029859 0.08844414897602187 -0.491191004131225
Ni 6.02419332606754 5.420834830081966 0.31231320421983866 0.45408895707260505 0.7632080621683178 0.024507755333377144
Ni 7.802567552080159 8.748549760797056 11.34388997573373 0.5574719867466464 -0.390935721452888 -0.16632363506232
Ni -0.03218523694200459 4.900660661337354 5.6696672467986895 0.29565063829563276 -0.48062197036612714 0.7794574341476447
Ni 8.149842102616562 8.869210665012806 2.4813847933126185 -0.8891057280051075 -0.36056636513241125 0.10987223694281079
P 8.412546969970066 1.6967731627053 3.602467896854559 0.2684905329410731 -0.02242567599336783 0.3207795721527766
P 1.7665087423280903 3.2103824790871176 1.5628776113351326 -0.40863905226992203 -1.0402701388284858 0.18548812380591279
P 4.729155394888889 1.0788144544225386 8.112632701430579 -0.18910386618162917 -0.5190005701443255 0.5375248542007581
P 8.48785995663183 1.542467899899608 12.270954879188919 0.9950056105637315 0.3155445490060824 0.5973695942725326
P 6.395765580494703 7.893848115345439 1.3183532917651264 -0.01762619772219545 -1.2188864752152297 1.0191973773185867
P 1.6376616439099754 3.2675149179653866 5.927990251299475 0.7761412252902181 -0.5349658352243303 0.1234206650512068
P 6.861083252265659 4.022318006694728 5.874455239961344 -0.45967416446986636 -0.5076702327331708 0.9459538473424031
P 2.436607210607458 8.465199491581545 10.123177290421877 0.7547118517718486 -0.050842022352531796 0.5815657944710565
