# total energy = -381164.35992880055 ev
CRYSTAL
PRIMVEC
9.24451262605363 0.00000000000000 0.00000000000000

0.00000000000000 9.24451262605363 0.00000000000000

0.00000000000000 0.00000000000000 13.53027867789126

PRIMCOORD
 96 1
Ni 7.8279111985991765 0.12182788447253763 6.4099555045852235 0.5045226882431247 -1.0961186132566736 1.940832188299651
Ni 7.034879932163784 7.28780979612061 7.384867009157756 0.26016170136040356 -0.44451108357618285 -0.6779047728141228
Ni 1.497148810957891 2.204529668418137 13.017562385754603 -1.3787327300833223 0.3004999959681341 0.2998284238224062
Ni 6.341846558214539 0.28576914596464104 8.218007442287208 -1.354350444584216 -1.014665036665872 -0.1662974098100749
Ni 1.4040750583878134 8.193753539104565 9.923525717704678 -0.4584359211873911 -0.6301285338711083 -0.2293765976587469
Ni 5.797067432374783 3.2585889918230073 12.258012894950747 -1.1861835856655703 2.495007763683213 -1.422849775007195
Ni 3.3312138825848794 6.482825374930242 1.8395766500221296 -0.16750865650935667 1.0075317680552003 1.3360274779053118
Ni 2.617352621811997 3.0834609456681057 8.256961044909827 -0.4376853189036011 1.3284293538430798 -0.5711610541979647
Ni 0.8884448051373214 0.023660405475551875 2.2636566463743306 -0.6475336167214333 -0.2218031561868632 -3.511512167550669
Ni 7.8931682128415455 7.185565487079583 11.031520300805575 -0.2235959864212278 -1.5204550216571944 0.018547681095200316
Ni 2.1750304288024123 2.1031543435588334 2.5652597934714736 -0.21118578568233307 -1.0446165887226395 -1.2439642441194638
Ni 6.926561978363268 0.3904549307758065 11.823947900570046 3.245364680920475 0.5872759574819564 3.0918880770241524
Ni 7.911158034305727 2.2400193521802074 5.981817167214125 1.2488519112290686 1.4080006258095041 0.0026325525268406274
Ni 7.854544639317729 0.38622649072559256 1.4945270671926074 0.0028215286091951407 0.08769390107355865 0.3218128985132974
Ni 7.556575510112451 7.678011427251956 13.470583253163209 0.47537254904172965 1.6178473809654395 -0.24248202469245336
Ni 8.658881944628092 5.357657260825228 6.4676089072375165 -2.1420536636804206 -0.7130406972853075 3.139732450200941
Ni 3.253393575757812 3.988480237394908 3.048791250171129 -0.8572921830389365 1.4277577538317734 -6.756152568710609
Ni 1.0372805330875587 -0.17375431158677335 6.92743466035002 -1.7844787770761654 0.5031219512408561 1.3766997588136936
Ni 1.216744255638504 4.9797323423888615 10.910343230018071 1.1042091035742918 1.3548397255158084 0.3172347922243117
Ni 5.694989524560044 8.938916719444618 3.1023576538155524 -1.5903964838433384 0.998019714799707 -1.0377419730899935
Ni 6.235728798406046 6.277883775732183 9.378810379001663 -0.38087910854783436 -0.2083876541119056 0.882606493434009
Ni 7.483885907762579 1.5380650235994446 9.922524536993182 -1.9454869134628427 2.530725014579164 -1.0401557247378086
Ni 3.402091560470734 4.810456072691733 6.6810489868425735 -0.5795821883821244 0.02230663391700029 1.617460687049982
Ni 4.269531908594302 5.235907030258291 13.18360584940547 0.16895181671378645 0.5819244633620558 -1.827262705010911
P 4.802616726031084 7.478339200219666 8.22638204622575 -0.2317468976631364 0.6599083362367023 0.7988306964679339
Ni 6.600249173613706 5.667819902112343 -0.0808460357917261 -0.20860182700524077 -0.615657851058759 0.2705150195702696
P 5.790568540037004 9.099715771113662 0.812457685153187 -0.09461222545994673 0.4222592141565179 -0.1533840441825165
Ni 2.034643260891288 1.0605582157426499 9.08704339328062 -1.3470616242322866 -0.20204037173763914 -0.022644991093025518
P 8.932861563710272 1.5026400514253746 8.142643402450394 0.4888286745466356 -0.2052074566117111 -0.19326056866248006
P 4.268071275608001 1.4280091014354823 6.322063301311484 -0.39785635983212125 1.1491612428049498 0.5060468381971349
P 4.732404653050378 4.857011438001916 1.6547668258510735 1.4243451286057986 -0.5327469731961405 1.0084234266315344
Ni 6.084997020927389 2.5707880119892432 7.562573349868855 0.14624460492425784 -0.20640224825076067 -0.7583065111016424
Ni 7.192406426382509 0.6473682551997006 4.392321222374277 1.1035064210803123 0.2657587358322068 -0.8110830314727258
Ni 5.674577640802125 2.4517094455554767 4.953921663289174 -0.7548782021463838 -0.6399090102966399 0.8210630255035731
Ni 3.170941768132413 6.678161925566489 11.340822277972281 0.1278301069728121 -0.5124555699369561 -0.8315652105864776
Ni 6.810404677902102 7.247633144484778 4.6063695909065405 -0.05323777627821799 0.5244441097574001 -1.0834415320096373
Ni 5.400255974754798 4.791985536573834 3.8804978594007378 -0.8508520838405476 0.7602052707862521 -0.7185755110606076
Ni 0.23745547436335587 1.0584042443134851 10.810232554478551 1.437360824139176 -1.0033071884508915 2.034515474187425
Ni 6.654412772770249 3.814082507733157 9.937583847972189 -0.5514813163808503 0.6879076496631056 -0.5234627196807371
Ni 3.247948557853186 8.9868032945651 7.446226536899972 1.2536390482050668 -0.12501552034215244 -0.007510449444432227
Ni 3.7145468408755855 8.74892349707471 10.006046859174363 0.7277916303422368 -0.12872973596894605 -0.22695281870860268
Ni 1.4484024961682587 6.363830009109617 6.4332683163880855 2.1465824047887097 0.7060727506079065 0.3423740104941007
Ni 7.365038454143099 4.882119534146167 2.336719727032093 0.2437187253130319 0.17340625294071427 -0.7178805418761119
Ni 3.7604088677429037 2.7049906009900195 -0.12539071961760198 0.2927440061717991 0.9896852267920827 1.68600989687429
Ni 6.140001870727942 8.397900110221471 10.481189845166618 -3.015077141411685 -1.203552415961321 -2.982203787722432
Ni 1.1381011871925713 7.211921592420991 3.655272875169505 -0.38181344743664564 1.1125433344716 -2.1937456927380734
Ni 2.3764498687107207 4.756699232088336 0.8697533251689623 -1.3144340680052524 -1.879768488219111 0.18958543380373802
Ni 1.3098364972337244 5.159806202769527 8.506608182452505 -0.878473702212558 -3.498482073839588 -1.6808358088725182
Ni 4.9321415916706695 2.1142385141320874 2.2377997447117854 -1.8799191548643621 0.012112724103133979 1.0426751487255526
Ni 5.741535645357654 4.813192448412903 7.72887381096921 -0.009823928068957275 -0.04951353334909537 -1.056887949890825
Ni 2.5418896656906673 5.6922901268891595 4.429935295125284 0.014322073049626946 -0.9622867801744718 1.0627631777246793
Ni 6.317376333437722 2.227049301042363 0.5579100314963451 1.8117291281516863 -1.1317489608657734 0.4852347865477901
Ni 8.24835163035197 4.649453641746117 11.469995852134149 -1.0320400376092096 0.68590501741078 0.6317868954101377
Ni 0.5855298617062796 7.447138970290782 12.009542583858423 1.0629611526680984 -0.45067607473631416 0.8740717164901205
Ni 4.075258476903779 6.999177624612569 6.219260623711137 0.1331540902888868 -0.5096906055973093 0.2329044083063473
Ni 7.013367951409854 2.5942598294083363 3.131867062395106 1.250578407001872 -0.7444055847498341 -2.1858552342464033
P 5.274530603782107 2.205112072710143 10.404108174894017 0.32617143259230924 -0.25948884366309505 0.34299955989324155
Ni 5.701969131551542 7.057917257492016 1.865026793131528 0.4674062430068015 -1.411879134928304 -0.8648365710450976
P 0.3626788683034133 -0.1428249458762342 -0.20744316429991164 0.17357851685252043 0.5271630513504598 0.9307992510891517
Ni 5.276453462396984 8.955020660344209 5.599370757679027 0.048266034095239455 -0.06302776578544629 0.10311254962147402
P 8.397031126039748 8.325432376173314 3.4835736187273807 0.6226042004696051 0.34372152566093056 -1.0317003948816037
P 6.077980435885604 5.756391577060088 5.815245841895423 -0.3790937345126374 -1.3750056589407222 0.7716572213769356
P 7.816087467020201 3.9930655156303825 0.2016718151015108 0.25697610454357034 -0.9111773630931661 -0.09138523388221681
Ni 8.157866341301919 3.5675498464758237 8.022561806402617 0.46395839366751707 -0.46416870990611026 0.07545699268773456
Ni 9.024770507696338 7.595661309264845 5.513047348188675 -0.7578681380126432 0.5067888585694821 -0.01619177926851405
Ni 2.385860782508529 0.23178304144947035 12.096759013263187 -0.3489655476686893 -1.6754966560477917 -0.47639507676897314
Ni 0.4557304340433191 3.0368501132824948 3.8512177147329583 -0.8266284354064926 -0.1502470412154316 0.7471540940292487
Ni 3.6110175445871175 3.5853917557388604 4.8666654824803555 0.6862572585438762 -2.647611735166595 5.637293576433627
Ni 0.2548231401314731 7.065285134011518 1.19745373125551 0.5265053631618029 -0.16906340259098626 0.13294017450586784
Ni 2.7703955274335335 6.464188437586054 8.95312091301076 3.2939505602489785 2.9652496763665965 0.005272818363165113
Ni 8.332726296592245 8.885446458730938 9.383396581688396 1.1700131465532948 -2.576417888630589 -1.5880007299176522
Ni 4.899628640956629 0.9511031868958363 12.33315968874213 -1.3503307819018615 -0.8050543087801425 0.21157402225968724
Ni 0.6970843193580856 3.0731163361005733 9.815852106430397 -0.5959624295123607 -0.2779694189657858 -0.7387082772547406
Ni 0.034206545417143484 2.9789147529967703 1.3613765037224705 0.12193173921050612 0.04033906593867891 0.7923877690560676
Ni 3.089895126417885 2.2932769891047426 11.142157702810286 0.42910426210280933 -3.054788343958378 -3.295714594127937
Ni 2.5441915493209764 7.1650426691708065 13.435675049241887 -0.8699684929550243 1.0835346059440758 0.2823989154920491
Ni 2.006872745126438 1.9618427243905572 5.9153833265213995 0.48611076139484016 -0.5067022123929467 0.33746988832426394
Ni 9.300996543333397 5.346757980503404 4.447794768962206 -0.20067742995184149 0.11585776510228435 -1.471287301683292
Ni 2.344168030810968 8.581597819530172 5.086532347225134 1.5507413313455616 -0.5611689759822595 0.72826162800012
Ni 7.864464001306971 2.442409465908526 12.091617215370905 2.1779974287648813 -0.09143357062164897 0.6791635849218883
Ni 4.014263182956881 4.513300460592749 9.653542501407166 0.19160554955756035 -0.31723042134893753 0.6403180728096004
Ni 7.332451547328486 4.08170190216613 4.71243373254212 1.330371308060799 1.5223296129720878 1.5972865260949525
Ni 4.227691244695595 6.994462923201093 3.8553583319137426 1.4899270282716663 1.4824070657455373 0.6347590906645842
Ni 2.9760304650744556 8.783608908243059 2.811497554777775 1.0997752361726543 -0.8961220114219406 -0.40146901688404407
Ni 0.6395113439651646 0.6558390020689856 4.270926905541344 -0.8479482799301913 0.6822355389789928 2.01605778170287
Ni 3.6533389231395423 1.2226607436842774 4.105019336225278 0.5089678684986718 -0.026135777855103372 1.266770443380702
Ni 5.057395492502212 7.627212830671447 12.839449286490357 -0.38243359751914785 0.20585511749803903 -0.2259683433081463
Ni 3.1420619108589802 0.6154118241424654 0.7671438578813604 0.27963343693177006 -0.3621583922098795 0.14433581793731917
P 2.8829844460420926 4.038687185170841 11.896943496286037 -0.9927702934753097 4.008045666940729 1.5249189709658189
Ni 0.4900100111097776 5.027646651047057 13.243085043290638 -0.540285704775347 0.519203430183751 -0.09468267368656597
P 1.0290344278737618 4.878680575469562 2.697098560607712 0.8985676447489558 -0.19035599342117537 -2.141608862833518
Ni 4.326182281632584 1.6337549732272627 8.607367822774545 -0.7834457293714314 -0.8238177054305748 0.48725798762540606
P 0.21267370951287842 7.128221775598436 8.176320237297189 -0.060116762786238405 0.7073942976328076 -0.3528872513205987
P 1.1554254037516023 3.9223172609205292 5.846271350536706 0.08652970556212841 1.1973090061547702 0.5762580091048979
P 5.90362892878671 5.935781343510461 11.445709593157504 -0.4048273918333157 0.014562471195207177 0.12296532268134305
Ni 8.563358396226562 5.4815707073339 9.287481065953832 -1.6739308542225686 0.7894960493305693 0.5443189943044562
