# total energy = -381167.9025044429 ev
CRYSTAL
PRIMVEC
9.26931492793840 0.00000000000000 0.00000000000000
0.00000000000000 9.26931492793840 0.00000000000000
0.00000000000000 0.00000000000000 13.56657935374812
PRIMCOORD
 96 1
Ni 1.922483761194557 8.913855411543073 4.900180792612455 -0.9576073724209314 -1.207100024103263 -0.6586006731688722
Ni 2.560082870163708 4.899203806800148 2.6810140627792856 0.8595454978494875 0.15178996022251923 0.447014823834643
Ni 5.900901613183137 5.9930942212401135 1.3182968254610965 0.5019685543627033 0.652630057407734 0.05427855883790652
Ni 6.331739379369369 3.757001722021056 9.851765499083825 -0.3110011526097741 0.03561312121791931 -0.23397295878017768
Ni 5.047012305500786 8.750808158806072 0.38152222902098626 0.23843073744121518 0.321610295584188 1.3795593397496757
Ni 8.497653893911233 4.5687898004861545 8.651611656254037 -1.4485610637303696 0.4447545670455566 -2.0536313690812693
Ni 1.214493473300745 1.5806499586683984 12.320096053658151 0.49806253444007775 -1.4666680577437257 0.23114371686149868
Ni 8.595296859251288 3.3450177427630257 5.40245624339896 -0.2139882881281347 -0.4391652458832372 0.7045352309174575
Ni 9.22903993313581 1.1775089060227102 4.528795486592787 -0.7336912836561236 0.7437327270525256 -0.04954952879335337
Ni 6.332230653070055 2.206866348685813 3.8348380148398817 1.0545919547677967 0.002354873385421751 0.7931537006878148
Ni 4.684480122340078 1.7737297923529767 2.387948907827043 -1.3108334951381875 -0.4412756073580207 -1.3790615741776509
Ni 2.864014443216211 6.053910197658958 13.600496211234658 -0.7102343381847639 -1.0531966170821667 -1.4412372763754469
Ni -0.1357685853077959 3.0585866366330614 -0.06618754452351092 -0.6979706903260624 -0.4730133047809338 1.2549348841983547
Ni 0.8853947828004743 3.390493002679326 3.563398172032916 0.46220824374562974 0.3173623189411115 -0.08263371294183189
Ni 3.169864764495921 6.568561111045187 11.219737511136328 -0.15056997177248907 -0.9148995491397598 -0.9064416481803936
Ni 2.6221872813824634 7.444427964846891 6.480144821962915 0.27383662774433487 0.41182901996212945 0.9035023630464117
Ni 8.205253348852182 1.419141412239205 11.094152195405387 -0.3997898294094082 0.10902094468610903 -0.7044084755316062
Ni 7.173430268370542 6.027121876998927 13.075713936436175 0.3328077069619042 -0.007348984165903473 -1.5073621930289782
Ni 6.380495976833645 0.9702284815937835 6.094690549473422 0.22524123533413465 1.146755975797567 -0.30291631871911057
Ni 8.801381542031375 0.6299500701426259 0.1995118114375179 -0.5821725748171199 -0.6277548914326093 -0.4772237433178555
Ni 3.0201560561982905 8.692606129247482 2.5872419634280295 -0.8790221185168603 1.0153965155152578 -1.158451152747308
Ni 5.8439416718489205 8.066185814297706 5.89233213136646 0.039231691807113084 -0.5888368742111729 -1.5801395820020208
Ni 6.8714823287509965 2.9489213695988674 7.670367520586766 -1.260505693417913 -0.1448112149118409 0.4434067947684105
Ni 7.691306903414105 4.087341573814191 3.259262674048053 0.5898596590487325 1.2111675093044172 0.709850472482784
P 1.7077044608438432 7.172799954943248 1.4123080731421205 -0.7231369051790449 0.9054962535479888 0.650120660722319
Ni 8.781600823592447 8.28110415437503 5.298333099867406 -0.25367377964321475 -0.7419344975015222 -0.15708154763876173
P 7.196807481071096 6.546509410404975 8.845992901779677 1.945987250138029 2.1816869618013266 -0.3954706332087641
Ni 5.864983017142439 5.230275934486758 8.121279842500828 -0.23143990794567884 -2.724241408006192 -1.4641342355782785
P 4.283758360937389 -0.09976193077357869 6.855274004354412 -0.18792193005838603 -0.7960996706900161 0.07446248998494918
P 0.470520631091995 4.849010465494243 6.449931489370746 0.3584246361990601 0.7469597186302555 0.9831366270402875
P 3.598755974509624 0.8950932671972182 10.869000531449633 -1.8672559575743972 -0.9443913879512897 -0.8324733242230437
Ni 6.855641069232661 0.7528676769856931 1.8899734923188047 0.5826382015996289 0.5828546884858091 -1.0413276335587227
Ni 7.505623983185133 8.356167068113757 7.4421643980976935 0.3722481723457138 -0.20804955404619652 1.186539683453408
Ni 7.600856926597297 7.98519053889032 1.0140000413933665 -0.6532273246721008 -0.4515582202309514 -0.14056220982749984
Ni 9.471108097162348 7.058509299670523 8.40455011217921 -1.0347962601981082 0.5639678788836352 -1.943841664549936
Ni 4.086841030798398 2.0094670141612436 6.412840324968977 0.14155054188269817 -1.5970335295438818 0.1476160313504877
Ni 1.294821358020407 1.3841775556545566 1.5553947827271115 2.2569778612248417 0.5666371981856823 -0.35953843808852914
Ni 3.8305815453426204 6.518673657137822 2.0201044801783548 1.2367188754109604 1.4311860627870319 1.0991394023608683
Ni 4.184465457508239 0.4033301466738767 4.405122430568477 1.336273532477847 1.1050470260945549 1.027283753871147
Ni 4.130036039198309 3.290486361986915 4.403901661768849 -0.3857698609812324 0.30727485279812244 -0.4427583625511342
Ni 8.516563296730077 1.394744574876852 7.236711882607922 -0.5759674744476725 -1.8428479610436779 -1.2488030602690043
Ni 0.4166473716885014 8.743967404256903 2.8658451329498984 -0.8158151468410724 -0.07619052841964943 -1.1185823415768283
Ni 2.513467484489212 5.330430884220885 7.5970945115952535 -0.3270720900297076 0.4317093038258243 -0.18677367538655576
Ni 4.607192572975603 4.0250888535537195 11.717793569686002 -1.0719147623169603 0.842055311484524 0.21528386701110666
Ni 5.415031923205001 8.38897117427841 2.700143148366173 0.41532366337894927 -1.1354202390697736 0.7128077553388951
Ni 0.8444067983276065 5.0598410376092575 1.1882399921224045 -0.3641561393661986 0.11617143968796122 0.9815235169168967
Ni 1.0949841936226237 3.288159763894989 8.41852360470343 0.8478382367148881 0.17632008415339956 -0.8056240652406835
Ni 2.99411855006195 0.6890604925817309 8.436309566531273 -0.006531116250298429 -1.3148228188032387 -0.10541600094367005
Ni 8.245723178610552 5.665118044799334 10.546319914729638 -0.6547543028395885 0.9381770316104616 2.418238737052274
Ni 2.3025720271684476 3.4032753882122613 13.300281633540173 0.3214007506765433 1.0027508017267892 0.1410005829164991
Ni 4.922543942240272 5.574065562500553 5.525925374490909 0.009481714238190123 0.6675182873734762 0.3969145647441422
Ni 0.914918478348662 6.737633418601918 11.779589312711686 -1.3929385892700592 -1.0973540283256715 0.6202282440382608
Ni 2.3663171071611906 7.569396871123199 9.162134943622997 -0.6494164355664429 -1.124404090464928 -1.6704562654104071
Ni 7.043854512485919 6.919970116077163 4.356120196253857 -0.38396597500327423 -0.6913770962689448 -1.2648238611772928
Ni 6.215483629293901 3.653139046244018 5.740765852321331 -0.5661044656106637 0.28866572233736737 -1.4102585686057456
Ni 5.79366490670705 6.416025261639837 10.470645226193831 -0.4893596073494411 -0.6107205616581418 0.8880042674108125
P 5.940574281842282 1.521057531843715 0.0202404764682499 -0.2356279778850974 0.7055929827580106 -0.5952458630613103
Ni 0.17251122346153092 -0.07674900215674224 9.537942639880347 -0.22794115076380098 0.5476776263640438 -1.7352593779287213
P 2.8647281804794718 2.9635112715777217 2.430819490198199 -0.04947085303661802 -2.623587861448172 -0.5239676843416138
Ni 8.632012616391211 2.1807361493983994 2.312288123263895 -0.5179129935071015 -0.2252846869775604 0.008877247884971809
P 9.120626023641101 5.0939335785738225 12.96818524653421 -0.9788171737293273 0.6808072911728985 -2.0948795770977795
P 4.148982519277583 3.977453843217423 6.920420604791376 0.6443081678056001 1.9301096596758243 0.9956460723612077
P 2.2015272231840215 4.003222539215653 10.782757896760016 1.683958927882532 -0.36130761417380997 0.15832210491408216
Ni 1.5541767947220155 6.754290377849695 3.5403342621829896 0.6993850541750859 2.567347808008521 -0.7567664203080321
Ni 1.6867001928107537 1.8641241532791415 10.030830128326201 0.5993105200489872 -0.1720415113827037 1.03334435824293
Ni 2.5333965119698574 5.410564113323295 5.063508905597207 0.22559964711481792 0.7581275623216169 -0.2731578565097554
Ni 3.8914531376521078 7.429198480125635 4.337941215465466 0.10989949063632042 -1.621021407818047 0.4932021210239829
Ni 0.10009191839139775 3.5315627092969732 11.183406430573358 0.05592072242701982 0.767219497320556 -0.6094082706046214
Ni 1.405914099581121 1.5190646290956504 6.895282222220441 1.981271013040988 1.9088497218557838 -0.5096337842174449
Ni 8.36589057966129 6.365887536224577 2.4619541927120316 -0.05987405064781301 -0.12112029905280432 -1.0456704839084507
Ni 1.131755566653191 5.41888795828963 9.560694173811157 2.1977211324460537 -0.31088776696036136 1.95063940419806
Ni 6.930453711463493 8.76902236299187 12.271486838304082 0.5661147500233089 0.5704668563444175 2.3416301472585994
Ni 4.055158511761725 2.6219926257652104 9.111857251549617 0.4038205478353562 0.8866276987782602 0.16894513184556711
Ni 3.9809854522732953 5.090179505955375 9.480991040929727 -1.0280838811749389 -0.28228141607757834 0.27194969513426714
Ni 6.88484868113569 3.483241769642739 1.2406755807527596 -0.046349790909133076 -0.66326696829629 -1.0166337303564685
Ni 4.819812122906321 7.036828371634602 7.544944417870202 -1.7531020625370968 0.5145301930777977 0.697651873534063
Ni 4.455583655080982 8.230502963204405 9.45765646707867 1.2343524320613128 1.324116585400339 0.5215454480533662
Ni 4.662205958137291 3.9035217859217823 0.9194354156004381 -1.6685276809291265 -0.005475164181958312 -0.2076060387508747
Ni 2.149804444885416 3.5001953469739484 6.073336828260788 -0.5779485094334433 -0.43982473384410703 0.280864995346026
Ni 3.6494776667766438 1.4371238835473226 13.097650697569057 0.8836074238946975 0.19578410641528216 -0.09506525383696532
Ni 6.175023068850638 0.9613855549814413 9.358009475812418 0.6234853175229778 0.6700348831477428 -3.0595292010774724
Ni 5.391710326395093 1.7946599058652082 11.108044117956663 0.3196637133807785 0.29966233055818714 2.8352457016709174
Ni 5.485738258843311 4.84636871068867 3.269477459296272 -0.012019650168695429 0.09468344501751434 0.0905210861097086
Ni 2.296250354265285 1.755561934742714 4.661571936983954 0.12376750686766427 0.9472100883470075 -1.7562501212477752
Ni 2.352542904911777 8.714370481119367 13.517061252091036 -0.3266640559580116 -0.39405292692563104 0.269426157381465
Ni 9.25140679048967 5.607629752504002 4.377948506399983 -1.0427797926242168 -1.2825385048482363 2.210238033966142
Ni 7.222965488303831 8.492055227586437 10.13484574780251 0.5085174112248145 -2.1276570286391165 -1.419305252189046
Ni 7.662868644664979 5.6752215982662655 6.437735851484101 0.10313748932213851 0.3383731168648237 0.13659268365679056
P 0.8723074368005099 8.921474788561255 6.904114025654655 -1.2598312930587077 -3.883944173772414 0.8540765043151161
Ni 4.720398718380776 8.181134590943048 11.810046428291177 -0.6043151723524302 1.1298404309891508 -0.7515715063706541
P 4.775421372857572 6.170128870473995 12.661390382045068 1.6637158613627798 -0.7033712925163434 0.5850473252617536
Ni 6.934699057782625 3.2782137887848806 11.9087840997454 1.021965426982027 0.6116060495868887 2.97302237833348
P 9.151446496372797 8.74799028701346 11.704512495000294 -1.4653935619066762 0.21454441774192082 1.1142191795121263
P 7.025519807203724 9.322984441748062 3.9642497038471074 0.47523962300829126 -0.4675887913312528 1.3117490649739216
P 8.392771593472395 2.418429196694302 8.996704549971914 0.38698162190114643 -0.4390816850304954 3.0092967872844816
Ni 1.826157038599735 8.651144482772631 11.021503011320593 2.73343438735937 1.7631404206097054 0.7977734588480132
