# total energy = -381164.0494145291 ev
CRYSTAL
PRIMVEC
9.33207300769143 0.00000000000000 0.00000000000000

0.00000000000000 9.33207300769143 0.00000000000000

0.00000000000000 0.00000000000000 13.65843214715744

PRIMCOORD
 96 1
Ni 0.10224499007653605 5.272966462936912 12.415869425838421 -0.04716405928031232 0.7086140289725216 -0.02473838328694449
Ni 2.0083927324308046 1.7008356065806183 9.65537787713394 1.1206453947534443 1.59319898628914 -0.6023904445258916
Ni 9.233806150893104 2.746559697104463 7.984746457631233 1.028199323706881 1.2681583248671644 2.435449958724238
Ni 0.1372150667733957 9.152645113070514 11.733576381109017 -0.7203673128537078 -0.8112547811638995 0.07822015725516851
Ni 5.845311824636029 1.2857170087351275 2.604662729368023 1.2322880933331164 -1.0984986834530759 0.37500953714093477
Ni 9.199772081105937 0.7753786052758858 9.574847687437924 0.39399739109734727 -1.1522172560224544 -1.6077843403024825
Ni 8.939463240238593 6.277162829152315 6.582394402441229 0.23264652665927027 0.19596536918815283 2.0053167411362818
Ni 9.047435323440542 5.85245086038793 4.397017974666146 -0.015226587141767323 -0.34945431437964974 -1.0886523867866154
Ni 5.6732937252702955 1.6873880895629858 9.529515277017 0.7337686738612782 -1.5576012916901885 0.8739238780583466
Ni 1.2261970479173199 4.236621105655761 10.307116782052496 0.6851678821344394 -0.41590910356877403 -0.6007194845813718
Ni 6.709573758041298 3.554399917887521 8.54089040760633 1.4886905847614038 1.5330439140657983 0.6887738543181429
Ni 7.848273290651663 2.195220831454403 10.595309856680206 -1.927509503048816 1.1152579051892857 -0.990661731772739
Ni 8.148486075146625 3.9555484026341947 6.064562344460711 -0.2887423412115737 0.4629998864089897 0.30385914224835414
Ni 7.026705590664623 1.1326150210937111 12.360798997368986 0.3961787150193822 0.8913940098186519 0.34282318221637736
Ni 3.7975190805130348 7.7280015353961105 11.17408594979976 -0.4859294986219696 0.7435717759946291 0.12488156586744946
Ni 9.116306021282409 0.07004933864639544 1.8097558283870037 -1.5133256097012648 -1.670154417899272 -1.1065614058565523
Ni 3.2726739697644733 4.080486194328897 4.387101714025662 -0.2056201186690975 -1.091300880153056 1.253911585140163
Ni 3.6504736081696363 1.3734104975725276 0.7402470837182316 -1.766958508804215 -0.5838054824348526 0.6130368684961442
Ni 2.617907740404197 3.1825168136872013 11.926652302924639 -0.8423124218006527 1.2938968672838491 0.30304744498033614
Ni 3.485071948474618 5.875762378437928 6.020568153290534 0.7564159789471488 -0.5405127331844884 1.6408201877115292
Ni 3.2899383045893313 8.59254343098773 6.344887548444725 1.8309200992578405 -0.2966142877604827 -0.9168926683103886
Ni 3.9582173754773886 6.165401924361775 3.8927351532976338 0.6942873279372043 0.8296741642113519 -2.4530021086753884
Ni 6.549631360980087 6.3015568676561955 0.6931574439743217 0.41904224988111705 0.7050764481329084 0.3379576265939599
Ni 4.4004176488157105 4.430774881888826 13.26042482094658 2.165301578464768 -1.5938918985911064 -0.26932999812323294
P 7.458892549804527 1.161143167882679 0.9743477311141547 -0.722061155616363 0.10924283088892799 -0.15547949325896449
Ni 4.158894270652387 8.774910799175501 2.5151317553808856 -1.0046395341090697 0.11378237063049436 -2.5459744845390673
P 3.822734341430206 5.387088382165662 1.6750016292316159 0.5229217595756026 -0.5741895566116433 1.2848224157864065
Ni 1.0516779530202012 3.9683613386961025 3.581786752163473 -1.0467812004741264 -0.13553056094086333 -0.5962532212799022
P 8.794825442697796 8.606644193106844 6.094283130163526 0.5605136017864475 0.23637642601534772 0.577178206926322
P 5.897002176308942 2.1065848032562946 7.481269927359407 -1.719367132178497 -1.5885406615815223 -2.9108399912674643
P 7.489725718594436 4.226589127311587 3.9491577991271334 0.19727766024167315 -0.536230817979683 -0.5084652178306405
Ni 0.5105530411354425 2.2065593000015395 11.45251301016033 0.43391685300010435 0.4512193488342938 1.2780514156111602
Ni 2.5689890143761396 0.043120709148768296 4.042444932447788 0.7390921429567207 0.5493547569561507 1.5042915245234545
Ni 4.559865446014372 4.981441838291648 8.07195561188625 0.6188257072637794 0.7988803187589467 -1.728434384587088
Ni 6.973540771476938 2.21628331994073 4.80260479327374 0.20222780515809688 -0.8153294654539055 -0.6320648316618727
Ni 1.6810329479328623 7.121155500265913 5.797266580629381 -1.8557854950409522 0.23883002976216292 -0.6046944100687198
Ni 5.503543319613988 3.661046846740752 5.828845382042266 -0.43223175198819747 1.180532815137696 1.1171011290456117
Ni 5.406891040813419 3.7313826800245113 10.494948078910513 -0.6676337299054179 1.5784423968052557 1.075223772085535
Ni 8.228863218847437 4.535602056530788 10.369249723276228 -0.6314739921554092 0.14445254602084154 0.0029500837672594357
Ni 4.377246111858888 2.028904628617312 12.165059701953899 2.878987622643558 -1.1164712087710966 -0.0882402604953319
Ni 2.501798089652368 3.630512304282949 1.607542874016237 0.026500617393689845 -0.8824583978919188 -0.6897156494061218
Ni 7.824047229459592 1.0066320372366393 7.27090260770758 -0.34212615614935277 -1.0339891909157806 1.3598875723523614
Ni 1.2837759375764406 4.624630031789786 5.927978125813889 0.3919857599839572 -0.3796508925676881 0.38039496982256427
Ni 5.824072026765014 8.611916814283084 11.311435398422605 1.1513495087055203 0.4386656805389994 -0.3137956846357757
Ni 1.9602392363787684 8.783179015745675 10.072820161126128 -0.22356487607297626 -0.730345250002026 -0.21416132337088925
Ni 4.346590252453667 6.703470582378889 0.07208559694844086 0.6355530473207893 1.885694881005875 -0.7202171604290887
Ni 6.574902614334528 5.570342297276872 7.241919055762152 0.9265499888944947 0.5313035558813947 -0.16349413603332488
Ni 5.830697798508608 0.3298654460657665 6.281034706189522 -0.7782901533124209 -0.09243244419980855 -1.8546899479839283
Ni 4.324986503740399 2.793882638670331 2.887543054906117 -0.6143023654721291 0.12216031028154443 -0.4170360180843657
Ni 1.8312326609091267 7.234885472433776 3.3721846624876672 0.7245332713059394 -0.7151425741196586 -0.4728716369967469
Ni 3.9243699471477886 0.4340216446677787 8.310623375748813 -0.31151743012456024 1.6431889450540216 -0.47997945168612177
Ni 2.0599617671562993 5.747474372579915 8.57708578547211 -0.5080677252819057 -0.41807808619563486 -0.8405450454875846
Ni 6.0926304200567785 8.79952880742846 8.279304005961945 0.8926165693718433 -0.9215671909679226 1.6237555189197583
Ni 7.595168810046366 8.348005793284713 13.215612206984977 -0.33820188139428203 0.9464397858398861 0.5039647588571257
Ni 8.927462194517096 1.5829341978361557 3.3519704594259783 -1.5813533998044635 1.8417130761082863 2.329426406103556
Ni 8.147020939704733 7.054272533947125 8.891612103347814 -0.5417448058193767 -0.21596469512821515 -0.8120741917414015
P 0.8730331487035853 3.565981020329493 13.260589065429238 0.7435558351550291 -1.747093651559488 1.3320481815425897
Ni 2.3932660820777203 0.6528690189441179 12.194644239392689 1.5989160912785751 -0.8772513997696827 -1.5551217198014442
P 3.3487490278683882 4.104609602719306 9.317604432511102 -2.4008542230272396 -2.1563302282040926 1.9911021401987967
Ni 0.023484161398246026 1.861431248743311 6.0226995987359375 2.1255800915054297 -0.3238145023243585 -4.040820290268589
P 8.88227629764036 6.904446103885993 0.17657495055220843 0.09783047528692827 -1.3672869501402258 -0.9826697147061979
P 3.9762096119867545 0.7976542632363918 10.423733164361616 -1.144497004560061 -1.3421325623617855 0.8976073377182154
P 5.772335014727711 5.888248691949095 11.19251119449068 0.09759084847229645 -1.080131493799798 2.1666647773608814
Ni 9.074731636609574 6.958124187081984 2.2576020058166986 -1.7377533479951686 3.996302153251556 2.7770040444202047
Ni 8.297575271450372 5.064618603855951 1.665891659687818 -2.517640927701696 -0.8274280484896525 0.1311224045708387
Ni 7.0267895793205275 7.372132268254957 5.802702513080992 -0.7530141523544515 -0.019515187214792198 -0.082865883557296
Ni 8.970819005109686 3.0533702571243855 1.451686058461146 0.9194871685104422 -2.1858241238981515 -0.9774349486698198
Ni 1.5878895285345338 1.3506869001138633 2.3916600323353645 2.0159677930922246 0.9178056670429613 0.07399017833422096
Ni 5.490469085511488 9.31114103883559 13.642561073618289 -1.5627360418135925 -0.6051628650647062 0.8474754540588307
Ni 5.58870781670137 2.4592345052544347 0.5325543361533264 1.632158141161157 0.40831715015412906 -0.38891432014748506
Ni 1.7245017433999914 7.169327660463706 12.168310996144697 0.324757325853602 1.0239071240894302 0.46852313022006403
Ni 0.3301724712634626 8.818267609768089 4.117634376835552 -0.23165973726596875 -0.44472551357983414 0.5869278301139181
Ni 6.652050860819448 6.122213091080995 3.5172918632942425 -0.42429398519835954 1.1867628552078078 0.004887152888972228
Ni 7.078853213908572 4.745172417158808 12.643255646798405 -0.8931832405085908 -0.3395002884907314 -0.4050785886121733
Ni 6.469748817141825 8.41858426046331 2.102087677336241 0.7855910578492082 -0.7223835719527881 -0.3518564960632392
Ni 5.954030473668243 4.307227569052991 1.9324361916524444 -0.363472997256245 0.2968783400551468 0.4756047196571938
Ni 4.293780052035358 1.777433260765718 5.2497407999573955 -1.43045432682733 -0.22143240311100573 -0.5126548304319558
Ni 2.918923083166694 2.919818962163011 7.465971860290007 -0.01109688124410992 0.26929348845834267 -0.03444198372795359
Ni 7.953100465293625 6.841267970499891 11.318865594848308 -2.2975339282703335 0.7528580863925615 0.8629041299090753
Ni 0.9345137780331243 8.151994934548867 7.965378673579607 -1.1312470815286904 -1.7133582069802558 0.26671030111219873
Ni 3.4583448917511626 7.535919479342029 8.576061123870074 -0.04916540598105726 -0.2115701656049453 -0.44518548393538815
Ni 1.7730471865129163 0.6442181873859323 7.232850147339018 -0.24843824227588826 2.4710584519564667 0.014892086620484031
Ni 5.478365386988331 6.803641052654579 9.41295395393786 0.6323054869177691 0.22947352824792738 -0.6973289429770055
Ni 2.4508449717368417 5.379156120219107 13.456137053350322 -1.6531709959673981 -0.49911103030925 -1.2637815359557074
Ni 3.4474543627021847 5.483442034634127 11.031697181822635 -0.042406747100985034 -0.5394894341262967 0.26614980062303845
Ni 7.254258855729129 9.031533471255916 4.261963282764077 0.8058986590583088 1.193301427657274 -0.7488739049338329
Ni 1.1414804903280975 5.5097024877136676 1.601669267346634 1.8048899937426657 -0.9291149214081934 0.5500574394501301
Ni 0.5725954612522551 6.515671947775948 10.366107614338103 1.5025604007649607 0.3533991579600107 -1.5736740288823348
P 1.8450721249876483 2.2126718077368275 4.55036166299511 0.36018429920264416 -0.6786766179831409 0.4153923118333556
Ni 1.3975619021815724 7.90570286714473 0.8441317189994852 0.06508593386605564 0.24278078687979482 0.5887877661407924
P 7.551121426060782 8.84936207659859 10.06907799990193 0.13588280207395953 -0.10082581046982635 0.05014705316803622
Ni 5.023333513442344 8.308764426831456 4.453168123967599 0.201682217067272 -0.6578257426760606 1.179465807325762
P 3.204951116886639 8.541235694302827 0.04290047222884037 1.3184226203393552 1.1415885726640147 -0.4778521209304738
P 5.102917430948501 7.205153488243506 6.820747675447794 -0.6472430820642079 0.3862357448740574 0.5639678788836352
P 8.491682387319047 4.824075093344848 8.23862923311458 0.6260726186341798 0.5527794663669835 -0.5181621334034302
Ni 1.0023299516397421 1.0849934531957377 0.10301208646713243 -1.2026599860540386 1.3332468298363813 0.540963704678978
