# total energy = -340862.19774516486 ev
CRYSTAL
PRIMVEC
9.38707304341926 0.00000000000000 0.00000000000000
0.00000000000000 9.38707304341926 0.00000000000000
0.00000000000000 0.00000000000000 13.73893025892877
PRIMCOORD
 96 1
Ni 3.0201405160930483 0.8446075174516267 5.029313931183137 -0.2766686978764913 0.6763248299215127 -0.19620679577499758
Ni 3.8549235230355494 6.395994773092652 5.027871138076648 -0.446260976387754 -0.5593373220901594 2.1155273352551176
Ni 3.3418542789143255 2.9880648879546174 3.346927053115674 1.4747657471501956 1.0077284574470387 -0.700719199605477
Ni 4.756767778857462 4.226792416422714 5.2485321222988555 -1.992501848759801 -1.1155291565728014 -1.2164966348268145
Ni 0.769815075322343 2.2528411763109744 0.9190798603946299 -1.3621154332416154 1.1379435197122596 0.18623528638458248
Ni 5.635857769942016 6.783831077502197 11.856119967181252 -2.801034860117163 -0.8837861155644069 1.7002154989507103
Ni 4.466209711029293 4.1819128208330625 1.2390326083377192 -1.3775073423166535 -0.5137115538312443 -2.600203935306593
Ni 3.90594226430929 9.162505966191183 0.7318837911017483 0.33956585162134423 -0.028109870862338685 1.5361559773322189
Ni 3.961523123017996 6.6028670859152285 0.5595127260579227 -0.5931349873658947 0.2546654541325227 0.11875025615873099
Ni 3.4760706474022642 3.322254070675214 9.53539429569653 -0.3378185299129343 0.08609210380407754 0.9552301304380064
Ni 4.140037088575076 7.504401568331064 8.806627012801385 -1.3280629716425967 1.807491693031571 0.2516037844880635
Ni 0.7115842459307338 8.7488176629835 3.3019732996500224 -0.3569313394829853 -1.580772330490013 0.7157696661806964
Ni 7.576062482937086 2.62044833859634 8.447353693846807 -0.5784956401861651 -0.2902238108531066 -1.7158475490610126
Ni 5.902722865741681 5.444014160850675 9.895917972762915 0.02951986383598787 -0.09556713317404832 0.05668074052149594
Ni 1.2653492672449744 5.05333357334896 4.225778612548277 0.42647273801723323 -0.5112378954797712 -1.5350005235715372
Ni 2.2887842784889236 4.666633104761702 1.6916744480060537 -1.909786117627124 -0.12944116021367386 -0.6294140243025871
Ni 8.148120093233873 4.601336625589643 9.778957860408099 0.3428758898311837 0.14160633482129803 0.14695011563171467
Ni 7.844035253340302 8.00811190075957 2.675697833631272 0.4363725136294485 -0.15201647441102853 -1.057011619952883
Ni 5.648530318372476 7.4595125856685005 2.2151548946933683 -0.6756049210363526 -0.016925572110745045 -0.3052786483037001
Ni 6.10703250765943 3.0440400037256046 10.390505947736074 -0.511495777126848 -1.607187073038116 -0.23158851770840116
Ni 1.4677157850700533 1.6771319946516323 6.713184905477901 0.7720624272351543 -1.3576684532138554 0.79195659505592
Ni 1.3471388335224543 7.555110536198725 5.203097750700137 1.2661649485862194 -1.548758753697894 1.2477242253825287
Ni 2.790307422929061 0.8664484199947017 2.7272600864265857 0.5053400419380975 0.13853798030861947 -0.7813019435555513
Ni 4.399110913858236 5.427971653245003 3.1350035563594463 -0.13971066046048197 0.2444489186108371 -1.0449575170018262
P 8.89455196993379 8.523189978483844 10.580981860304217 -0.0692968866236097 -1.0130293008346618 0.6414203047348437
P 7.281214522788384 6.205840837125373 0.7638120421954695 0.6973186585643604 0.44645020958042464 0.5351756372422911
P 4.629676198709316 4.270038661325772 11.163498547238941 -1.3194837146140177 1.1514515815010233 1.7246877730604622
P 1.8127470370033774 5.646709226227655 9.469639727366392 -0.20323053539099842 -0.022119971827490936 -0.17298999133890208
P 8.673017049223526 9.140493280213828 0.7042876741566622 -2.4590352022433457 -0.0894983012721491 0.6005472206695658
P 5.36704016297677 8.015630946161643 4.5251089000121985 0.9508314871496785 0.6475724403791686 -0.15392834672176073
P 2.9974519608660692 8.299158096379134 12.805630840540227 -0.16141025692110267 -0.7017047034471979 -1.174912383627125
P 1.212096402618308 3.524517330698267 12.882953098819145 -0.7449360033320074 0.1024630889629332 -0.14360870996330752
Ni 5.931447308850724 0.6710564973428316 6.234066826662817 -0.5336291186907778 1.0299183632805167 -0.08617180800207741
Ni 0.7444211656822834 8.787107533389312 12.978013170071547 -0.30996808335956944 0.27384948326014125 -0.18460417853906272
Ni 0.5662798669197883 6.2481108264456395 13.523613315367406 -0.20799658932107404 -0.45704906814219354 -0.5108126350168944
Ni 0.5359446020991405 1.6152993453838993 3.8369125462403466 -0.14576817950847154 1.844847765082526 -0.2675448811983521
Ni 2.3496594463196883 1.173309017348189 12.866617714538638 0.7777540783032928 -0.5202578395901943 2.0956431947366814
Ni 8.084503900112963 6.714638963071885 8.500619700375548 0.305242652859442 -0.3926259646711173 -0.29586481118896785
Ni 1.9343847277899704 8.121507741529907 9.390531109112423 -2.4005397771106143 -1.1422084656362008 -1.4742795515423965
Ni 8.226060959617659 3.9501084423576707 12.200719413760648 0.3222052488557096 -2.4788810333246794 -0.20551804587359443
Ni 6.020624501509516 5.45238742988769 6.592392051253339 2.219051261382398 0.4469554313516174 -0.14607851166003874
Ni 1.14027590777279 0.14820967807703975 1.3765860812456787 1.817698972581876 -0.5466396720178327 -0.8482051331360037
Ni 4.024820155659916 0.8685989983987152 7.945223205789298 -0.7792815706914127 0.5537117483732658 0.3451232911044637
Ni 6.189845264884259 9.2119476792158 8.66743737308496 -0.5211420419673606 -0.039040658842229535 0.2526779913888487
Ni 8.91847023171217 1.524488802038514 12.474398585786735 0.16066849365907168 0.2201890176222079 0.45879921806408086
Ni 0.6100273815163185 3.2206483934816594 8.966163133053383 0.2841032997776655 0.6270025866476169 -0.1839698873891735
Ni 3.9476959646194274 5.499623180778115 7.524757435939546 -1.1796707242477167 0.1594950421762608 0.1989463061933477
Ni 6.9139640692736535 7.594808467541256 10.394462598968248 1.1628143148120103 1.3477709915944853 -1.3913059387626425
Ni 7.471180717297435 7.882907122266625 12.983288705047782 0.26789403700765474 1.2436683101455999 0.9071852112146376
Ni 0.7829626096421224 5.03244733612098 11.374240211515618 0.5930239157093271 -0.4524105409289176 -0.9628534513112192
Ni 7.073281470726815 0.5207244020805125 11.20541652132503 0.9814253007761358 0.07385519541825344 -0.5333743223674943
Ni 9.741247172400923 8.473682555948846 7.491522504296551 -0.31669923143581585 -0.04343595969644778 -1.1031148420688486
Ni 6.623621904122448 6.167438321844623 4.18483689404498 0.1844511979009662 0.21749938660518672 0.5495676442979051
Ni 8.28944247591578 4.310985073365526 4.918893792525729 0.8355856445997802 0.8814952626477013 0.25011048777198863
Ni 8.742124679997634 2.073191374931609 6.17467387764477 -1.6027647756007042 -0.0905550246714376 -0.4629407510362801
Ni 6.714873639894671 7.891449358616046 6.495615084365435 -0.6386777089927 -0.107049422782035 0.16278322600922934
P 5.922614073241047 6.81417009715201 8.285838778625076 1.7641464932767166 0.3425377897654746 -0.9345435486229324
P 5.062833291135349 0.7721524564772945 10.491830012742284 1.7070541191390987 0.7604520966897355 -0.06528339458884241
P 0.6038966841978493 0.11021831658981185 5.388504643896095 -0.5034577373137201 0.9358393846162205 0.4119462622662841
P 8.840153882411927 3.522602367824331 3.0059538328019713 0.3421145861851269 -0.3643083486733468 -0.9924021115026135
P 1.9603399843901346 1.5246859305696547 8.878083289217939 1.1296236869926546 -0.7334151471766014 0.5691324538037101
P 5.687758896069433 2.858344927391264 3.5660494960876945 -0.23671118364694715 0.015157681577044864 0.4712729250510594
P 2.30874119549867 3.0117578599831214 5.130171458665649 -0.6650279168514547 0.9137718632932198 0.9178825430274837
P 8.883221772929668 4.341042480827994 7.316090314776301 -1.2707546248394308 0.11912512299964646 0.042088187419301704
Ni 0.38619168923545805 6.439034502391658 2.049010275111709 -0.5027267726849665 -0.1508430229282176 0.06007305403249654
Ni 3.121351936224322 4.959246941557479 12.504569576831434 -0.42031623149753417 -0.8862026954256995 1.2431448335419624
Ni 2.907082609947522 3.3916245394908437 7.248453638327417 0.513077005571039 -0.41593764281386436 -0.6320357781961503
Ni 6.612366803701618 3.1742480920803526 5.923237374882367 -0.3932288883624389 -1.0887781137312023 0.9774200362714845
Ni 3.78962704386349 8.461629554330543 6.186530689439225 1.6222323974070127 0.3422732232501783 0.5812474918996893
Ni 7.633323627696942 -0.11158882923488382 4.638771333653222 0.416089080790064 0.4801113492782957 0.27101124248039776
Ni 6.694644497770493 0.5908552238019692 0.37490655018131064 0.8599828424972221 0.3078520654578311 0.12821628666763726
Ni 5.514248240374157 0.5540719785984451 3.1026904352763554 -0.9433737453200527 -1.306665222693111 1.2443252270033085
Ni 3.332326399909202 8.113209569076183 3.6012754258952087 0.05755311582412023 1.157176914020575 -0.8177167347391594
Ni 5.211646558000596 9.072906355251375 12.488989851920298 -0.9481904499824058 -0.2853132609253667 -0.7720004636489672
Ni 6.412807020677063 4.4658154539670125 2.049490893244775 2.4593506766012356 -0.05535199440774338 0.7399393214483644
Ni -0.22226805110464795 0.7020300831214581 9.119833271443014 0.7423438171247989 1.0075903892072777 1.1525016200320926
Ni 8.52871896442869 6.591189567213382 6.074723141405504 0.658806104311459 -1.3303165435634636 0.6493202763082107
Ni 6.22263431056396 4.872782612970095 13.067192240144921 -1.3883021189393123 -0.5672216099342425 0.5416825851228736
Ni 7.944035741065999 6.065757548067777 11.822775206785193 0.7179095953418346 0.48251790183725934 -0.9613892080608669
Ni 1.6013032196729244 2.126509949068655 11.06867315280933 -0.782087415571324 0.922727786934927 -1.4991066378884053
Ni 3.182471167950785 9.492583610976563 10.518895760067872 -0.7219477699669502 0.5702547403336113 1.407532170813518
Ni 3.2422668223967333 6.542508207094593 10.797796022047311 0.9673073733175148 0.005099783120410572 0.3260847864157739
Ni 1.3701840975200688 5.03257875514174 6.506427114944845 0.5273517703224982 0.9334914532093342 0.9364664766772581
Ni 8.763198658683844 4.146251330842457 0.7672186109550353 -0.6634248340303929 0.7686431171409601 0.8351393010909809
Ni 4.541634841872809 2.1458191580475114 12.510765983660283 0.752925192185071 0.7167196887987914 -0.4308806372769418
Ni 7.47586486668025 1.748548845361958 2.8141862590012123 0.9444024436948831 0.48451333500073335 -0.33937841820088643
Ni 4.989182317072099 1.8880219746803097 1.2856591381961915 -0.6624930662447429 0.8773388172771664 0.09403861234466385
Ni 1.1484051129141073 7.334842870331508 11.489345438263133 -0.02928666477925924 -0.8177954104958947 -1.6217256329739231
P 8.157216166885071 2.3957969096794742 10.52136925378004 1.6896693480037481 0.31260809208557777 0.3269916145007594
P 6.764033740731945 2.857321736443916 13.719667965366824 0.028190860611919187 -0.7731219788479201 0.6720521706880878
P 4.937628512642405 2.93441776626567 8.002803511028143 1.6387571345349132 -0.0523376330614518 -1.1636843761217894
P 7.868479191201723 0.4634304025654662 7.432280687152379 -0.936592203621845 -0.23712950213128836 -1.391750225388913
P 2.3416804343449544 7.3956241674331595 7.242394282763074 -0.22127942247290922 -1.2248216097527422 0.653137850282088
P 9.060121161945977 6.616121632866198 4.052984190516145 -1.1239029824587936 0.21926187782224818 -0.06470721037039824
P 2.7814272519548275 2.5750524539965585 1.0640416112443074 2.8133584146795223 -0.8922663851212762 0.377075418531028
P 2.449425257222599 6.629423115181726 2.4022514610133885 1.188310916421218 0.2305042835052869 -0.1724809129129675
