# total energy = -340863.18067640555 ev
CRYSTAL
PRIMVEC
9.31658866381203 0.00000000000000 0.00000000000000
0.00000000000000 9.31658866381203 0.00000000000000
0.00000000000000 0.00000000000000 13.63576924470365
PRIMCOORD
 96 1
Ni 8.390547664547464 6.2668219711162205 5.792052341472223 1.7004114170116005 0.8960402503414117 -0.33413259642091486
Ni 3.187027953089276 5.586664418620517 8.336064254274266 -0.7378940088835615 0.5823096146156165 0.19340249355698305
Ni 1.1932407211970708 2.4619737600144784 1.3692767315888392 -0.7747893392480141 -1.1815530288720941 2.2350365810670607
Ni 6.929986065961732 8.838880542311976 1.6210882838951144 0.7956294159218169 -2.995054932653487 -0.7908548773513089
Ni 2.2556485883471975 4.366703721249791 10.129317505987872 -1.2860930549687142 -0.992563319670826 -0.04677967935770008
Ni 5.102294976058341 4.223312105737684 7.953390034837449 -0.3447941898998191 2.9042235143922115 1.1819140117559386
Ni 4.311558833184288 5.5013617331791 0.593834700599957 -0.027420558104797935 -2.854936752341941 0.4691260539113856
Ni 8.664119972902835 1.6078568647312983 4.243764812743969 -0.7727987911805465 0.8406453185108749 0.20964132401334862
Ni 0.05921064734102035 0.08201579297486711 2.4504975861474256 -0.13075062305371676 0.14092627803513794 -0.5331889458295656
Ni 5.509914361535938 6.891601720830819 2.4725192066779926 1.0421002500586891 -1.2267360531666356 0.050764117926744824
Ni 7.626438331960824 4.723053919529473 3.339058841232425 -0.7373638474117042 2.218394344524689 1.3018307774189453
Ni 6.194804741052638 8.304220154357406 12.225012379226065 0.6381367488875654 0.03518708942409424 0.8526130323957124
Ni 1.6276825653231872 3.4682678138822047 13.102719808564094 2.0093330613845266 3.4006078897989176 -0.7809129356472486
Ni 1.2852327172705256 0.3340379001840447 10.301455455699356 0.055847960207555426 -0.1449359134151633 -1.2566942900916227
Ni 2.673888884856164 8.966704138233366 8.28573417920965 -1.0870642163638893 1.2497363707165507 0.24334745801654217
Ni 6.349786192813011 6.685202016454546 7.938185362203068 -1.3114605871992253 -1.3578044645710874 -0.5187753415073969
Ni 8.259612328025657 3.635006800486076 5.973544146162211 -0.6928493099390971 -1.27975425723488 -0.9997660080668526
Ni 5.8779009790070065 2.1929852132621197 4.550188344246454 0.696336240046433 1.4245400182254242 -1.3562288925538515
Ni 0.9512050653339673 6.343292530542078 10.322823051708518 -1.607919066108134 1.044610932295685 -2.5027614394867026
Ni 3.7803083166661042 3.8028451445475797 4.550106358266563 0.3029985940202717 -1.49596500693563 1.3173736102495506
Ni 5.574813717890779 0.4107096979241809 5.863790073877084 0.3610844424194104 -1.672289976185036 1.5302205856843905
Ni 7.711424253389026 2.775039087547019 8.523118994031648 1.8779486614015528 0.948908816205669 -1.7093544851375013
Ni 5.7464439135222545 2.446461639955505 7.138884479406965 2.2786718012585077 -2.760565953468839 -2.767941162886988
Ni 6.654252309045592 4.546010785907448 10.134471442814675 -2.2497913707787323 0.6134119924473758 -0.3708222385324646
P 3.2060151607050043 -0.02546782666258823 12.184023115915878 0.23389068347901654 0.15426027613988272 -1.1199871923441551
P 6.471833503787515 0.3830003000386563 10.384197010928034 -1.0613693827009463 -0.4318257747990305 1.3754188352187409
P 0.2788045045266134 8.004235317252972 9.151291845323112 2.3553528961613304 1.6709146931040644 -0.613730037908427
P 8.87608168068764 8.109605934590503 13.54578695043832 0.5442135790748435 -0.34408019455193 1.9625227858992071
P 7.109544678512238 5.9432195818499265 11.676541080295266 -0.1912895609790383 1.0438156900878992 0.0974707779546644
P 9.103546191942796 2.488069524750325 13.142386116289671 -0.24903756642278402 1.0973445152439747 -0.33470800930841066
P 6.379813557948189 1.3562530723513386 2.135607138903442 -2.159457718089481 1.615013253950754 0.7265073643131746
P 4.348182343065264 4.080311786947786 10.117058738676404 2.1178912075016045 0.3376071852330766 -1.3786429985829933
Ni 5.346324381886983 3.6416402115863695 12.25599283137748 -1.5383105617813764 0.40571545086522387 -1.075725137201986
Ni 0.5084239427305014 5.899534097791953 7.768652330670858 0.24857116830932674 0.7260170549403173 0.9411214589507663
Ni 7.548057871867045 4.0210023837673505 12.64653490990727 1.3110512675759487 -0.3919878168664862 -0.11572201085536844
Ni 6.119004976007709 3.4830718732057537 0.7951102812330256 -0.31547024412472124 -0.7479161690062538 1.5853838611200954
Ni 4.1704777316509345 2.0653945320563305 2.6238625305806904 0.3208443639524409 -0.20434845104552551 -0.4349185547917413
Ni 5.243813957257022 7.6284227653377386 10.31589616806657 1.7229327380425683 1.3725571974002297 -3.165222624052246
Ni 1.623844130810096 1.5474201543273582 12.204258746407225 -2.1223240464619773 -1.7029462676183125 -1.811374315915429
Ni 6.365130614276753 5.397248855305811 5.770452762406322 0.4902147562608848 -1.474766518481144 -0.040146490311898604
Ni 7.900234238443172 2.7513470026761664 2.363242143730416 0.015767033026269618 -1.5019518206466842 -1.7491027115697169
Ni 3.9092592198109988 7.214216551702967 4.180767903786152 -0.049928509399326915 -1.354678517347596 -0.4487924845603561
Ni 1.775592726317938 8.002958944611484 1.5041893197942366 0.23549170941754927 0.7440618282571702 -0.8525726660760802
Ni 1.257646298354838 7.953599658081489 12.153220610607184 0.6370789970470124 -0.27947582830798323 1.4270584137719038
Ni 7.630183600587676 8.649809692776358 4.4758047006723745 0.20016218087831977 -0.7368108031217117 -0.6183400258766125
Ni 8.066097465716387 0.5452608024909666 9.060041449704128 -0.3600089499670445 -1.472415244640148 1.4145533393263574
Ni 2.949119545986608 1.1337915691872757 0.23887174236639036 1.0930073213212015 -0.01930358542461837 3.0625294213563774
Ni 2.756676091369099 4.094677966606006 2.5888871252273025 -0.5552973476928308 -1.1004632633786144 -3.2166979091134023
Ni 0.6284476906558716 6.63374649748415 3.2670481327808805 -0.9938869235782559 1.2261963786130818 -0.3518513538569166
Ni 3.4340666170434715 7.319438103622514 12.96306228177249 0.1911041844411096 -0.01130848303428375 0.866380775603766
Ni 0.5503420699265005 9.098133253952247 4.758037709812623 1.8514935525338179 -1.443057103193005 -0.041493748368412416
Ni 7.498223439317227 8.410513113968713 6.90942155989196 -0.17160005296991093 1.0871390354658825 0.19947389656204356
Ni 7.053719679477182 5.81438047776852 0.49456085885797757 -0.5744736635109655 0.8334765686765775 1.1243688663516183
Ni 4.182281849437553 5.667131794566075 6.094261979940069 -1.5219490897042176 0.24192563796835106 0.3044173287446693
Ni 3.1947793548244507 0.04938723629586633 4.503144229989526 0.12186026254262239 1.1644266536044527 -0.9967714442149028
Ni 4.346160643333853 5.904304191167445 11.152163411205011 0.00015298063809651073 -2.3137179942293638 1.3021267113928092
P 0.7271914185051449 2.263213658309892 9.34307941210149 -0.7618042398422559 0.2751224364352939 1.8128719835068778
P 4.2000858502980325 7.531902907193016 8.16036736770841 0.9367302718616061 -0.5912573107272076 0.45045213165096615
P 1.3880133229705818 6.44174092253197 5.703310903169684 -2.7895785386511056 1.0743367414948914 1.4588611601047972
P 7.9718788049617935 4.801909525643076 7.638021646597054 -1.1337922165480474 1.1609554072264008 1.138504277311736
P 2.321535503096182 0.8751574790316398 2.6770555933294644 -0.9073122237108052 -1.2352155513925565 -1.5078494170780419
P 7.772140461451686 1.2034889686834795 6.177030553275755 -1.0877722981745073 0.6862554587716633 0.16770328901866602
P 5.356237232182927 7.223607673035968 0.29230330978393854 0.7165096296705143 1.7696594526751457 0.43498206103982506
P 0.33442826524739067 3.573126018845415 3.3132872937806943 1.247723196941264 0.0019794923238740103 1.1885939948792754
Ni 8.07710035688134 0.7628460031692236 13.518883437468771 -1.3388880872825588 0.21256235431488552 0.7739179923866543
Ni 9.17224671645623 4.594373197454674 1.4645630733997432 0.06912487982211966 0.7408078400962468 -0.8921565990162894
Ni 5.479085769779096 9.061509744071271 3.7233010425346618 -0.5703750679615597 0.3125402149621198 -1.378569979253213
Ni 3.972537489745261 0.47688170028505994 10.174274704393024 0.6848030425958529 -0.7430791526289267 0.42880061481946147
Ni 9.014964067305726 6.024180736992555 12.885501681477624 0.7254755806145506 0.32122514433062743 -0.48351780385668336
Ni 1.0935811726860574 2.740222995859101 5.415118072286658 1.4344559917875555 0.20277622146239915 -0.0035393806118261626
Ni 5.365628353515928 0.13693801457225657 8.306760788075172 0.5584405213075028 -0.5197685586586016 -0.43243872579268106
Ni 1.0317842403430124 3.691465327547564 7.796864824342078 -0.5621441954113351 -0.5422999069918983 0.32259862763938635
Ni 5.486660156330415 1.3145147553157828 12.92949088632474 -0.26787938171963543 -0.1996998965299206 0.037231887768264915
Ni 3.8293228894170106 1.9035094881255676 5.985529937426996 -1.6096211364009052 0.05296523934312169 -0.2241446598358462
Ni 4.404221623638671 8.921397567754816 1.5295378941224376 -0.3402515648344591 -0.039127562129080994 -0.07553721110636669
Ni 2.819963677891985 7.798282809130653 6.2672589191226855 1.1505678933444894 0.26177686836632336 0.25416691722954937
Ni 0.484868811712422 8.096963323827724 7.052215050414405 0.8224758466906996 0.3555318880322974 -0.8221135782552743
Ni 3.6229790845724814 2.2799835178331063 8.33464533782683 -1.173574895762624 0.23365182799533304 0.4064754689597
Ni 7.822226441894353 2.141035915094651 11.200257504999866 -0.16372193577341482 -0.8221971391080163 -0.08499012898915041
Ni 8.77977610408127 4.160173584632782 10.103763966709943 3.1883162726469156 0.3084408480817656 -0.0006530602029666173
Ni 2.99826455097825 7.693368704635699 10.689120571662054 -0.9833063198489322 -0.06335403877661348 -2.219661384162571
Ni 2.096260390167669 5.361957617598069 4.232051997525867 1.4286296149137654 -1.5166009380184267 0.28726241423193755
Ni 8.589102801302323 8.778872394984742 11.593212579983275 -1.836870403304004 0.912052566609268 -2.2393449786344273
Ni 5.774691810230245 2.3182840136664034 9.374850842627081 -1.4357284307420757 -0.7420967341109994 3.1708669668222162
Ni 7.773407517504552 7.40020361040404 9.574873342090221 -2.0495422866135606 -1.0430924387686293 1.8501429520431945
Ni 3.5117203832245782 2.4586943208188274 10.964303718190516 -0.8285199960022505 -0.5111167965208746 1.396787273592188
Ni 0.21871064458403708 1.1040343851221943 7.57593776332439 1.878942906994022 0.8351668118948068 -2.2879334290660918
Ni 1.9173725719980916 5.603015031655651 0.5661364826207813 -1.2084058873988803 -0.01375103103750535 -1.8232666964776407
P 5.453642166246931 4.763618346398403 3.92249250229254 1.0262391146567165 0.7052571966851466 -0.7952308949318175
P 1.5206722283878316 5.320126134676273 11.888563345906128 1.3453559543950895 -0.799886391425958 3.266472409433368
P 8.018843728215417 6.995612116229244 2.6235085002129783 -1.4504857915569085 -0.0030012487201690244 -0.1872873817981807
P 1.9514526531847127 0.6078011986062073 6.15233600346896 0.018808390955754702 0.5858446243520685 1.5116502788813708
P 2.8625498044923257 6.311932893233667 2.231561480118687 1.4781925134435574 0.4462501777544766 2.046833886543462
P 5.9176269128997765 7.509943707806229 5.4644121426962835 -0.13046548771313016 0.3376642637232572 -0.03868173284091403
P 2.8398359614269943 3.847117573688866 6.741074530091585 1.4016194048735087 -0.13173458423354087 -0.6271982475981909
P 3.9800000772330915 2.9892926761333305 0.3803152591972172 0.6934427205487218 1.1976553337505955 0.07834716975133603
