# total energy = -340877.08973009756 ev
CRYSTAL
PRIMVEC
9.18116868012353 0.00000000000000 0.00000000000000

0.00000000000000 9.18116868012353 0.00000000000000

0.00000000000000 0.00000000000000 13.43756841011164

PRIMCOORD
 96 1
Ni 3.6115044302048673 2.3017464794733855 6.750644169335556 0.16790974860251726 -0.5391104535203232 1.0384562255481986
Ni 2.2577686824917875 8.360730076310073 12.41124676688034 -1.109362108530141 0.1213439850278362 -0.579429207744028
Ni 8.979944802745749 0.3639194834316872 11.016991768349124 -1.2053560448289629 -0.3994188192232347 0.725592565808389
Ni 3.8108000542298246 5.979447134362453 9.131969344658147 0.2717686894717126 -0.13039066861113674 1.0009134914077342
Ni 6.1095626539497605 0.7125651749931058 -0.02777946144618382 -1.140149783334959 0.539838075714967 0.22670882101859666
Ni 2.889598334408196 7.184824380734064 7.416784765949236 -0.20003851081626192 1.4653141148189923 0.369609449171286
Ni 2.679129228352633 9.305022434839158 6.060531541841093 -0.13742700663262783 -0.1519452548534609 1.1123237622616262
Ni 9.14757457671026 1.0667599647790917 3.1541739025038336 0.3600876257237799 0.4438801348604033 0.07414470163421424
Ni 4.77495128016417 1.6024076957812587 4.552432808605757 -0.0025235377528021056 -0.8358836354561733 -1.426483257994724
Ni 6.979634446549987 0.20231714656914146 9.507724272367284 -0.7932637439031177 -0.8573801147670524 0.1753340660910464
Ni 6.098389171919155 6.978459256985551 3.264267129887077 -0.038337205017301715 -1.1031778340963 0.5849185129933733
Ni 5.1436211001633465 3.9284383658634803 8.806552009331268 -0.8626287647605014 -0.6273255172046744 0.08827831282211894
Ni 1.3129621785282624 7.58577518908132 1.1421896905957334 -0.3784255048010192 1.2090715460073371 -1.0602260131251222
Ni 2.220713486538191 6.593860109687194 5.344107521739142 -0.4977861408502395 0.30018734982372175 -0.4567490204032714
Ni 1.9557357832634739 5.319743454964598 10.844897192156605 1.4017124788079474 -1.2298763985678303 -0.8428646947596968
Ni 5.548749340165431 6.59251965909026 10.780154346441543 0.8216366386188559 0.41752838433975187 -0.3625710542672659
Ni 4.136364288252259 8.941631786711467 10.262190464033585 0.21747701800768354 -2.984007159479758 0.805615323489935
Ni 3.5362739357440716 6.052134445156464 -0.3641958366026989 -1.7388319257713278 -0.9609788599963256 0.8754850518978794
Ni 0.9022416888097913 6.918249154145193 3.2702201995244184 1.080331525625746 -0.07369604413256985 1.1898890595416152
Ni 6.456877076082717 1.9304875699650619 7.895700220728294 0.0285191904856154 -0.3701426959669367 -0.1102134223323134
Ni 3.688589520697038 1.2692689977693012 12.03327550510203 0.14464152210319606 1.2523324135785012 1.5071685889609334
Ni 2.3894082760454722 3.123047905149551 9.15767569826332 -0.3827562709658892 1.2711811708538883 -0.1583213335831338
Ni 3.4987780437038114 3.326759671209612 13.577184467846138 1.531809013217433 -0.5547892977081607 -0.05677921377257318
Ni 4.626491785969506 8.090693549207202 12.856339715124847 1.078012390574266 0.3009270562032237 0.23121879307380822
P 5.683923683580894 0.7190011740920829 6.138724799367851 0.7511123073460484 -0.7602019283521424 2.020502190627469
P 2.40763289546269 5.765939061542609 1.5439089627441087 -0.7918676348865396 -1.4987389701363414 0.6986229791980807
P 8.602708952562056 1.909921752587446 9.054905370853463 0.9748111378937278 -0.22155093096674103 -1.524873462439864
P 1.3414054384549827 8.933983873374165 4.3002637534665356 0.16792517522148498 -1.3570074225910886 -0.1897463848616345
P 3.5469883593510705 3.060661865381293 3.7369476531566983 -1.608917168355345 1.1061261180913466 -2.090681994076664
P 0.10654470576875745 8.435501512347262 12.94580652941856 -1.0168016233929005 0.621610211987452 -0.23999628215612218
P 3.4082884472423025 7.024567085052688 11.216096424069859 0.184382806556876 -0.8890579054863076 -1.9395294103278273
P 5.6660846732395065 1.0439080364519109 11.214913889570646 0.17658439355837977 -1.2307099502127192 1.0275683749911015
Ni 4.054211192763462 5.227876683232266 3.0470085497463586 -0.4156859318143744 0.2146529182953271 -0.1629518903766097
Ni 7.213625706231198 3.9933951328039408 1.2549629010559973 1.8209370199031993 0.03178680549329364 -1.286920693076332
Ni 1.9621993258678674 1.8643097076178055 4.572199864326295 -0.48400014280974063 1.742852874005263 0.947217287435859
Ni 8.29785743461279 8.111461352291204 2.5212507734223912 -1.6817045846307168 -0.14307314917481168 -0.4295122961745055
Ni 8.489293978425588 7.509240968697479 5.210457252290056 0.24825595106175308 0.07865287391721291 -0.9181697352505993
Ni 0.3560806017901656 6.43873508718175 11.935167375042331 -0.33189907910470584 1.7059817120105263 1.2214547501630382
Ni 8.575018548450052 3.67070460451329 7.5297948505560806 -1.077050797991945 1.007627155982484 0.6118019676477786
Ni 1.6461100577086922 7.448351459390181 9.658333078101276 1.04383754446477 -0.20635751105575428 0.7466990087697011
Ni 1.5757088578642469 4.375965241869953 13.250301818031105 -0.3017505805457835 0.5000420267639517 -1.1424509206643099
Ni 7.876184729023893 6.446245282991969 7.36799328233769 -0.3934705720595998 -0.9959690029182652 -0.3077409938012635
Ni 1.919038652880291 4.115063977396871 6.237987920421347 1.9169276137679117 -0.3158435683037399 -0.11081660313395109
Ni 8.45739859915334 4.40686905494721 12.580681558566479 -0.4954230399347016 0.8284163805448507 0.1462165798997998
Ni 7.959558919919486 2.097520567978884 12.610109957870261 -1.2742366698507603 -0.2940889502354677 -2.364856978997024
Ni 9.29593307805173 5.261406310492558 5.777697384004891 -0.7058822318636552 0.8571893389124849 -0.8750993864236865
Ni 9.558330872985772 2.8604205810037047 10.816220730550691 0.04464334974098763 0.9190968750505591 -0.36699977946258083
Ni 7.0020456787905045 5.229602742905031 5.140246102632985 -1.027917530800404 0.11869266344791816 -0.08693851096477286
Ni 8.177795294502488 0.8855494064105758 1.052966177266534 0.18553774609692564 -1.5063486641627992 1.0299003655583876
Ni 4.263440841075284 1.8307433556836257 9.409133212845948 0.9982935372863839 0.2705381594987212 -0.09870156503797195
Ni 2.6619788056466573 0.6210702405838964 2.719750390140813 0.37232016323422973 -0.32484011537539537 -1.211678644612881
Ni 7.062017071250588 8.373950958909969 11.83247784191503 0.1327709959178552 -0.4057344770286173 0.5587783642628957
Ni 0.2998312550286923 4.951128721976254 1.529692841481832 -0.3779112841687621 -0.09319246229428467 2.446949731833721
Ni 4.341067620507312 4.505318724474073 11.257430044531478 0.008723753026243041 -0.511795567755454 -0.015324546172212319
Ni 5.782713056341226 3.06970531632636 12.912038191777992 -0.083475749227153 0.06830366947240495 -1.0554825849028662
Ni 7.006571994847274 2.4964515192622674 5.545012604597267 0.33617430944129195 0.18609721814482144 -1.1483773134510737
P 3.2127846457963436 0.22927213908652622 0.6089061104751451 0.43909171233282446 0.3481415091054972 1.0985822443058175
P 6.835435014526401 1.675636695515126 2.9899797217815998 0.26757470599502303 1.3756618044674824 -1.1131722263048507
P 2.4708176968880253 3.26093987443277 11.57572554747451 0.4674160131988144 -1.0020357779376357 -0.9648496558056414
P 6.210821761029102 7.18203330551853 8.521984446887524 -0.42136729846986787 0.6416661021970627 0.6615451005091768
P 3.5600807055923562 4.560176206095168 7.5368358886573725 -0.9247437889236914 -0.3153368038706505 -0.16639279773735857
P 5.1254974735993235 4.3364403115973476 1.265945414782383 -0.9932773150187152 0.02955894460403942 -0.5298177153644875
P 6.735406184022328 4.432098905908678 11.293040124567558 -1.6465558046437256 0.3014165942451325 0.13786717949384
P 4.3777188450481335 6.27931327783134 4.952818975091977 1.0913371327076302 0.4310333608047222 0.36377664453959285
Ni 0.9690906945723617 2.1882305124837247 7.123093876394718 1.2644991308480222 -2.322590099908013 0.9525721239898691
Ni 8.4130719177698 3.439063723960949 3.3958745893511084 -0.19139549042928328 0.6569870488248492 -0.8564966837208347
Ni 5.342889180682888 9.065908083150488 2.595439205261598 0.5078013589943964 0.2120746160451896 -0.9099645737319877
Ni 4.6431556067464586 3.992724907505474 5.290531731236758 0.5503749706905489 1.6022351283494793 1.0758981724447405
Ni 3.786561769463349 8.236802664272995 4.197372234632847 0.22719064575102163 -0.19098000015841948 1.4035631588634407
Ni 8.23605898962675 6.617455712660619 0.5153720385482712 -0.9549925605059035 0.5641519698699833 -0.4214593439630419
Ni 5.761054679915425 5.745051903268468 13.180171462656586 2.3210194129867836 0.13756481776207274 -0.183839018238264
Ni 1.9719405456168184 0.8677406939251466 10.491851884663332 0.670273224410794 0.39806307652628864 -1.4189033887649372
Ni 6.044688517525551 3.913932119677484 3.147346785627943 -0.39556833512889295 -0.8963032741948112 2.2332108407122315
Ni 1.1171003115118896 5.5315530116170954 8.21379373796494 -0.055483891999917344 -0.3903988751128115 0.18962374324084116
Ni 3.5564174193719684 7.503814898130438 2.063594314240596 0.5832737783010986 0.0690451756241198 -1.4403026803763195
Ni 4.975137477530924 8.958837296428275 8.029403740954518 0.05331028138736625 -0.3301970088119346 -1.0753505274713866
Ni 1.7891067566624261 4.81078538071097 3.8121708026827164 -0.1325714783125394 -1.8904403661106604 -0.7298019759040463
Ni 1.9526509106568315 2.735795400162742 1.8493994900190343 -0.9470239404781302 0.4288764623627194 0.5318483726412712
Ni 6.979322286821934 0.16389487463004154 4.38737927051453 -0.04729929930659596 -0.7287074572882869 0.4640488964987943
Ni 5.992879183837209 7.721886011680942 5.916157667616536 -0.48066799311271413 -0.9047503765209 0.4000783071841045
Ni 7.007425843515184 5.136009911499935 9.188232463172328 0.9995106975229368 0.09361155210957425 0.5681801171927698
Ni 6.951980767111872 2.367281660027591 10.309046557331204 -0.0937835589110643 2.8885575257201803 0.6641234027593143
Ni 1.0938627741088782 1.4106589922404091 12.720324376677336 0.963384898334657 0.08380047955642342 1.5338918638883905
Ni 8.974362652314682 0.7897466677542335 5.546060175919939 0.7374216972328332 0.4144970537125958 -0.11848029032679594
Ni 7.894785776348468 -0.2750411820370405 7.245765304584806 -1.2516382157249542 -0.015452587109644356 -0.039041430173177925
Ni 8.183882409199523 7.408376651862441 9.766196199662634 -0.181633525946513 -0.9300184070590694 -0.014855062734961514
Ni 4.868461481053016 2.059969588927791 1.8809505754735774 -0.41885250246781414 0.583386392619563 -0.3459588996318816
Ni 0.3797303736575764 9.152532407685221 8.860853112142951 1.0838415956615335 0.8885989635720181 -2.180192379533671
P 0.5715415091440368 7.414638208760446 7.061616772305201 1.005669260925165 0.29877350019533055 0.24966825802824744
P -0.10943493760379021 5.435361909534381 10.154206151048395 -0.057710981558223184 -0.7338491493902264 -1.0244665961373258
P 8.168705937715059 5.909532536447032 3.2980226138917828 -0.5371327609686619 -0.44717088979653313 0.2407712126489337
P 2.862376169888272 0.3131834283377399 8.453775710074229 -1.1907835463314265 0.1716105944928722 -0.5067160963500176
P 6.525102338999264 7.952287434489543 0.9093148610007356 -0.6730713559812215 -0.35894091371384634 0.2937048274231716
P -0.07982199681371807 2.769361752096922 0.741678660218293 1.733991309849575 1.8268256174734927 1.3182585839576653
P 6.45722596048466 3.925261681572117 7.090762391620042 -0.17421743598809994 1.719004863743072 -0.6119554625065075
P 0.07830343154842448 3.1122508510263027 5.241995484108738 0.8905270338326663 -0.714609327324008 1.4299233940245244
