# total energy = -340891.415300279 ev
CRYSTAL
PRIMVEC
9.08772044715802 0.00000000000000 0.00000000000000
0.00000000000000 9.08772044715802 0.00000000000000
0.00000000000000 0.00000000000000 13.30079747527667
PRIMCOORD
 96 1
Ni 6.380252310224087 2.1719015949563514 11.660795922844873 -0.5159687252965373 -0.5359837349658834 -0.33366594119714144
Ni 4.523576477630027 0.37645882335912284 6.062423824699213 0.1928592194590033 -0.4157054721984002 0.18068067511494043
Ni 2.762294447541717 1.7055197768564072 4.8737581570484645 -0.42842240554443634 -0.02624427840850964 0.3470071383907379
Ni 3.4508619451179965 4.378418317448608 4.8941219212339355 -0.16897701352476704 -0.5057866425572127 -0.04507246685860625
Ni 4.991221488884997 4.428337166373452 2.6971227684629575 -0.23407477446536462 0.059292981333362395 0.5322165546139672
Ni 6.895008064757118 5.9924974502340564 2.529332549049347 1.0462824064608367 0.5470163386309611 0.7314402828384178
Ni 4.97440011816592 4.804377954587746 11.28841385091988 0.5519145472635268 -0.5725489356844269 -0.294553291466396
Ni 5.781780474078884 7.6909833313926965 12.35133363823417 -0.7329970858025764 0.7382678472832125 0.39642991179823983
Ni 1.8428988482558002 6.223561832677727 0.3449444260713796 -0.913428106800556 -0.09009196899209 -1.2398605063637356
Ni 2.9112967135114496 1.6042916577641375 0.5349795678221893 -0.4604817479728263 -0.7104747363303441 -0.054536440484983496
Ni 0.4771671248365188 9.213221960403438 5.04993997760848 -0.20400083789811962 0.39166745741258996 -0.8078894642360925
Ni 8.732081684146939 2.3289919322064607 1.4146990880036134 0.2282489118122069 0.4234815165993932 0.16448941006705864
Ni 6.774686644810834 0.7991214354864401 4.601637270750313 1.4530851768529685 -1.27126473170663 2.6620168548483316
Ni 0.41283787745179407 7.423277259732756 2.2551505677327803 0.6810772570048336 -0.5267048807671186 -0.11588553301642623
Ni 7.517462395406721 3.799048869877959 4.027268795792688 0.8728247314568968 0.219641372648854 -2.151402451885172
Ni 7.738457583492348 3.956729908963152 12.582886940042878 -0.31746901972230485 0.17989134644442567 0.18995361577643416
Ni 7.647298658758121 8.79625916659865 7.039114775672088 1.133157925398158 0.8509338449210764 0.08594040871756167
Ni 7.041929242723248 0.7112395427788465 0.43666224561880135 -0.9029688591404449 -0.4970490055738988 -0.10533758229725085
Ni 1.8580844292777217 6.697059335960295 9.051804959404352 1.00489587309425 -0.5995853709769287 0.16531190596835402
Ni 9.063719869804018 4.930179270019499 1.3863953823825639 -0.7529750715864001 -0.4516919175953382 -0.5702729951660566
Ni 6.359450517908601 1.8293127060488747 6.843672440200128 0.41238463535528336 0.7383912602349542 1.2715323835457197
Ni 3.503661601453941 4.269292969207297 0.6538405910777348 -0.3977540299263021 -0.10733147279882806 -0.1906763528750716
Ni 5.85631795794591 5.454731587294379 4.935207505794143 0.025931118043465016 0.6457222745443073 0.03519403140262971
Ni 5.120330734593217 2.8467557222381488 9.63205228077914 0.010299325043479036 -0.28943628195480475 -0.4121722622341611
P 0.026367112374029188 5.650780982498396 12.259611274826478 1.7738606352406872 0.5817272597495853 1.0357241713290162
P 4.111757333650739 6.0626910036830814 12.768366407487111 -1.6685153396339523 1.1912283471783291 -0.1598503686331505
P 2.287351996693329 8.67542883430214 1.6807021208344053 0.8869717123812402 -2.5155344228816547 -2.228848707088794
P 6.319291880843449 7.635402832571589 5.854918448982788 -1.7434069467365203 0.03694443843483315 0.021564613544653184
P 4.800606550563751 0.7557057593798409 12.646411924159837 0.02821862852606108 0.5909806600270532 0.36227563451403416
P 4.104759788835132 6.0482506157454194 8.22629096592637 0.42018279124346347 0.4613834338514893 -1.2301862164987651
P 4.8367029765476355 0.8587641453888161 3.9632121800241555 -2.066530593641441 1.3942426527934633 -1.2177924708201024
P -0.15085888727600355 5.576479779365403 3.5232883515036377 0.23340577342279803 0.6215065965300522 0.11200136747067163
Ni 1.5565084231661348 1.1313394177139544 2.657805654319785 -1.9755042857605398 2.6682965172094564 1.4371373952744604
Ni 1.590996322614484 6.3770352571530164 4.622825291188739 0.45217425654839544 1.016210783886437 0.846941950152864
Ni 6.333396023121139 5.7658133490905445 9.072048765678698 -0.13830066748683278 -0.10384737090496954 -0.47581760699894826
Ni 8.610751527220744 2.5216425199286108 10.311988261386768 0.2776634576895928 -0.08519864545553069 0.603978872058934
Ni 2.409272855454608 5.3821479633434 6.859793147665589 -0.03291166312635622 -0.2984148313043313 0.7701261294443899
Ni 0.53335650093379 0.29561446143751136 9.604346547169607 0.05430735519331293 -0.18169214709859033 -0.2829275343020095
Ni 1.9266785439117509 0.9868810120140965 11.634088020950601 -0.8846150392236055 -0.11517539432327907 0.38828748519676354
Ni 3.8577918954468995 6.99760842965089 1.638112518524869 0.7704228347492021 0.14458752893680904 0.44808491697037023
Ni 5.642393016440207 8.021785446760118 8.141830600001994 0.7536654127852052 0.054477562222590044 -0.5141090463799791
Ni 5.314598936571442 2.8656581809608275 4.896422932074599 -0.3929895186581232 0.01701607494202231 -0.04519896513414151
Ni 0.47171721882883105 7.354837636347903 6.659908734393799 0.7567885317952193 -0.10799481741443982 0.4379920515107425
Ni 5.4251964955401935 4.323473959065283 7.270668077480797 -0.5216513775036112 0.5417368353995767 0.15420036943622475
Ni 8.63048096851254 7.298139347900406 8.878654802416397 -1.4452690232426593 -0.05750914996006225 0.840562014768449
Ni 4.867901121160596 0.2950419350435071 10.441710928231421 -0.796797210977673 -0.021032652300583134 0.6295523496526643
Ni 8.031200325239299 7.377693253505373 4.616201251687316 0.279855323134589 -0.5297097290317135 -0.7793455911601288
Ni 7.450013333560699 6.176005791093218 6.944013597767717 -0.5189062106583063 -1.118417790974506 0.046970712322583624
Ni 2.0336046637824436 5.493663382086667 2.575752625566387 0.9632386025647798 -0.7895636693437111 -1.0409332263337814
Ni 2.523823572858151 5.2950058110877425 11.336748710154648 -0.1613079270152835 1.0389691606288753 0.2130063838308396
Ni 1.2194085174646667 3.692059135963488 3.9004850977705887 -0.6883876746233176 -1.2622162483511166 -0.45829990983015906
Ni 3.6814174152114414 2.420378049954182 2.6949008207909886 0.12090278372535954 0.4207610323444367 0.350918300519686
Ni 1.1678357034015885 2.9181488547984205 8.219613308873763 -0.026104924617167943 1.691544453539274 0.5632142885470623
Ni 3.7149783671647363 2.6877569636746914 7.10039145772751 -1.0150082789379036 0.08972018747496806 -0.3748485860830383
Ni 4.005712722672402 7.021518222390972 5.59879740346692 0.33096088356115255 -0.010470817624336807 2.0714758534618585
Ni 0.8923623569963239 7.589446229802076 11.365106033326882 0.20690181359499848 -0.9454367984966686 0.4637323936996401
P 0.4297055955456231 5.437192286652663 7.831948417317076 -0.4718524517036132 0.4138681618793453 1.6089475073726482
P 8.534387411525229 1.5446580355823014 8.03626218557994 -0.618683011038328 -0.22690576752075114 0.39849964984307495
P 2.067574563160027 3.3183357164868297 10.644282580466816 -1.169198106851167 -1.0231897863074313 -1.285858827470721
P 3.8394983140003838 6.146734243234685 3.71273188264731 0.12135812609522326 -0.5716181963400414 -1.1301633615462083
P 6.837146548080533 4.031331006873955 10.330409979692893 0.7385478404174765 -0.10727953651497009 0.18222847921803453
P 6.772014854972149 7.971784808350416 10.180044555642198 -1.322259477586942 -0.4271895615785997 -1.1606651296794914
P 2.227754725393652 8.251504846563906 5.840806127756611 0.5506583062589226 0.9121276428215774 0.9168888116556467
P 6.840209109902428 3.941753345513645 1.5474679587731919 1.1422408615360329 -0.7916699170534365 0.3117881672874437
Ni 5.281437844321896 2.6778513482863646 0.617630568587103 0.0023998676907442543 -0.020978916244512258 -0.6203771109112993
Ni 1.4524721984270823 0.7923238205227076 7.379468994098841 -0.029241670473936734 -0.7908697897496444 -1.6037438516845217
Ni 6.782665663444734 1.060618776473624 9.329951004420355 0.9961325250793234 -0.3724592599152553 -0.7647741211038571
Ni 2.6534053800344384 1.4361324768966128 9.51148003974596 1.4622197921643851 0.5091745851928392 -1.2164691240229888
Ni 6.438413721678485 2.0696193002814707 2.6966565683992685 0.1595688328369897 0.6511375320226076 -0.8056613462365222
Ni 4.545768691188096 7.023890117451845 10.088149525544251 -1.2285851905602325 -0.20869078717462122 1.1945327289612138
Ni 8.047385555520592 7.278437169770228 0.17374994654357856 -0.12816023661872122 -0.1308105297573747 0.09013824884899314
Ni 7.851336160316577 3.8280841370024583 8.276181642917543 -0.11507332152777602 -0.08994284500873542 -0.6404821091912904
Ni 3.072767332061719 8.101239387439149 12.84537847765711 0.9618046983317305 0.9641323180236429 -0.6881706735165052
Ni 0.31804840836193693 4.872490420033169 10.060723693727342 0.1931196722092416 0.05349102993960465 0.3126669703479712
Ni 8.785617445846603 2.385372150435067 5.829566434993049 -0.07330317956952537 -0.2949831799149629 1.4862264394916274
Ni 3.742732265693131 2.6434815892050323 11.767322183011817 0.8994204796675542 -0.06292672143120775 0.2172188792502904
Ni 1.1105921517217063 3.544501817559575 12.582674287382249 -0.15088596035101112 -0.3297907745124513 0.6311446338404485
Ni 3.31614557583675 8.429660520025156 7.925440159913856 -0.7417974577030256 -0.9343815691237713 0.49864103265136706
Ni 5.486365942493248 7.805724890927574 3.7817231306689263 0.20815625482738992 -0.09424455770788286 -0.8044570415157759
Ni 2.9445395952458533 8.508378355340465 3.7607477628911306 0.7328482189295379 -0.468763014145012 0.08943479502406533
Ni 3.3678637934284645 4.24411998331219 9.153649225949216 -0.5853324606023403 0.3893071847105295 -0.5219930771137461
Ni 7.326084088560135 6.1062120973479415 11.182007548664062 0.09050720215263768 0.05293875698056044 0.7385522112928508
Ni 0.7380210552094884 0.01750113221544958 0.19775516034932686 -0.7015614930011143 0.14542416590549148 0.3145143079693551
Ni 4.908441442488418 0.4136530459842096 1.738241023431829 -1.304594456207011 -0.20628963393229635 -0.2094317791057038
Ni 5.869395187802609 5.416817617202545 0.41225535456519613 0.35440188819291224 0.7989970468424691 -0.8809239635252635
Ni 8.099131036273926 9.031785619827337 11.401550519007438 -0.1290848053155196 0.4404479692504027 1.0923347207342091
Ni 9.16487528713197 4.848380697441214 5.760801471212873 -0.30563654586375105 -0.17364742241724287 -0.05213991522834891
Ni 8.038525027994337 9.09408194412732 2.7060341872242355 -0.21664732301753656 -0.208780261564634 -0.8097077483917539
P 8.58076204943957 1.7577559945188874 3.8224761046573787 0.5621017722091739 0.20094353912903457 -1.7423875043330703
P 1.7512582743329663 3.334584560811902 1.5968933444727276 -0.025914662983232792 -0.10715895177670577 0.2697516590416838
P 4.582364941801667 1.139954576785637 8.328055260530487 1.0710387874699103 -0.2633691525541077 -0.5548270929246315
P 8.40660497301581 1.8281949164224855 12.489448814997282 1.4418738815181813 -0.17074876071320916 0.21370109590501907
P 6.338530585226097 7.977519160010999 1.5861471149344737 1.3716732521333797 -1.5782734753275593 -0.3399319767115114
P 1.6921608276629754 3.255330549984746 6.089490691554802 2.0038054466980784 0.09505419809337178 -0.1765046893603799
P 7.117984375920412 3.8863818642649512 6.033401280383469 -1.391060655521056 0.3996206508213956 1.6366028071960717
P 2.6547321872332423 8.332558226057932 10.276435281091159 -0.17176306091033644 1.0147701947851686 0.3743811595283166
