# total energy = -381167.88214951137 ev
CRYSTAL
PRIMVEC
9.26515837537074 0.00000000000000 0.00000000000000
0.00000000000000 9.26515837537074 0.00000000000000
0.00000000000000 0.00000000000000 13.56049581891242
PRIMCOORD
 96 1
Ni 4.020226359837838 0.3224201008998887 2.960106933386504 0.15473464467313996 0.9645899743863517 -0.6347693750772294
Ni 8.231074089015038 8.599438257489536 7.033191948528025 0.0025754740366600807 1.9530582980521973 0.4688884839792828
Ni 2.2285022290439356 3.695973610602413 1.1961106421970493 -0.19360689625830527 -0.6234822321991843 1.3505143586675774
Ni 6.032952314431283 8.314997893986163 12.24367707650465 2.2396275428718524 -0.5062322147350636 1.061955080001087
Ni 1.7803187207785065 0.7516091078878497 13.080454300139472 -0.642606354623145 0.48716928456634156 0.7252063861135639
Ni 0.44017748487444314 7.927899575185807 13.464121730776789 0.14779703701304223 -1.0220525873791946 -0.32173165165340073
Ni 6.099661455057482 2.786626107124707 7.9121423202603935 0.17702585197117254 0.40580286837270757 -0.017065183012402868
Ni 4.911821819782239 -0.06991025286041375 5.078853169267661 -1.3407516228538587 -0.6201822212916739 0.5206818145014904
Ni 6.841772849048676 6.415140099268877 4.206953583093146 0.9599231650383017 -1.031310358532037 0.49825176763274837
Ni 0.20053972142829837 8.71482654045602 3.462089510535278 0.9182247568582508 -0.6024683489516786 0.7834333880762573
Ni 0.5225697591586922 7.156232325833838 11.174784471545127 -0.9152021679818433 -1.2355857902477818 0.04626443028417839
Ni 3.9591689658480256 7.918171158844486 8.064955357634016 0.031772407315590445 0.8801564892316197 0.317543324603666
Ni 4.12256003459011 5.994705740472263 6.979614316930927 -0.487555978481799 -1.5062273080935866 -0.9749162960130243
Ni 1.6488461227943743 7.044791000354405 7.770719868648696 0.32971595541045795 -0.07858371124217432 1.6368743156899035
Ni 2.259049456355682 5.210234042183433 9.060201071342213 0.8075793891948414 -0.24450059778437894 -1.599813149171548
Ni 3.8430672656831804 1.858016339291187 0.5166817509825882 -0.4832861474618515 0.7017036750059333 1.6675871713927282
Ni 8.321103633385144 5.1767404944940285 11.129967047234427 -0.2755548959870222 0.02445633327015143 -0.49061096325803893
Ni 3.7328952669073296 3.1534337289845946 8.613424014124988 1.3095715977066285 0.8594881622489907 0.2598752804682363
Ni 4.273350487880579 2.977794120810867 2.7476957644742686 1.2365928913560575 -1.153384536857678 -0.2528188878420871
Ni 9.19979272765006 2.8211666177156056 1.5718109631087458 -0.09502385907606861 0.43031448036082665 1.138676284113226
Ni 7.771512966209474 7.4344372377203465 2.316092257201976 0.2600210620174812 0.20611711291017407 -0.2774246022059093
Ni 5.8873410846977645 4.5121414158471085 11.98014168994501 1.8199078073077368 0.33261795954860135 1.9885708891365106
Ni 3.2336792660628593 4.890891826910769 3.2241166960572616 -0.986548480935314 1.109701751257747 -1.1882600085786246
Ni 0.3825333752466716 6.369953921653049 4.104301186891215 -0.6089483002490673 -0.6360536411062917 0.7820663325254015
P 0.18552182614482546 5.936622462335368 9.101967478985108 -0.35696090716934004 -0.057399106744759204 0.9038540899588755
Ni 9.193344177389527 0.36302373116103465 1.3356884007672647 2.455187803472797 0.2710840046998622 -0.8307864234389241
P 5.068004595273326 2.7806500799436105 10.726908566539253 0.7736472552237709 -1.9335189424676897 -0.3157605216716304
Ni 4.051978057744224 0.4848457401345771 12.341556063088438 0.37048439557707163 -0.9157606115884743 -2.204819691164048
P 2.7573482065165424 7.711122663625924 13.040355621012232 -0.13710613295809934 0.14592398836004547 0.3502678114198806
P 2.447178498079982 3.9148073873316043 6.94906245703997 0.6962105131018461 -1.3291541478242463 1.6186349098637416
P 0.6914198592420203 0.5925059544626828 8.861322592818677 1.428224923276179 0.4662518176873841 -0.1250582006546298
Ni 8.585447868274874 5.028210739858114 2.2786925187225715 -0.04450939526628463 -0.09281810967400145 0.13279233607409385
Ni 4.463443743189983 6.023909519813065 9.297428967083237 0.694208652180469 1.9065766095508905 -1.7488363452822075
Ni 7.46732855011243 6.553505975117717 8.34369208961385 -0.5298220862398617 -0.9676081923873852 -0.469922581670752
Ni 6.4081171091862865 4.660680435641442 9.679021002234405 -0.2767592007077685 -0.6398825279340786 -0.9519087793742572
Ni 6.139733265225302 7.6185915264823345 6.40492062953128 -2.5101813860998576 -1.974753266527128 2.686542865014154
Ni 8.761976931656951 8.201518233654264 9.332156633874227 0.47212704552123846 -1.3908174291619984 0.6645417212436556
Ni 5.600686348331939 3.8830464242667975 0.9375413805506947 0.28667337449768693 1.0469578352613067 -0.2162287474228792
Ni 5.261248004445633 7.560304414860194 3.169860854863796 -0.5541809747002004 0.2806834754628392 -1.1567650232941369
Ni 8.865431690578081 2.0977986392086887 13.051882404602932 -0.8229658989532408 0.2670394023168433 0.467175357942918
Ni 3.702737176249236 4.344951632152698 13.056940254584578 0.8267443921590665 0.29295586507228905 0.2754962748349449
Ni 2.7141633031194994 0.5823828423726573 4.856122466906889 -1.452116385181796 -0.6544897363242921 0.8618589764740124
Ni 1.5351996896109092 2.630026399504707 8.740743041589297 -1.0695616887037516 -0.43410351508961365 -0.3004082075852762
Ni 4.710684495635831 8.575228398537279 0.6356510176785186 0.008861821266004093 0.2992717799879878 1.3618876335015255
Ni 5.883616491012802 9.028618925834918 8.687925152982663 1.1693549441440056 -0.023611982991985143 -1.724034712857495
Ni 7.036072486280899 8.721673492528625 4.890524926637325 3.4203868721980575 1.5137806949608121 -2.8229905384526477
Ni 1.0886839098611352 1.795078118142053 3.4850884132820017 -0.24901442649433245 1.0608513054139472 0.2321788429942324
Ni 3.5139966340691964 0.7923646867470887 9.43231484942941 -0.13776227848485953 0.7996909875857002 -0.1641785636948592
Ni 7.8957587406257685 1.00112816278925 9.4071868132777 -0.33956867983482164 1.4769241882540953 -0.5643869686989248
Ni 2.8358796892870504 2.3602249863054166 11.418411812207056 0.8953002868515936 -0.8453378388905376 -1.0430520724489971
Ni 0.45077497307558834 4.918659506696424 6.9978666790189274 -0.5136925276678508 0.06663708040325944 1.7057595686973914
Ni 0.9584065173132224 7.891774722505037 5.954535719625188 0.21207153072139606 0.8105700963920491 -2.653858487407255
Ni 6.0120871776687554 6.595755097514309 0.9318071740043677 1.0309385770149149 -1.0484778714502587 -0.0021970076513187966
Ni 8.294401446817824 2.1511196259175454 7.22783902920101 -0.17152240565444007 -1.45595941307697 -0.7719567548952254
Ni 7.998277718546446 1.9334903197829942 4.779382865774869 -1.3341546863626315 -0.6193453272126753 -0.5228217436626286
Ni 7.534649191194368 0.5023485509063759 2.706865137831825 -1.8063516658898566 1.240623095561373 2.5255804942637474
P 1.975906215031152 1.402216870804267 1.5716210273611295 -0.2667352408128632 0.6805239556045247 0.4664346231221515
Ni 0.6577965993347323 2.929272486163728 5.799362846401914 1.6025297767717626 -0.22108504707391602 -1.17313086624667
P 1.7553491188357837 3.6474056501631726 12.611261118640156 -1.626646724424624 -0.7940589861109034 2.482605533364118
Ni 4.106410863463518 1.4856774178543772 6.904028228022233 1.1575132143140712 0.8470730764140896 -0.2484642104178173
P 7.926111399610688 6.667958477083749 12.74957788914937 -0.16423512796440748 0.1382675002560522 0.11671497089625707
P 6.966593063287029 4.663413657375433 6.39386914856754 -0.9999357008754973 -0.45803508620454664 0.7004965420717097
P 5.671852030158304 5.068254754550674 2.891314985147421 -0.10578212603383717 0.25827374030907135 -2.0676497948475485
Ni 6.118932984571717 0.7123452195342799 10.764429678593963 -0.7604127588113678 1.4123907844573997 0.7117957691346128
Ni 1.3726517502850728 4.204464035025609 10.75352736668079 -1.7174796853477972 0.3961074954618146 -0.6502697847056736
Ni 1.9697448846816488 8.972277497481043 11.120311825644626 0.026590348894018723 0.6303774166571208 -1.5554878448916114
Ni 4.096941871557966 4.58047195919686 10.721497714021794 -3.111745478069712 -0.59244593171867 0.6700305122723687
Ni 5.819288496100622 2.0990957613875314 12.989354629971817 1.0248939134827315 0.05979074690538735 -1.0727110329660106
Ni 8.025359776609 4.3074833315009835 4.542210560984367 0.6797130296674552 0.40480862278023827 0.8788930491381637
Ni 5.425769422514994 2.361679616177404 4.99207940156645 0.4051222973659152 0.23835206168447984 -0.18286277036792375
Ni 8.158546428900888 6.464810613560134 6.135229471717191 0.6773378445670593 -0.34173663402041793 -0.8735384696944697
Ni 2.853010967206195 7.23153026831566 3.540225371041239 -0.8092441784917739 0.0976705526702963 0.3947278415054686
Ni 3.0278908323894576 3.005265315527072 4.660959316909894 -0.4834933783766512 -0.5148430963325262 1.4025331749370298
Ni 0.7989021825284561 6.772682562708459 1.9188504429630697 0.8679321792512859 0.2695405714721423 -0.26947089457647144
Ni 0.18641035483733273 1.9561251018038 10.956202707124968 2.0259457302405433 0.20761580894288761 -1.8247173128812382
Ni 2.83799214540688 6.754615503788863 11.070680225018735 -0.5670295485280944 -1.0803387247145975 -0.27807971929140496
Ni 2.411804123231256 8.527142226335894 1.6885260167610159 -1.2071393619816306 0.41854679830193725 -1.333076108586472
Ni 8.36797606983347 3.4385875096863314 9.025296440025397 0.7484527582360142 1.4313444427417672 0.6723743299141969
Ni 6.998103867074488 3.2061339500792916 2.785434607751856 -0.6131150300322473 -1.1044366462040656 -0.05093535339728648
Ni 2.4339756473310463 0.1656211923738517 7.355700994948749 -2.729606014752215 -0.19904992165074753 0.2541088102981043
Ni 2.231541201005796 5.170588429302946 5.353113903214644 0.1792115467685817 2.0240983926191594 -0.6348909882567582
Ni 4.6768018112927745 6.505744083461043 12.534169441488164 -0.596378948224489 -0.22303600015269975 0.05631744364480623
Ni 7.070362837594449 0.35934824281569955 0.5503096434690863 -0.84781355412454 -0.3417330344759921 -1.898104310413821
Ni 8.617199566181261 0.017235974209293976 11.930374818006182 -1.0784016555928848 -0.5156961883614409 -0.5420240276226923
Ni 3.562156927537943 6.460780269647302 1.3159536133320144 -0.20062935032272544 -0.788475578485855 -0.4462303802601347
Ni 6.3223402725310995 6.915032456678031 10.285541435323642 1.2888731888170124 0.32862477922880823 1.308226910753276
Ni 4.929638719424486 4.968144717819275 4.834506852312317 0.5413475703809579 -0.650884535471537 1.5273846588974922
Ni 8.156600745632623 4.431682780125176 -0.04435972548473778 -0.505868917858374 0.28890869158610893 -0.20764434818797786
P 3.2927446509923053 7.442229235951823 5.567804301098276 0.14122658288437612 0.7615368451134821 1.2896090385417727
Ni 4.504442069199834 8.251374051113926 10.45384025848096 -1.0672736640005231 -0.470776445030615 0.1123276404618388
P 0.9335295669547025 4.19477267931797 3.767431144919018 0.21241065922836966 -0.26703040345577883 -0.5710934341848228
Ni 1.438536291811864 5.583518009779112 -0.03816782011244774 -0.23453268793838963 0.8265412750093251 -0.8340501817918603
P 0.32881398672574136 0.634665204822598 5.294451552676482 0.6411647370806118 -0.27056464186128243 0.9390542920090923
P 5.647382746770277 1.3241023201626732 1.9639124674560666 0.039548451716583506 0.7542608802773592 -0.8059883905586377
P 6.2494605363969775 0.8554928436438389 6.628601010630134 0.5138887028390569 0.29421879094511266 0.28568967042817894
Ni 7.3031314125877795 2.8806489347739657 11.053296008274717 0.1196192890272456 -0.5925413196459537 0.5655159400970453
