# total energy = -340872.8533475696 ev
CRYSTAL
PRIMVEC
9.20558120014397 0.00000000000000 0.00000000000000

0.00000000000000 9.20558120014397 0.00000000000000

0.00000000000000 0.00000000000000 13.47329860081864

PRIMCOORD
 96 1
Ni 8.863989509976165 0.30012495469278305 6.80191358938552 -2.3223964958399677 1.5184464758675977 0.2530708559518932
Ni 2.4234336384497506 5.4711897806113186 13.51466100060526 -0.07603034869270132 1.9411746592407342 -0.508048442008196
Ni 5.737645322780864 0.23537842125711952 6.069154864791616 0.825679955450294 -0.1515845290799325 0.23271260401051533
Ni 9.07755898927599 7.574987235429665 8.476159302822987 0.446484919473102 0.5893233269292882 -1.1137738644445916
Ni 0.1548406341666749 4.857831123875625 8.00397467469498 -0.28603291270021064 -0.611120882420354 -0.5563509857683256
Ni 0.9036152285918637 7.968838813117758 5.553221633498762 2.195154400160142 0.6883696769011887 -1.114162615242578
Ni 6.094057802524457 7.74540095098132 4.422138339406776 -1.8810093026047474 -2.6304586204260767 0.15004263851410934
Ni 1.1209912156369686 6.311456803522073 11.475611920338778 -0.06559424096104187 0.04863653006078076 -0.039233748689642106
Ni 3.478411632704863 4.789185106326539 10.790750754268362 0.49915628172488863 -1.0742187278597888 1.0743843069033756
Ni 8.626108091243976 4.522922881358084 1.2558686268377124 0.5903201436249188 1.0154844472433737 -0.3536593535999329
Ni 8.605680906995428 2.3931380713645893 8.497070700632362 0.4308742095190386 -0.5815603951544177 -0.3240371598581258
Ni 4.898565819819665 7.1405390455125985 6.660214842660587 -0.29116020662444697 0.05768038543060389 -0.9506512528180723
Ni 4.992536390711589 4.321652058280007 7.595019500253129 2.0714699399245875 1.7169019584674559 -1.5016402029435365
Ni 1.8197684585115879 0.6014438732418241 7.025718754204029 -0.07238221041715275 0.4796207827951224 -1.1436462265239915
Ni 3.2712860601080496 6.984624120042721 10.26596635683987 -0.7187464894208332 -0.08265968108376086 1.1943728063445818
Ni 3.8458247817485978 5.131052768083333 5.689679642957945 -0.2813555618291993 0.46958962381136543 -1.1128472388652642
Ni 1.972802037127118 4.361908064011823 1.97916033192679 -0.8577164150605485 -1.4955001514840696 0.7226149712373038
Ni 7.076882452867844 0.20018824675197106 3.5030844309125957 1.1980872790816914 1.6638768124206764 -0.03987112516332489
Ni 3.3174520488446286 3.1016640245227656 4.612798809819293 0.8893553821220682 -1.2354274102930465 -1.2515847367791992
Ni 3.161583151279773 0.14813989175364287 10.033444427368387 -1.0445762224030075 1.243999982453406 1.2391333983897241
Ni 4.308552516510884 6.709147108488959 1.5475161619836328 -0.4434098800922041 0.5663242949309536 0.7958703282880294
Ni 7.54059518479759 2.387090004644763 4.9782760251778235 -0.5522554755427135 -1.8614462928711555 -0.15417954350061835
Ni 3.7573131203922263 0.36974584327022486 4.6548222871039355 1.062046354163313 1.617456059064292 0.2248242024013741
Ni 5.071336164108421 9.140608013574461 2.161561555062247 -0.736847312786602 0.2672612885196623 0.07818004804585245
P 6.092999160708962 5.238417459336517 5.526410378823729 -0.08813433104508692 0.9759431946156418 1.707760144067188
P 6.597115187666594 7.543715876758049 2.184304863491478 -0.6266014945544564 -0.7048100818453991 0.9503128956420472
P -0.2320469214916623 5.613646146652905 5.430049118544989 0.6631008750320709 0.14927362155856871 0.3937891317412831
P 3.3015816271932104 2.2273639686391045 2.5348257713923164 0.9805881495868211 0.14157213914925296 1.3853569202680593
P 2.866387785214794 2.6194112524503534 10.71113720751075 -0.540423773015108 -0.6405049920094259 0.4283380733607462
P 0.6120505436749819 0.40811194322185784 9.2810409929113 -0.3544096015023961 -0.22302880106384815 -1.26317501271996
P 9.035848501745495 0.4907403177583796 4.374591513519552 -0.6739594150131296 -0.6340558939499725 0.2703815793161989
P 5.215237806367682 0.8934071598161923 9.707619331627791 0.43617531001697785 0.23597147726744522 -0.9556795592705992
Ni 1.7318643655015 2.2049023509886054 8.68659888458135 1.3580448627166677 0.3090633121571129 0.8030267368271524
Ni 4.612585240339993 6.680582190632607 12.630260581243677 -1.0505275548904358 -0.34580951853821085 -0.49094032157299966
Ni 5.051424492396113 2.49467562984205 11.45766564017089 -1.4247585619941332 0.2638993140259649 1.4224188581173631
Ni 1.9458573015275238 1.6768426078387821 1.0669977213724313 -0.2226930149909842 -1.1998027191109015 0.07250253804510094
Ni 2.8151863436688616 3.2484193968933615 13.129769214908658 -0.1186695235194666 -1.098776619704811 -1.3492444908162182
Ni 2.5774061863277193 8.029402330545066 8.231485085867723 -2.1697236187918634 -2.594351590290874 0.5608966961574792
Ni 6.286574118067442 5.4389058080292285 1.070724140562973 -0.04915306468588309 0.0030572987690850573 -0.5571212882754469
Ni 6.34442198909848 8.106388604484051 0.115629461878847 -1.6508168939129246 0.4722453162666576 -0.7711615126874397
Ni 2.6933412734959092 4.660804073640532 8.25310899564683 0.4567297371295618 -1.3267203415717732 0.8476760001054111
Ni 5.2925094533178 8.908921950858169 11.511006458742223 -0.6441716422277357 0.6910369393207068 -0.03017832335559319
Ni 4.279803487034446 2.977526764679742 9.079116573581919 -0.22461491460404542 -2.1045482105357944 2.07285782141105
Ni 7.999281669498987 4.349950014287233 3.8282623743085886 0.5280703936560777 0.8411158303893901 0.7162594613329213
Ni 6.615452705027165 6.35691396252132 8.093033147563009 1.4233745371624131 -0.8886362445678567 -0.05633235604314169
Ni 4.27309261848231 3.9456132798352406 1.680430022756159 1.327657508674062 0.8017787233526643 -0.507482799312713
Ni 0.5236208119895485 3.9607104326822973 12.599407155949656 -0.10719546144159603 -0.0584799985137638 0.7963066444944995
Ni 1.7871070571083214 0.7351954418857416 3.3165195234888922 0.09350176600458736 0.5320088094785355 0.8520545887890809
Ni 3.362614629251738 7.473468088114214 3.805816406145797 3.4539413111147352 0.5047175778627502 1.1798985239878068
Ni 8.310448718606432 5.90697277977401 10.065928161058268 0.7239079790171145 0.22313910138946733 0.03026959751781884
Ni 8.310062084204251 7.222882967596087 0.843953858102977 1.7130836131626304 -0.7658619548513972 0.9955658539425758
Ni 4.005523201011243 0.40810365819895394 7.878295480033737 2.484056406878032 0.9479693351105352 -0.24670557585549768
Ni 0.13179170044810146 2.635484196883866 2.3687405200288856 -0.4652668280662955 -1.023411158289618 0.7230224910883677
Ni 0.5819814338825271 8.990538632042316 11.355282088799134 -2.2582662410189625 -3.101185186055362 -0.6405008782443679
Ni 4.944667369489214 7.7857121901991615 8.977339669998347 1.4575295857775672 0.613536433840382 0.762534433140061
Ni 1.4118047251438992 4.374547326730731 4.549003212901375 -0.7618646607665459 0.6949067066887581 0.33892667537544857
P 5.019720471417295 5.608656721748573 9.531900439743357 0.9439126485426582 -0.3675011445790316 -0.9001419312146111
P 5.35675520314683 2.3044422983881323 5.680557832740781 0.5332750777854686 0.2331527768717275 -0.3071630098106065
P 6.916585670839918 3.6108799433567813 2.1862444794090847 -1.2772127217599487 -1.075818725357057 -0.6534810925541198
P 4.413698662742031 4.515180987733466 12.798151047042055 1.9778203354882258 0.8624187056322246 1.0183450566206205
P 8.073405007745635 4.030617614828973 11.10692932167455 0.07379708848680838 -1.0468282516619776 0.30035935662521174
P 2.413850628624271 8.048144893469827 12.009626753840285 1.4802339693536186 -1.0660284787395125 -0.3265792095536892
P 0.8183927213283294 6.147974890466658 1.8092216243549581 -1.098546763082192 0.5009555397171566 -2.2891786143271027
P 2.9979723600902983 8.199401794951527 6.1034576212879506 0.8815284298784817 -0.9437987486726133 -0.31751555668952414
Ni 6.972086118714861 1.9272712334798363 10.379626744941898 0.504719120524647 0.358800274370924 -0.8940705282095506
Ni 1.2341370117608546 8.6608223372112 0.3156630548699458 -0.5254365555776563 -1.3195191958376435 0.05100734428580248
Ni 3.527127567379634 2.2735483685376914 6.838075873244723 0.23857780454204072 1.8400338886336505 -0.44793219344258983
Ni 7.508090278271398 0.8727056492537162 12.364108823247276 0.4238080467008766 0.026074071379232518 0.5117071218067059
Ni 9.113074120790591 9.208250622794077 2.1207237566109587 -0.4658610100068687 -0.12196722043413186 0.8195573874923241
Ni 1.9605125864863737 6.189160659879909 6.817461815701787 -0.8562082059461384 0.8180103547201785 -1.673055393596151
Ni 6.303475564791342 6.826232893282686 10.951716782035302 0.03652174907511775 -0.5567243099473443 -0.23432417147200935
Ni 1.4771183223694277 6.619033676037838 3.6771868227726743 -1.226656863189268 -1.1867304593079755 1.0527032223855162
Ni 3.5640235360448793 9.035286961304232 0.12766299736767164 1.8255254106048302 -0.33211685154246673 -0.10527099072537353
Ni 7.594420216929749 8.698141762602646 10.026249345255422 -0.195995708205456 0.46096665802904485 0.08637004005581254
Ni 7.463461621562537 3.848798184412988 6.73895293866469 -0.4384849319867609 1.3988099604491717 -0.23204077475447135
Ni 5.49183789880397 2.263394612689946 3.3040026949973416 0.04023210804716942 -0.05494550299794409 0.19008525625829198
Ni 8.056982251233958 7.536001599876443 5.766787430566185 -2.9045158488216494 -0.8661846004325598 0.7990921776594367
Ni 7.182949157199421 1.010266487317214 1.2916875425254546 -0.5951275923158912 1.5974847581486877 -0.291488279387827
Ni 2.154492589409043 1.044069380765014 12.089065394558816 1.5459547085901955 2.805861592081845 0.6876271423082093
Ni 7.016484635898613 3.2359274234705224 13.249924140409219 -0.42795446476908233 -0.335878375467428 -0.05375251113110742
Ni 5.422621135232617 5.367010220385623 3.5157494692583158 1.3462658678038684 -0.2650771363841499 -0.41945619749008406
Ni 7.058544935507273 3.9751263725350356 9.211922729056695 -1.3194523471554502 1.2576774799404986 -0.5799714534007431
Ni 0.818866808750051 2.1718911375071754 5.223678403590528 -0.22152599126607656 -0.24161299182393872 -0.5022729729769995
Ni 7.8030278880682555 5.582107826132163 12.623537745436236 0.31222859725897195 0.8227848932906862 -1.135499171936825
Ni 1.2451745033850137 3.9346034049540943 10.330975249334157 -1.064991809944882 1.8347829246473562 -0.696142121757756
Ni 8.478542627745002 6.90152534031688 3.3047032397117695 -1.6586744422841302 0.2737034446005802 0.4787905735843431
Ni 0.08433416869661908 1.9286520706304817 10.900733512759171 0.07748225064787947 1.4288196194373843 0.38369960871576503
Ni 6.303871404774526 1.949447478119202 7.9589197995856225 -0.4163690739243281 -0.6483298873704834 -0.6588968642530524
P 6.994133485220166 8.53050813251429 7.659044316138056 -0.08561670682955576 -0.32252020899296713 0.23633066037907682
P 5.370094090022064 1.1632632436087271 13.283310941595625 1.132560143913159 -0.5284725141905027 0.39596865589110514
P 9.388035619808113 1.9456087508404076 13.41913560708171 -1.6256468224052 -0.1567092519010075 -0.3044240136128886
P 8.119856369493347 8.002577267498529 12.334885706349116 -0.26563866531457475 -1.7124542071087474 -1.1548007004789145
P 3.3406132906514543 5.318819003828098 3.3829433137835396 -0.714415209035331 -0.5539570316148523 0.524570093812303
P 1.4588636552378955 6.209155181821255 9.177175342997854 -0.2764534965418916 0.002412980316866812 0.6355278505098086
P 2.7950537380124514 8.514168226231654 2.0847906917187635 0.06395850512983178 -0.09936285277105468 -0.9495539059888358
P 1.620025761880225 3.3197810608387166 6.753477504373279 -0.025244633499401686 1.4283665910603658 0.7121174141400897
