# total energy = -340866.9307436119 ev
CRYSTAL
PRIMVEC
9.25981050042880 0.00000000000000 0.00000000000000
0.00000000000000 9.25981050042880 0.00000000000000
0.00000000000000 0.00000000000000 13.55266866336741
PRIMCOORD
 96 1
Ni -0.013287828147053088 5.447555809574549 7.5400137204079165 -0.6155434369680819 0.22027823490190454 0.036500666029195196
Ni 7.9581775052809265 7.237662386151764 12.486507291111899 -2.36959577923359 -1.0357552816772677 -0.4951816133478568
Ni 1.5437678363709058 5.206309965173731 3.1094156791032552 -0.33304347712179416 -2.5217456938986893 -0.5327081495384051
Ni 5.795030200667349 3.3521810584162206 4.440382883118591 -1.095068060504972 -0.3571043747257398 -0.4769931153642882
Ni 6.447133839412937 3.6011773642519405 1.2860450850677416 1.3793173989421987 -0.7719829801474705 -0.877299993619431
Ni 7.032344606706045 7.429581219723766 8.00722857375519 0.27124392731649416 -0.3214357176795367 0.539093998460091
Ni 3.2943535414975122 3.1993849244409436 5.409046109436595 -0.11623880259078691 0.5894225715113139 0.526697167457635
Ni 7.654520537736459 1.7698183316502507 2.553499248483331 -0.7398943271430418 -0.7652086375381144 0.03901211959713926
Ni 2.651102281642922 4.773071208716468 7.35014037898761 -0.5951880132401814 -0.9153782885483912 0.10549210559724412
Ni 4.036703293916396 4.808591842007127 0.08567639716418725 -0.27665095726467837 0.33755627739048316 2.52537043513547
Ni 6.8446760261789885 4.786210879894634 7.704353134221602 -0.951526456334174 1.1551382863239912 0.6008524106148103
Ni 2.842604423739929 0.3126612073285759 12.74159562631204 0.8642400751116793 0.8216482085830816 -1.065913550428203
Ni 2.142173833705511 2.92502599749388 3.4093233493538264 -0.6089022775024804 -0.4439724374638934 -0.46660534437206097
Ni 2.695021563107363 7.256737595895966 12.310905169719634 2.108288137194201 0.8516596673435075 0.08468082527884771
Ni 4.744625070690163 4.9841763697593375 6.128977860500765 1.211914671883087 -0.6322399237871563 0.5974415851610485
Ni 0.7480630555315894 8.712592790853545 5.537918596860845 -0.152965211477543 -0.027805709358358563 -0.2858202824687723
Ni 1.358617924314929 6.3934732372441765 9.585003064390941 0.22315838466317695 -1.1919891366037534 0.8176414014165337
Ni 8.003180184580353 3.7122950909171926 3.6389055363790157 0.8626871288022626 1.107090795997461 -0.3055563274451189
Ni 0.6791061723063004 6.967850026187421 11.740297123672452 -0.5580414860968712 0.3022668580605698 -1.7597172538607695
Ni 1.0656282585303252 0.6831351158789714 2.985707388025774 1.4459195123424646 0.18163558282904202 -1.1161768174591293
Ni 0.17818097863195426 4.797063377865607 11.571146312294161 -0.13937410305666964 -1.6416326563104953 -0.3777590748616139
Ni 1.8744727105478074 9.034130452580564 10.198003449141973 -1.11359465855425 -0.5589061480900116 0.3173034406787181
Ni 5.083376720239741 8.909974912653256 11.762306767381672 -0.7220022773539695 0.822556579329964 -0.5570531540416729
Ni 2.7438670637872966 6.63820077041384 1.9848968774024573 2.586030214909372 0.04004955972271812 -1.8491453640166156
P 0.3004345534711759 7.437850230549771 8.20603207647516 -0.28764962236802716 1.6042081929154501 -1.1205384368619347
P 7.409098518775139 6.5077485593088324 6.090826515031306 0.008830196697120275 -1.0673106878860457 -0.15044038817316027
P 3.717767638955456 2.3313980624058805 11.63263515830649 -0.8412778098885512 -1.5082006297698736 2.5217667769446117
P 0.557440595437349 7.148740425387896 2.478118834675735 0.3451495163567088 1.2581521055840719 -1.1858413718348029
P 6.673452869198391 7.669771445721264 10.650662806277154 -0.30890827463648735 0.7641956228925678 0.07874234830722568
P 6.770866076241595 7.7004769775230955 2.3081142687642324 -0.2293560288334566 -0.2996823851628452 0.6998347401179946
P 2.6055995725735017 1.2184243925056024 4.867969451212816 0.09203495165107375 -1.2521177264645338 -0.35086225047076997
P 5.558043869122033 0.9848364114341313 2.855099612103437 0.5132135311489032 0.21932178452590614 -0.874362765367978
Ni 1.290919449344124 1.8647869487068198 9.243760525801951 -2.033094425470183 -0.6485070363782961 -2.3807502531885127
Ni 1.4288721069990349 2.2171782992045563 11.381192410522024 0.3185792220673481 -0.14798421332318384 2.3369556246010657
Ni 4.89677301792656 0.6270817786626849 4.767801450529368 -0.9861885264927339 -0.06968409475969935 -0.1344167590513943
Ni 2.674964813444285 7.878580173746385 7.8415603771268 0.21692011706294897 -1.8746463365011972 0.022675073000012563
Ni 0.5300241483448092 3.1001104954760956 6.9964295054857235 1.6785313291090578 -1.3370680033546845 0.8261062443544352
Ni 5.3877929922497545 6.52249017771309 12.102926120720282 0.07651705852113273 2.3284064494794743 1.0875838363127852
Ni -0.05058264114013394 3.9127792492529743 9.262639427562378 0.08283143077493477 -0.04471019842318106 0.8797083459506077
Ni 7.360253018095204 1.5090435467880143 4.978491772059353 -1.119789731621368 -0.48503475472184204 0.10228722550670126
Ni 8.078258728563842 3.99616384330469 5.8912368543951805 -1.1168373338612638 0.5741815861918433 -0.563137669672856
Ni 5.994690235863696 5.938798019351075 0.827749281247464 0.366910047962252 0.3628577322697492 1.108448081356304
Ni 4.808286268258797 6.41481710057446 7.899159176724789 -0.29716733205047535 1.3585539411426022 -0.23720637811581086
Ni 6.0757506174659985 8.225563794879745 0.25555039974685834 -0.30974979670117625 1.0093479953283329 0.672006662162133
Ni 6.841101739304589 5.853468865082716 3.949722189444948 -1.9162544989602868 0.5589822527435857 0.9145452511241347
Ni 5.540848400920584 2.8449008567576772 10.736058631181514 0.6238807531891837 -1.0708112448401366 -0.22113055559987077
Ni 1.9898592098791166 7.278377773164024 4.013135224090697 1.7150913876212786 2.3087825046009596 0.8604389561980343
Ni 3.9242428947206056 1.1794313302566544 9.713536642748862 -0.47110477490431124 -1.0188168540507165 -0.2101614581828768
Ni 3.671153752619383 7.590451908503385 10.226084750632394 1.1316414887536317 -0.8054417740265483 -1.1353580183732705
Ni 6.193053897582283 0.643005874874871 9.393164791170772 0.24649654516848515 -0.9395402305065755 1.0688343236194238
Ni 1.9328650759103976 0.5949187526794275 7.264989013081917 -1.0422853694863017 1.5645610108374732 -0.9256822415775605
Ni 2.942360362853659 3.259110702523517 9.952564762521652 -1.0101031283268023 3.0398155246986294 0.0039756968182963785
Ni 1.511849269386312 6.332488124926064 6.045235837761609 0.8923067514409084 0.8996225683760314 0.6502900964206478
Ni 4.7141695537733295 1.6370141286641633 0.05503383207413284 -0.005670310911899912 0.08724395802033362 -0.17891458435345314
Ni 0.07841763166977964 2.935684039443189 13.124024876270562 -1.2258456801418824 -0.4633788670149633 0.4133287444361075
Ni 5.622806984146763 5.585230672912797 10.030520329644716 -0.3103316373465752 -0.18055751927351485 -1.3825665020071156
P 3.707887421092804 6.9811748935766955 5.550400821489575 -0.162122709607095 0.7267415918111677 1.4301830754438143
P 4.658323636313484 8.8455081115663 8.230549276882794 0.2254680066329601 -0.46305130847221543 -0.27600329637835047
P 3.910343919076894 7.5924798070150255 0.4202027951573181 1.2264043808588296 0.8388650866820005 0.45773658112752136
P 8.836831669075854 0.9917627497295987 6.641905620617069 -0.380538437378964 0.008755634705442985 1.1088193486527935
P 0.8811700543228396 4.42932852127751 5.054522224567941 0.630070169829347 -1.842378734716743 0.754300732376359
P 5.420952373848777 4.65494380546075 2.73786948449054 -0.2656666903390328 0.8641506007216665 -0.1950387436088254
P 7.176695793454763 3.9815240828165432 10.185820316394182 1.1864489235118147 0.13274734176877137 -1.1197887031801037
P 6.781774133075901 2.188130273492148 13.160833549209482 -0.2285186205338258 0.15510745463152642 -0.9165039175124021
Ni 8.6534226014043 8.278048401107966 0.7802233035716801 -1.089335786006885 0.23388271305921657 2.3564160473185223
Ni 6.37302757553777 0.33716174007720845 6.9320006696220435 0.7719135603621158 0.2903935036617515 0.44244134553134773
Ni 4.5190560855597015 7.700495497144207 3.4224824661341593 0.6961266951387882 0.605612293897299 0.28298384146124167
Ni 4.281319709359394 2.7132726497121307 2.3189158377771504 0.2838690722796724 0.7571268889712445 -0.2382368762628542
Ni 0.48624931992503295 9.079188690743324 12.541083688544592 0.25983954213429444 1.8816471932990626 -1.0887616586709703
Ni 6.467616540361566 8.170430882832669 4.974574872194403 0.8347544069477366 -0.7206532195252427 -0.36426258303707587
Ni 8.391564418707077 9.262588498604323 8.76535148747421 1.1978399389575758 0.9604867508512555 -0.590632275548699
Ni 6.12074403695487 4.388159403548034 12.515862742534747 1.8181360601192944 -1.4401581843786553 -0.13964946820524338
Ni 7.308685133111971 0.47818958081758 11.941825788638887 0.7606868384083608 -0.38443880087463467 -0.36790249378250833
Ni 4.006571870369003 5.517263663435886 4.082240264284873 -0.8874383676050137 -1.6290309083860846 -1.897969841718486
Ni 0.18732874547967113 3.501504763433209 1.8178739704898057 0.6435712896395754 -0.27461001557524967 -0.1989121105213026
Ni 7.938926359136172 5.955141584981423 10.047610236005832 1.4966993139984934 1.330255094197909 -0.4970726597229827
Ni 7.360271537716314 2.5749403398244475 8.359109708691323 0.20365399608166215 -0.8442456342676234 -0.2568884299257705
Ni 4.05993615859999 4.795304013860075 11.530122573590406 -2.3782750521751432 -1.01524559175969 -3.2806278749981437
Ni 2.1057549987909745 1.9467455319329987 0.8133771292843691 -0.4878107748050825 -0.35151299668089137 0.39327748221218717
Ni 4.293394502323685 1.448151032575456 6.795606438083613 0.22048006650006544 0.10336657461380908 0.9546917414360333
Ni 0.3418175728244825 1.8294792910589357 4.796885589502942 0.7599389044987429 1.3311246412870559 -0.11328049129341136
Ni 3.4011006375805977 0.4404225174861719 2.4934067819027628 0.5560293407628488 -0.06859137591615283 0.3944213660086433
Ni 4.6008850314381045 3.65447683380904 8.451308716410761 1.7048704812242186 0.2532112381844994 -1.1770574549945858
Ni 1.8106540961997308 8.526665054710913 0.9819140152228352 -0.30495931729106834 0.3185445121746707 0.4127127081186634
Ni 9.153128278028495 6.212323563348149 4.3657617737765415 -2.3540591170505714 1.1084511666800974 1.1631285036183194
Ni 8.528878149433663 8.822404884230481 3.40425452905578 -1.7562861166920332 -1.4520906741501831 0.44787434362146095
Ni 8.183718710979724 5.862700896206488 2.0555196005466696 -0.3843701524202283 -0.9588232471059035 -1.2375639970200751
Ni 0.8261343702865956 6.053425214216838 0.4511537119388686 -0.6387111333337968 -0.2638252662549198 0.36918753114251895
P 2.840150573942738 2.4256351544285697 7.932905630313026 -0.4483140022620408 1.7381564969708578 -0.6896382592009671
P 6.125457280527588 2.7843694751567813 6.465856250374977 -0.14476930593031198 0.14994905035903852 1.3204903015016614
P 8.078740238712726 4.985583860963763 -0.18515639392336547 0.2102103091429412 0.2773053030192256 0.9463564820974605
P 2.093235734920023 5.260127984121936 12.427336175681596 0.3253700197369364 -1.2938960959529007 -0.4446555795738471
P 9.16117505340117 0.9132580758405979 10.651936956209585 -0.5937101431430742 -0.7850171876236093 0.7755146474498128
P 2.604534694359626 3.9703937905289077 1.3421808345979716 -1.7402689153281707 -0.013048348543525915 1.7801575239929923
P 3.3166419055044507 5.585314011207796 9.194035343119252 1.0570668986708505 -0.3665189831714204 1.4189404126504594
P 9.119302190069481 1.1981176279575276 1.198954714831739 1.8132170255511224 0.1323699038246946 -1.3395015524968412
