# total energy = -381166.3195849095 ev
CRYSTAL
PRIMVEC
9.29114333160926 0.00000000000000 0.00000000000000

0.00000000000000 9.29114333160926 0.00000000000000

0.00000000000000 0.00000000000000 13.59852742897610

PRIMCOORD
 96 1
Ni 4.919362974961095 4.405832202583776 7.121507911372533 0.6861664986022828 -2.5126324187435114 0.9109307942999989
Ni 6.894288360362537 1.787151382583587 1.9605129641658623 -0.11787248153946797 -0.19150244832079275 0.4596589949612148
Ni 7.578683255046652 1.6601600381741644 5.222229155171607 0.3574638149476876 -2.3939978622270384 -1.155035956418172
Ni 4.5775046543435725 4.008059782562104 9.950409206897536 0.3718385956121209 0.31946830954052075 -0.3098261584650664
Ni 1.9963879260500927 2.498490592367741 3.2420384789538925 1.0466122789964296 -2.129182207034391 -1.1798455592626842
Ni 2.1347702119466354 1.563439238108164 12.218045553059717 2.0802425439108947 0.9469563204649886 1.129477134112461
Ni 0.6695076960341874 6.433029559279292 7.811783170548654 -0.37351624042486 -0.3528008622543795 1.4384594565199935
Ni 1.7141415798056205 9.060499800687976 4.052007818718894 -0.6559241547779735 0.9766993560553758 1.5329199868934245
Ni 6.162536509104319 4.028611791183237 0.6766460813070699 -0.4573650567207155 0.2714133630148229 1.0392216429593133
Ni 1.2169539282079451 8.790815079966004 12.761347006279637 -1.078581889924491 -2.0908833114541925 1.4571076677488004
Ni 6.4147538807269555 8.764065878871863 8.118973448775565 1.2743274297923537 1.3978475965359023 0.4553287430169772
Ni 2.0672050190475044 1.5984389743088003 7.278761438096555 -1.1149673705320606 -0.8639842503471313 -0.5711461417996293
Ni 2.7908364112031583 8.926447187493716 11.192063639137706 0.1358154391711338 -1.3374343855551678 -2.443955682202404
Ni 5.10975708014385 1.2005364782831973 6.62149017757504 -0.007219143456258535 0.6331174412961033 1.5786239166884426
Ni 2.7025612602495497 3.608094652759877 8.567833219341225 -0.977929114697419 0.13438024938650406 -0.18195491384167375
Ni 3.608503463057947 -0.11166095823181464 0.11010933732777796 -0.7843376450580815 0.23064697973073825 -0.1974830913842599
Ni 1.3038818634065519 3.38209688707252 11.249000693401342 -0.3496103803415398 0.575356580336551 -1.6383925521066427
Ni 7.744873932355062 8.29669350560385 12.532674320482865 -0.20189150486460067 -0.8065033825218432 -0.7031365507977181
Ni 1.202115972616648 8.350637882662754 1.9789252225223264 -1.159966303840254 -0.9220706129669023 -1.3119447259244954
Ni 8.747053795786286 3.4641562632668443 3.4825146329931087 -1.8031282738565526 -1.5544025822472327 -1.0900083865938777
Ni 3.0834423820464387 5.934253122205028 7.927628859649799 -0.9315309870488537 -0.6718850489826041 0.33756579047217994
Ni 1.0944037502184598 4.287862558161297 6.746378936292346 -1.2209073623000004 -0.2989889586402463 0.316277570517365
Ni 0.7351366147033708 2.3467383514956968 5.214912379950476 0.02864594587146679 -0.8941456044218601 0.6700307693826848
Ni 2.9282617093564927 7.062569544876984 12.475655504159615 1.5708519860525074 -0.8527873531900474 -1.1521874312257834
P 1.154238712026821 6.692521895978937 13.503608998655498 -1.911808033153159 0.7902218717530003 0.26573970966881333
Ni 5.9248319030631516 0.2911342537702296 0.367542756708056 0.4483060318422408 0.39801422556622423 0.7714469051383424
P 8.014855969657448 4.648693393066502 1.698538034019757 -0.059212505804414145 -1.1741230549566102 -1.2246845699542455
Ni 3.084771015515164 3.3081486788376213 6.154366806943124 -0.1772703638818108 -0.3603002559552182 -1.18812348300076
P 2.7556601432829018 3.124416323284773 0.9634831813760003 0.005192085723900735 -0.5933355334124749 0.28126711588045106
P 6.675528395179637 2.8431641293560608 7.122459324429859 -0.9979978604228361 -0.27393021589940564 0.9043971069465391
P 3.2635976474911783 1.283348437071695 4.933831143055502 -0.7416897284805679 1.5585883381938062 -0.10663033296674539
Ni 0.14238491036036888 3.133363694126613 8.760986794035947 0.4037292736731305 1.793509519819866 1.4717765826148845
Ni 8.941536003949736 1.045142109301079 3.120154475927398 0.6000659101577731 -0.3084771006363397 -0.340327155267401
Ni 1.2193603342806725 4.3595808920430885 4.045969504793544 1.7268765531816648 3.522141622240057 1.9457869612017649
Ni 3.8065255967569542 4.027255284285097 12.031065942980156 -0.5604490670970993 0.6969923855731932 -0.12549168864762258
Ni 7.199279425008696 2.0904979148943306 13.083292548923918 -0.7929575255166086 -0.7526462274920716 -0.005215996983300694
Ni 5.263181726780724 8.097593599300842 12.38061547188727 0.037865921807838016 -1.1095328297800504 -0.5809623565591027
Ni 1.5086493670237064 1.1813038119876529 9.584187650743695 0.20622407080168353 -0.04982952192761741 0.3761433936350619
Ni -0.07109118171998086 1.089683849504384 11.845690913320519 0.192960520923558 -0.5824440833109518 0.2969189634850951
Ni 6.681372524213405 5.524383633817752 5.281232559669123 -0.7080756399705483 1.0304516100761674 -1.0052134043346688
Ni 1.6032796598836692 7.824870674772762 6.298280110349686 -0.3797393385164363 2.1214673548886367 -0.28163298386030206
Ni 0.9293558835160171 7.653978679036553 10.231749666686058 0.6165695642397511 0.5365784311270888 -0.5202349567720589
Ni 2.3798055299236403 5.6957308955677215 10.384569459904652 0.38065285146964123 -0.4656409235762626 -0.05835247179696402
Ni 0.7692536923059021 5.480129919051723 1.7252584325701712 -0.20912376094698176 0.7441703288105764 0.5062021328280767
Ni 5.471591358507952 7.349284930970807 1.0871427218561562 -0.48422614277761766 -1.2009507166724156 -1.1479088584550876
Ni 7.914139978042131 3.7132146462225792 5.588464648040154 1.257240906623712 1.4370970289548282 1.4145641379596345
Ni 3.7886494373595494 0.5767885913176997 8.554711337887504 -0.25258568878535853 0.06772517126111562 0.9586299001481748
Ni 7.672161446157509 8.158385548852412 1.6435316793001853 -0.6258569030789479 -0.5423341026639434 1.290005759759559
Ni 6.245980265626197 8.296312568735194 5.285054006841759 -0.14609111006552905 -0.16439325080882655 0.5606439567167248
Ni 6.7922716087079085 4.0684429218156035 9.193569410938242 1.2814077336779028 0.061183256377539796 0.23354898386888165
Ni 4.7257262608231985 6.319408169845371 6.051766571499433 -0.6571258883955585 1.0652144674786495 -1.4991621737166891
Ni 8.049762794426705 2.663975142797667 10.926783849377433 -0.9665869502117225 1.217672914523103 -2.506106701809852
Ni 1.959102568637522 4.7347944165258316 13.179651923521853 0.05346737579052081 -1.0009638850296954 0.8716528226359826
Ni 1.4736589219662082 1.1329248296683767 0.8763926511724792 1.6545509070340605 0.6152233346245017 0.642002659600875
Ni 4.409307090117367 7.898084882699763 7.6633144196615595 -0.11295730362603772 0.3428290957536483 -2.030202705744684
Ni 6.489175937261889 3.7520330422529105 3.3147630436375244 1.3094597547191125 0.5881074522443162 -0.8538924133287681
P 8.781960620555543 5.418288070325566 9.598384517458475 0.34496851069415424 -0.45356188092454147 -0.25559953591101786
Ni 5.295264044036046 5.918513925729349 8.77614901052276 0.7156498527733804 1.488734550625462 -0.7016620231347207
P 1.0673851059733177 6.838244184954457 3.648538998839349 -0.8259702329972033 -0.5754540251463638 0.5764469851872525
Ni 4.397442300330212 1.0465357807717706 11.339934040406717 3.2136362394689426 -0.010947243040123083 1.5009627172605375
P 5.055710500510428 5.271032742732287 3.052040176468814 -0.003825030173045025 0.07936018439688268 0.2915615558279237
P 3.494928529339716 2.1576078417797024 9.943637821778601 -0.9523939465407921 1.1294154276365902 -0.37439195816159393
P 0.443356626485054 8.888427829773246 7.865891071726787 0.38518416368109143 0.4559188111924922 0.8602288970697572
Ni 3.197268176629394 7.020480666462096 3.707557269165885 -1.3755473903768052 -0.4761407946663219 -0.04404351137345963
Ni 8.83624876991055 3.631303928318462 12.82534254198517 0.5871638573841242 -0.8925702895149402 0.9535817962013061
Ni 8.46559719670854 8.039607574976932 4.073289182076356 0.7244337696135975 0.8642058794396341 -0.40379637946564
Ni 4.566773384019247 2.402522374895914 13.308606486476322 0.018873182755419108 -1.082909056544935 1.5996982208602386
Ni 3.055931307214985 4.828012455628826 2.6296963993045352 -0.3939305424151538 -0.658626384200485 -0.5342844928865896
Ni 6.447821059154899 4.072094341068817 11.962325420474077 -1.2808786006473103 -0.6993565149299955 -1.2151131242157267
Ni 3.458182058229146 0.2164176679978229 2.53925269554253 1.1733864339009017 0.0947729194075271 -0.06642162195834367
Ni 3.8023074177723273 8.595282972627965 5.368059221407526 0.26359772362514605 -0.2874994699434081 0.23391048097335845
Ni 7.670907141833887 5.57090438750944 13.095817009873866 -1.2253998508537156 1.8965007133721274 2.058557088517661
Ni 7.929934921376637 7.400423382802052 9.903154452897953 -0.9600442639971983 0.06059473086392145 -0.02538861527643369
Ni 0.14145765427520204 5.485881136654111 11.829426767257548 1.4009108088422582 2.0774246148461257 -2.644506099658078
Ni 4.994305335511753 3.439209543941464 4.8928321157306955 -0.46164800036678555 0.8227499262876927 1.3638558129714897
Ni 7.5325248559373446 6.191785027702568 3.0024319759123883 -0.41940117588243253 -0.3515772742599235 0.3577720902167258
Ni 4.994519031803926 8.143027289245389 10.047217343709033 1.9235762294326804 1.2949286509824731 0.44759743581099043
Ni 5.8901759391586195 1.8964709727446396 9.44062833989069 0.33101436250690736 -0.9835865700935126 -0.11679390376330853
Ni 2.9226777323305884 6.783324237866068 1.1749626067960057 0.8888416757104434 0.22977743264159137 0.9606667280725456
Ni 2.4524901426917785 5.88646877304658 5.677425485357343 -0.3174877887753822 -1.2224240560548432 -1.0008448429533277
Ni 8.632716988330744 1.7717652495471512 7.267515438442387 0.07901977033832844 -0.9379554025179588 -0.1039900671304209
Ni 8.623230731186903 0.39352079292174824 0.4741846394167531 0.47203551424869666 2.0031495582816343 0.6910860473910871
Ni 5.942094847013452 6.194609535216503 10.897642178925272 0.648250954503432 -0.6427909598301251 1.2648788827849442
Ni 8.53262350330567 0.6204551058374103 9.5440852187317 -0.18289516626775598 -0.530800133882415 -1.4588405912795068
Ni 5.571982160113442 1.2473731308415748 4.463104667114692 -1.1793987015332525 -0.9835886269760417 -3.089092516556886
Ni 7.8633452985069905 5.354606575258096 7.450116132761034 0.9300541453930111 -1.3318162680374417 0.351706086528304
Ni 8.975615916979717 5.922286129843355 5.265812049403076 1.395305546840339 0.6263585253057148 0.15604179352033773
Ni 0.22955162793762096 2.959907342884331 1.3645307293537974 0.0388838215493911 0.37516997397819907 -0.17691940830029532
P 4.922484799055445 5.7312137712115305 12.787877865510035 0.502564021854857 0.7900460082967684 0.7116559011226389
Ni 4.430667428191501 2.7936237541445417 2.6852332782972836 -0.5166886341816972 -0.6978861010320562 -1.4475711890132748
P 7.143095882453547 0.5662301362557397 11.105005627935167 -1.6757195706918753 0.07499162301554181 0.514316791515411
Ni 8.198430375776951 8.803088680051228 6.3208269274025355 1.2128788355685691 -0.3208561910269829 0.5710546105270875
P 3.210517346744103 7.6147886372807045 9.320185393164891 -3.2304530539159657 -0.7887213759480739 1.116544228100877
P 5.823734974579179 9.192127425523232 2.7255122420288993 0.9566146694903589 2.37007991795886 -1.9653581984654733
P 6.63217592129799 6.9163826987445685 7.146665539647145 -0.9957568869074591 1.2346609644406672 -0.9521880011775731
Ni 5.291473257635764 7.396474646968426 3.396001082778454 1.0825624718387936 -1.6607426376670686 1.2874110024491892
