# total energy = -340888.6591034257 ev
CRYSTAL
PRIMVEC
9.07296567574343 0.00000000000000 0.00000000000000

0.00000000000000 9.07296567574343 0.00000000000000

0.00000000000000 0.00000000000000 13.27920237587465

PRIMCOORD
 96 1
Ni 6.6897968648540145 1.797100420861896 11.626831076610722 0.3685128736729976 -0.15890266000790054 0.2750527595396231
Ni 4.462900995687215 0.5995116189020419 6.220735436494352 0.5683127861158923 -0.8531889595038403 -0.14926770802129777
Ni 2.8951742154196967 1.830180453044448 4.66810425621184 -0.13003354238203413 -0.6462871459088418 1.451780599108932
Ni 3.3689100356006563 4.243816097960367 4.707636074155504 -0.06007793912850298 0.36330381866823236 0.7936648359962782
Ni 5.255279363934886 4.474305713310217 2.6426944536077364 -0.25647705341996474 1.0989931065909913 0.26780044885258397
Ni 7.202038350581533 6.303098002634443 2.5692869044079027 1.5249842769861157 -0.9444736632524507 0.7822090287508529
Ni 5.170619522932309 4.5210949963506515 11.725044113464724 0.850908905220412 0.49926195406481755 -0.03818345304825682
Ni 5.654244875499167 7.979745733629207 12.391752836687566 0.2281442679135426 0.14029250110588098 0.45750646739458634
Ni 1.718238204808483 6.784954126930428 0.24235614691637827 1.5429773711294266 -1.013863623810499 0.09375887632071594
Ni 2.885366339723224 1.517226654341 0.5523294764558196 -0.816250177495962 -0.4570909771237225 0.10197303670039212
Ni 0.8175050388802443 9.301513492383615 4.904181911007997 -1.5656956386625487 0.15030257704371533 -1.2521310962009724
Ni 8.782875565984483 2.4088814109982946 1.5068571620805944 -0.5316509119184843 -0.4697670299294942 -0.03525522365786832
Ni 6.666606365057359 0.588024337293065 4.96276967837377 -0.06920921200580984 0.8831898767413047 -2.1427882278536
Ni 0.6518925705749788 7.313082375233824 2.2972884719337583 0.9692413571154339 -0.3578703063574869 1.175881946629246
Ni 7.624475623872708 3.8949152099790054 3.8735166208669516 -1.8873673836122917 0.6678684716240433 -0.11646891632372199
Ni 7.516135342936928 3.9706563259032914 12.620858824799939 0.9104021754900385 -0.5404584829077853 0.4501644252072183
Ni 7.261656806827157 8.853218267441237 7.0299568578807206 2.697302417523503 -0.5027195735961149 -0.26450892258550573
Ni 7.115182851929976 0.531345521866734 0.32178179412682256 0.4493568417042583 0.8413837393387962 0.4034762771220599
Ni 1.8179682414926885 6.386560212192122 9.292188298451295 0.23962450063900026 0.47190053133272925 -0.8486057110085321
Ni 9.590668902602467 4.783775493264872 1.366642646076102 -1.162419650476753 -0.11378211352017825 -0.6388823688043385
Ni 6.345314511067086 1.9570386565486841 6.964742196519847 -0.058758706096447184 1.6008649874748302 0.6404515130636712
Ni 3.5852095329215676 4.391551195060887 0.6476346278697481 -0.3156389084921015 -0.30926205843148025 0.3077561633099151
Ni 6.005931163886464 5.660741118791188 4.6571758692771485 -0.492936526067422 0.6004009248996884 0.789403232506447
Ni 5.249508957882197 2.6179951196498203 10.096429569079298 -1.2174556563059744 -0.04231058784275294 -1.1449142946031379
P 0.17666061838444638 5.4312948944728765 12.47967440878439 -0.3056589144612542 -0.4810472308290038 0.015958837322101547
P 3.8185299135048125 5.971844032534339 12.663233202832139 0.8799387167938587 2.4129103828608254 -0.4704170048086672
P 2.5762231865262684 8.434528128898112 1.4010890668616964 1.1915296804688318 0.6290281017180779 1.3012263110657267
P 6.019531539158446 7.71873466236545 5.621896124335241 0.5351344995917106 -0.7479632201941054 0.9430996657230597
P 4.552886667433389 1.2303939232880092 12.449305378690743 1.637557200689541 -0.4215403337126224 -0.4668526844961766
P 3.8997964654135124 6.296728780859306 8.28883807821941 -0.05154727594967252 -0.4225366361876207 0.561278247866614
P 4.679100690387719 0.8320798506460292 3.797731954708306 0.4872914119665027 0.4146718887275633 -0.2463435645303886
P 9.200168467841893 5.587867059962263 3.395638084642505 0.10458604884320698 -0.25536196597891503 1.8450683657337643
Ni 1.6124655731068391 1.3301511788686895 2.890815562797508 -0.12347054445253575 -1.5192404325238027 -2.4378228298317888
Ni 1.7489139011357482 6.149819323618526 4.811241174401192 -0.09780759246879284 0.8984804843517881 -0.6801277486073706
Ni 6.155934502359897 5.3896409099007165 9.216297478596399 -0.9079660552447201 1.0482405586284722 0.7520805847965887
Ni 8.826071954690224 2.204739687436193 10.000367732343369 0.3372446596873353 0.17453676700073167 1.1827923005958338
Ni 2.376754040192366 5.270512872995364 6.963971901749605 -1.0040484374922902 0.20807732196033843 0.4878066610400244
Ni 0.5385177010878824 -0.1404068628729154 8.974549220367962 0.3613186699174035 1.071617799901832 0.2389652697884465
Ni 2.040491793140871 1.1680989422223473 11.407073872140945 -2.551025673809729 1.7024343609789 1.0854621619840918
Ni 4.215435861902489 6.837368648575684 1.641773973534513 -0.5183968751220556 0.2185121441404172 -0.7555628869182344
Ni 5.458250674948565 7.877956133778397 7.956087976109733 -1.3755142231460247 -0.32303442962522433 1.2162426098344796
Ni 5.200260901193527 2.9068874138694154 4.786435686747025 1.4040251861015238 -0.546468179436975 0.27166764511747404
Ni 0.612271837569497 7.819961738355778 6.6485910847771414 0.32788815817309985 -1.224041537053608 1.479457239088594
Ni 4.764967235800683 4.641266424287542 7.115487703570496 2.2695089038123175 1.1694508462919215 -0.3417420333370566
Ni 8.178788450585003 7.2032722738883965 9.174600851086426 0.16882094756287702 -1.1751453255735373 -0.4244693344339593
Ni 4.768777881307177 0.2081102386681492 10.147209142342959 -0.7269441947402772 0.25984391300966864 0.474415584445099
Ni 8.193786062542697 7.184917664698791 4.864330724679027 -0.38845126446813744 0.2973061716211847 -0.47584074692739986
Ni 6.931518811482526 6.27182349058473 7.064031287081157 1.1251198855850302 -1.005569759232823 -0.8852213053490369
Ni 2.4715302377181305 5.077567188849958 2.6346068121684807 -0.4562347997710143 0.6303252232629466 0.26031802443260976
Ni 2.1482876961471526 5.329396419036168 11.474478747371501 0.3456441966049402 -1.5234740109891762 -0.23339163235541097
Ni 0.6063480983999995 3.192921723959141 3.8136141808014377 3.1050904346470394 1.42982672054566 0.2819186334215209
Ni 4.039338674675074 2.525768425427209 2.5980091912648158 -1.3038380376569612 -0.1609986233049808 -0.08983280179343239
Ni 1.227300042055357 3.4251714946143714 7.971876750658301 -1.0090296927569653 0.22700989719878323 1.4911632146716127
Ni 3.650961313839548 2.7937475341885527 6.950254485222782 -1.262505240346445 -0.06341728791438112 -0.5843150750814196
Ni 3.905712038914068 6.843456608420581 6.005333255460565 0.616977598311447 1.2391333983897241 -0.46375913317251743
Ni 0.7640362386448586 7.235635541797109 11.37669123259906 -0.4341189417085814 1.1843956405272118 -0.8610537069638976
P 0.16566872069131364 5.857080092030472 7.776911424394452 0.12096783263534004 -0.3499178842796296 0.4755514978217552
P 8.546252625962277 1.6953289669420692 7.941294505875599 -0.09206914732311886 -0.622725813649134 -0.612994445293983
P 1.8981188186459157 3.2674379895420538 10.369967683797377 -0.7559650074526593 0.21327223589771657 -0.2764277855102788
P 3.98924683219568 6.120940074458606 3.79531582399788 -0.23486127492240197 0.5256062483863012 -0.10981284445978508
P 6.988614983321472 3.8131496449682647 10.441330186575392 0.9354868863728082 -0.0320040637104223 -0.004895637529404471
P 6.409115604404362 7.686353248525754 10.175786261752007 -2.1566752702483374 -0.1211390681058817 0.10018740555487907
P 2.549557740946312 8.772804574288752 5.960741444662208 -0.06318383174733634 -1.7200798419748051 -0.9112305849286048
P 7.184182754493968 4.0859646443366575 1.7151815227343463 -0.043960721851666225 -0.07781675116916276 -1.3950052419911005
Ni 5.427838094620558 2.9976352147168885 0.6553448339445513 0.334436757924895 -0.6695186056329566 -2.1765725233928968
Ni 1.6601621526964379 1.23936708615925 7.079222153203825 -1.7122557179446964 0.6520952679501866 -0.9929258452165675
Ni 6.982771993544851 0.586647968427982 9.160339056630106 -0.17204485381681336 0.7447244015418335 0.628580215547382
Ni 2.702854565893213 1.5328684468486027 9.088750637011346 -0.4095456232445915 1.2931874999216502 1.5662651380127735
Ni 6.443819697409919 2.1327094143979917 2.4966224310818355 1.140415892512152 -1.4581600202727145 1.5900982358766291
Ni 4.150319188568925 6.9984137860524545 10.653066889550553 -0.0015467756618295942 -1.4260973354102149 -1.3385733842556173
Ni 8.364330594889225 7.221390985975219 0.21754521548291497 -0.9110130696011601 0.15299143672978813 0.13725011473513135
Ni 7.7028206808930975 3.9567474698045935 7.954959299202571 0.6839388948233447 -0.2799918487124533 0.31521493358080555
Ni 3.2181536409914164 8.453862618360816 12.310896382819088 0.20676168847270845 -0.7068052578985569 1.3253013497370594
Ni 0.05308138460889233 4.682221790516846 10.143743269525151 -0.27950899553876374 0.40197526709650133 0.04559388657971503
Ni 8.496405753551159 2.256863874185716 5.759495811685041 0.15764024835570914 0.3582022357756089 0.8320274949348768
Ni 3.37822797116058 2.9839350368244983 11.924219295716698 0.6191553226890563 0.9657649685310594 -0.29050560375958356
Ni 0.957016400059134 3.107164054132075 12.762468762897047 0.2605442815108029 0.3580893643468284 -0.6487978281458375
Ni 2.953649478013374 8.469141492248754 8.107856006371291 0.7398043385323969 -1.3088023236407718 0.0656340930600418
Ni 5.621037821799732 7.852279641437031 3.443337386121751 -1.030029434937084 0.858147074840064 0.5720578549806212
Ni 2.7284675474761384 8.253132329823574 3.7335806449030526 1.2397013550780522 -0.3984775383558879 -0.4599083919678595
Ni 3.669905665786111 4.349470781110619 9.489596974322046 -0.5844372024815805 0.4185560542733179 -0.3579255850754545
Ni 7.292268992395981 6.18362519304041 11.531273696756125 0.020359280382642356 -0.47154571909647175 -0.668981245072248
Ni 0.7583692643987746 -0.0019089519394429443 0.7002932122867296 -1.2509026231105103 1.4474084381831653 -1.0661806880466604
Ni 4.83735135449306 0.4114598923428302 1.456861493035412 -0.2244007417107103 -0.6147721060196961 -0.09845216803132721
Ni 6.262741452127589 5.744103525728458 0.5336409821361211 -1.125985833129751 -0.018773166842445087 -1.0765951985117652
Ni 7.967696835456297 8.722594783257968 11.260312304237678 0.547158006415148 -0.030424120817812116 0.21342495942549694
Ni -0.11140059219611362 4.892769027716051 5.813183270388776 0.12368677422839988 -0.2039617571300681 0.05830876304322216
Ni 8.004124791905268 -0.24102332828565504 2.576749418524784 -0.0041263634635477315 0.15335884737153588 0.33822759242589495
P 8.400332121960087 1.4604298903632773 3.718694630420904 -0.15080059972605642 0.587149202096105 -0.45916919980898985
P 2.0556890103393832 3.1630807404571075 1.7096043708466298 -1.2624481618562644 -0.4833026025220838 -1.5940839599972544e-05
P 4.621868424066396 1.5049237131343238 8.26344829158758 1.8621068092732898 -1.1745663131416157 0.8883174277758572
P 8.823985172627145 1.2420889758067448 12.424778431077169 0.31161976003037944 1.3847231433388023 0.16459019731098107
P 6.417952672793227 7.931649943557976 1.385339306064743 -0.5367902900275787 -1.4086395449450837 -1.0720921684350893
P 1.7239360271372386 3.3836989693520443 5.880827671908314 -0.37794702250270396 -0.334982603126036 -0.7303578484075163
P 6.789980549812802 4.092742149558919 5.95248232417516 -0.502117935456374 -0.5458020066078858 0.6823833774107667
P 2.3162555062940506 8.61531603928471 10.253814672276738 0.4119177230211938 -2.3106941198013753 -1.0836366787395788
