# total energy = -340896.34977725433 ev
CRYSTAL
PRIMVEC
8.98518564558909 0.00000000000000 0.00000000000000
0.00000000000000 8.98518564558909 0.00000000000000
0.00000000000000 0.00000000000000 13.15072742880888
PRIMCOORD
 96 1
Ni 6.220776426357706 1.93836509919551 11.262230173969861 0.9434423937744592 0.2872649853350988 0.40430031568525215
Ni 4.3924439097299 0.370461896867647 5.984080581239075 0.9038304358097918 0.24812508191084365 -0.3400679880687434
Ni 2.506866775795314 1.7265842751614755 4.713614875562931 0.6376083871879213 -1.0761187730959791 0.7387720406131405
Ni 3.387199317821556 3.9590344982701775 4.521456798309038 0.6616924247203185 1.0084177702045796 1.10650047071163
Ni 5.243367939364824 4.408841873406698 2.744070283899008 -0.425234494734758 0.3164346649205195 0.08686703429688909
Ni 7.313195288727578 5.988689082921172 2.4750062062602147 -0.19308341965466747 0.8816592990293913 -0.11142184081811778
Ni 4.910215228565761 4.506447944322342 11.25122332163886 0.007620749770051391 0.3463543352980874 0.7184785804714271
Ni 5.514531854872804 7.765958789918711 12.553355516841654 -0.7698654195838355 -1.0731584049160743 -0.7782981237322208
Ni 1.8081068638954931 6.413499671784351 0.422566988024769 0.44197751852105177 0.45877222148088725 0.23858963161658267
Ni 2.765235787042605 1.3780579118413165 0.37339106736552974 0.18316538921000713 0.2706402322942242 0.46307213440782186
Ni 0.5685492980833584 8.902009713447228 4.626715551780039 0.34547810334072115 0.47504910426403985 0.3387338426383521
Ni 8.53755261610024 2.1711353167358447 1.4353492521130944 -0.42167634506985446 0.36040541407451476 -0.2067920274900116
Ni 6.688419394863237 0.7476429155092716 4.961676980435618 0.17706827517333376 0.509865954832909 -1.3618189850471192
Ni 0.5928407472889593 7.571582270346022 2.530305530889721 1.461887862746263 -1.1030410514081197 -0.5421721231647824
Ni 7.761888500852634 4.036387960896779 3.7247853191839795 -0.5662497329392764 -1.4017165925730053 0.6131574532344085
Ni 7.660787192747799 3.6977992128240382 12.48245970708876 -0.6533774770967198 -0.10721757292878309 -0.06132132461730084
Ni 8.06778015861312 8.893752327902583 6.6291108804295735 -1.2985029985972927 0.7303745605780647 1.4468991026469145
Ni 6.6438618595902295 0.5546357382184156 0.3877269309525599 0.9351564996165831 1.3913380775521587 0.3119303492922628
Ni 1.8970062899876754 6.369517188388229 9.218830950942758 0.7985805281303407 0.9374866904116563 -0.39551434196250596
Ni 0.14237655508680933 4.729397354027751 1.3496197994922405 -0.024210535807932497 -0.4606928355423679 0.14849843395544104
Ni 6.357503995272679 2.0370853331226177 7.197458910356022 0.5413128604882808 -0.38730018158282975 -0.8265358756926863
Ni 3.3656977687374052 4.016872137824996 0.46677320254174165 -0.5969782723713848 0.8791732993827439 -0.7161373339327602
Ni 6.053014026462099 5.705170537245741 4.689286587096468 -0.500186779871932 -0.2882988259162519 0.4096073297204624
Ni 5.159167765329061 2.95139984699853 9.113901055263852 0.14851771722915066 0.06172910157868079 0.25755948785086613
P 0.1853841458478999 5.494144468800118 12.34662616413863 0.5506205110424518 -0.6656197847991827 0.03980761891524112
P 3.991264358932464 5.920060235489185 12.690859405790421 -0.21279041116529163 1.1440216075855394 0.5417103530370154
P 2.3703458661485968 8.431868863351479 1.4058787419412986 -0.17250585261363194 0.09049203264398609 0.48570401287472476
P 6.310790015461353 7.797973006127165 5.722447252071904 -0.6195178482347976 -0.9600874585303079 1.1362931285930302
P 4.690455559739948 0.8979560850156508 12.474464688962943 -0.20848638447329898 0.21233481168511176 1.057483931603611
P 4.018166004547988 6.185141180361992 8.130318847261472 -0.11177562461311072 -0.037432176704529085 0.5170323906743612
P 4.518317374468669 1.2347531870844723 3.848783575692969 0.7380896698341353 -0.232168044360955 0.31274821720786783
P 0.3522228686662603 5.598570295568194 3.4360742347639888 0.40472480481718043 -0.4438297412384421 0.034643558215798405
Ni 1.4291386918427371 1.1898092888316834 2.7308270188780597 -0.18563261980357706 -0.7179854428850925 -1.498626612928193
Ni 1.9705590191154905 6.460321473822592 4.61457746458498 0.3292418439875168 0.0354061474134358 -0.044079249707401506
Ni 5.941022673438756 5.529123796248761 9.189846539310642 -1.1890814760386554 1.6015399020546677 -0.9077408266077914
Ni 8.504855525787985 2.414885431050451 10.137868976876147 0.15093661108328846 0.032399499376628074 0.4198326069928963
Ni 2.4478520769299963 5.322015268714416 6.866113120376358 -0.2715681434251323 -0.027455525107791423 0.2752589620131582
Ni 0.5260493703073305 8.83120645110577 8.864484882924812 0.6807473844692405 0.4432468721517786 0.10345013546655087
Ni 1.507705154522143 1.1766459919623637 11.446550473845523 -0.59228189533698 -0.12827619337129523 -1.0778820356439889
Ni 4.059192361889498 6.987024067121321 1.7310562020228135 0.5007621927594279 -1.073047847480139 -1.1119450387659688
Ni 5.5800069021675025 7.934206389835439 7.97537651014617 0.03562057741708704 -0.21592689991174427 0.18961525860040893
Ni 5.565280183007903 2.778219380200398 4.998341928698379 -0.5764444140840912 1.15440783591587 0.008646105710772206
Ni 0.6878015795709319 7.4280169752074645 6.626598622542431 1.36246844570566 -1.5985715634549629 0.600969652918965
Ni 5.032494619073999 4.683887389083653 6.790391367450417 -0.11247290779045145 -0.7124231183059666 0.4993437151453465
Ni 7.999438837119575 7.201716091282085 9.314108061757018 0.22042838732652362 -0.8286961165687986 -0.9449426324690694
Ni 4.603568815216863 0.3399868429484178 10.347465502296574 -0.9613293013572088 -1.0025757096015058 -0.6135976260956207
Ni 8.121718227627813 6.993062111828613 4.678502567367759 0.051336188380130945 0.4777988990950352 -0.00385511208003207
Ni 7.0989974497735115 6.123305133225708 6.998922249861494 0.9576407967620283 0.45709072001340634 -0.047469763446189216
Ni 2.5613978670580444 5.0959659699851745 2.4563322950769337 -1.4463524861148251 -0.23949363148809075 -0.02991504239187751
Ni 2.342482805676406 5.026654248449386 11.557345898668657 -0.28843432305285166 0.586529566234235 -0.635436576347583
Ni 1.1067682037352664 3.399302362792869 3.7513500203403907 -0.6119171530694043 0.6611303815692614 -0.23124373277447274
Ni 3.753399541170351 2.6820239834202377 2.4454961612718833 -1.0636736053540907 -0.728249800925578 -0.10377743689898256
Ni 1.0689675280156576 3.594056260159763 8.20030715327116 -0.5192746497413187 -0.10137525521539316 -0.6231163642193333
Ni 3.6905391828783656 2.5188260577974053 6.7866822828445095 0.3227035286483668 1.015253305069174 0.2890112786022442
Ni 4.060054939704825 6.913938567643475 5.952900190252104 0.8458955111662206 0.03990223551157644 -0.6376312700060567
Ni 0.8888810475835602 7.3026466808609705 11.250749802358987 -0.555865818601791 0.001646534464487487 0.39642039871654305
P 0.19988443833097685 5.818213156981516 8.029859979925346 -0.5047245198412856 -0.8863461629820993 -0.29308107779624365
P 8.585407714479759 1.6461219383254648 8.010357634631928 -1.006087579409506 0.3025697340129692 0.7048566188126184
P 1.7627676174773457 3.2599511196896094 10.42329238189376 0.08617412199492255 -1.3443002594370654 -0.6019703262693374
P 4.028364190177119 5.944401103215456 3.7211166679131646 0.2771212120328776 1.3113032356857546 1.0739518473516472
P 6.688940535626664 3.919634459517982 10.322360893796317 2.23530423290615 -0.7724282952150052 0.4186115901016017
P 6.15527442350628 7.612680509172144 10.306172284943449 -0.9034242015103086 -0.02861329286131846 -0.414119358658203
P 2.416961008918583 8.4717900428671 5.756717648378574 -0.4472940456379587 -0.21365635871001268 -0.24855754146257192
P 6.896498322439824 3.9131112147895686 1.5722879728891104 1.2539825475874147 -0.7134677575203972 -0.822920647537602
Ni 5.280791237290227 2.859157931871954 0.3699263798072979 1.0249890442996992 -0.787001822153806 -0.01840601331101346
Ni 1.4545308262814378 1.1820460884937367 6.89279552746382 0.3039930967230571 -0.21446291377170804 -0.11840727099701542
Ni 6.951343895197726 0.6162920816431736 9.272643227359383 -0.2686874794432276 0.10962823925280475 -1.0268908893081024
Ni 2.6363073592078847 1.781744329414549 8.855528449942328 0.48447219735015273 -0.7741205953157636 1.97546443366154
Ni 6.3136742600313545 2.042772955592433 2.653159074756286 0.418108425212938 -0.16947220799363072 0.15985731061168598
Ni 4.052543324563016 6.7101725291435255 10.578484507168083 0.13758821480084046 0.6677046923526694 -0.824837919164973
Ni 7.938654056695721 6.991669408064283 0.166778522074999 0.8444844897513069 0.9137330396354844 0.4910927879904639
Ni 7.496448148556774 3.9430768086866204 8.17996289608924 1.043595603657293 -0.37043065952100074 0.037976736354089435
Ni 3.0312152504730454 8.247708499779074 12.324927839490357 0.26489484517001477 -0.2177135594985218 -0.15500126807096531
Ni 0.20004796870846606 4.840651921833835 10.149836345545255 -0.3828534586653858 0.18744550464259976 0.3389338744643001
Ni 8.603387070817991 2.328897205084999 5.913802952253831 -0.4440835091204609 1.4689208583336444 -0.864549635932298
Ni 3.715068739501739 2.5844268976901708 11.443184623328632 -1.083902530806456 -0.37705099305099576 -0.4719738077728258
Ni 1.0167546146316198 3.2249358514986617 12.619017455996337 -0.06856540777422385 0.1740883666094034 -0.3349098409065716
Ni 3.1158556986020485 8.382728883434543 7.921235375937453 -0.435563901685224 -0.20543062836611073 0.8930873383606748
Ni 5.4928416168915515 7.880582802315917 3.6802834920615455 0.14144229843960804 -0.3137352637114855 -0.2862720252942102
Ni 3.115873668973201 8.481242458093398 3.5762350430876757 -0.6198178959737196 -0.3967924373439812 0.554196144208852
Ni 3.296574736098719 4.284280245762073 9.216187509346204 0.04971227962346277 0.7438926496691576 -0.23485433294386648
Ni 7.250406811920203 5.913015849997344 11.259336944214283 -0.43350419094271797 -0.2561289260519266 0.4700701629922099
Ni 0.550363282476872 -0.06924972375531205 0.27975914403029595 -0.35840329604282145 -0.1775912375563393 0.15208949374080902
Ni 4.644631113300679 0.3199390968905163 1.8674953464807857 0.09418105145979909 0.5518795802605334 -1.4161037145326127
Ni 6.040704322222531 5.447664103813778 0.3018842649934443 -1.0145241402126335 0.04859230708640663 0.24635076361924022
Ni 7.803444984143148 8.6005747077326 11.29955193929825 0.45337958971040626 0.5707782169372492 1.0416958155314189
Ni 9.262108995789697 4.974863638787435 5.772682526110591 -1.1775575345594558 -0.2249458155809029 0.12455349310406935
Ni 7.742273840739512 8.82623764348206 2.6570254001097804 -0.44709401381201064 0.6560480819503476 0.09068820781519218
P 8.401786462041935 1.6056526624896865 3.768748933690391 -0.09031359808459286 0.9956447868096273 -0.536810858852869
P 1.7111297559701926 2.993037196959231 1.5047723899500296 0.23068477494720915 0.476015067721735 0.9338593780717144
P 4.747718147417882 1.0673681649830713 8.261418095931434 -0.3536920066100812 -0.6460454622116809 -1.0464662403368687
P 8.292472694320336 1.487587324016746 12.376412054324156 0.6398375336287562 0.5812377217076764 -0.34524824671810217
P 6.354655691444983 7.671695208037461 1.4785760814022475 -1.3528412070285412 -0.34088971263909035 0.5165659925609039
P 1.7942966336646782 3.425494178747863 6.019232424250782 0.3955547082821381 -1.224105300412008 -0.308577630769946
P 7.0573421294416585 4.135314854092143 5.958488975680579 -0.27454111001052717 -0.2082254175024285 -0.0018313967817839426
P 2.267124054247749 8.58009746980415 10.125218734103235 1.0981901510737215 -0.4020595992801914 -0.19170993634590852
