# total energy = -340861.9153972608 ev
CRYSTAL
PRIMVEC
9.31076639508578 0.00000000000000 0.00000000000000

0.00000000000000 9.31076639508578 0.00000000000000

0.00000000000000 0.00000000000000 13.62724776590062

PRIMCOORD
 96 1
Ni 0.9322311437132581 8.313536485416579 7.980783671609737 1.4870846737268648 2.0686373555717985 1.0014035436702753
Ni 4.76466350515752 3.706094576407256 8.02786635355941 -0.10534940937179275 0.9224832750242886 -0.14167369772412375
Ni 4.822650956348506 1.361289866542893 7.840368939325517 1.8792452687257892 -1.2447756842771658 -0.08193257310974922
Ni 6.143904528716504 6.446243725099559 7.743847020529501 0.48162058683397047 1.523457555928944 0.6955440831624408
Ni 2.8365341992268367 9.153544491036275 1.9149415368447955 -0.005290816085294114 0.6165083719845125 -0.5932432308089847
Ni 8.229413713818868 8.401281145022205 1.24097987147073 -0.15482617594568174 -0.5292204481001209 -1.9991615201681634
Ni 5.676867191017244 3.569999108510881 11.092674467098968 -0.006732433627827115 1.0253029759956922 0.7376204435072007
Ni 1.4364091273342972 6.606565806354789 6.304305751483476 0.9282687713578143 1.860421194040751 0.6140537397964327
Ni 6.874082737571773 5.4315750584503695 11.664351780545658 -1.6216965795082006 1.728508432358133 3.117498835613721
Ni 0.513848145279189 1.0594441407624595 3.930329480391354 -0.27124932663313284 0.29843051503361506 -0.5140026027091018
Ni 7.678849493551476 5.275098323589147 8.80021767740658 1.6033425024810453 -0.8454213997432796 1.05322695609947
Ni 0.23791893690243351 0.949791248553688 1.6662174558981844 0.673170343452931 0.6166983765081314 -0.7598797691260333
Ni 1.5005882379732598 0.4923421377710102 13.387148899802447 0.34793042153595566 -0.4620735179399784 -0.14616644338815474
Ni 5.349537898456187 7.438166190197757 11.89454278159573 -2.43234303766414 -1.3973971392620448 -0.8173814628869277
Ni 7.374890223869251 7.57949430863513 9.988704380754374 -1.5331907240563079 0.29049840467073196 0.32418139874547397
Ni 1.3770809258267578 5.250247888902452 1.059078227655233 2.3444665882661297 -1.182714653280363 -1.7013768662486632
Ni 2.5184504973903534 8.99697464851418 4.366238133831331 0.9050010590791252 -1.1224186846037831 0.33604935382765355
Ni 2.7648971649520395 2.0266837649635314 7.681910873440942 -1.1135278098720565 1.4135143565388817 -0.5972353826875134
Ni 8.522982168547795 5.693002748646335 13.676714656190493 -0.6249896699826462 0.17954039086291015 -0.36346168440233534
Ni 2.147220942728221 2.9524066831818474 0.8243528835207039 -0.4065906543813255 -1.4230210104777363 0.6630116577523743
Ni 4.6158960846164865 6.031439785149404 6.284368608060988 -1.7732356000621785 -0.1882075796196049 -1.464139377784601
Ni 4.087938404408778 2.7892261967378524 13.084092774430678 1.2075216850217139 -0.739626675303952 0.08829939586804147
Ni 0.18723485063023612 7.152595683537721 10.455778030441374 1.1897952142762285 0.28882950160874127 0.3613058144015971
Ni 6.504007717904452 2.9710468368883904 4.171586326936044 -1.0032017732212786 2.288064298217001 0.9148581543788631
P 4.0546617264131815 6.97515110344816 3.9002408087040092 -1.2331599544151084 1.7751415588356396 0.2843750653818135
P 6.567386102659917 3.2122608539090787 9.225551162724734 -0.6306700081968751 0.31326372339170566 -1.1085550392478132
P 3.2952942658745896 6.474436724811553 11.696947841540283 0.12306559570463323 1.0163280261905916 -0.7588986361596866
P 6.443822925916891 6.621733044310812 13.633924237407008 0.027882328232564885 0.2566583161928354 0.3272960331150557
P 0.9414674236717451 5.423707461106699 4.725819920118395 -0.9939794832920622 -1.2323114903718841 -1.8730309123849613
P 0.5165808551257776 6.2015009277318285 8.299661581793456 0.48847874740638453 -1.2371917012823208 0.8998843066778501
P 7.453109969767687 5.008456604384358 2.2111300411506556 -0.2877799772983044 -0.5420708217002277 -0.4652922819875922
P 8.44449241043283 0.30012975159056526 5.592008868898645 0.700764965241748 -1.114416640234913 -0.5898884554041389
Ni 5.396696928687777 6.4774441022577145 2.036483346270293 1.4327485221781453 -0.41153848530490417 0.0707816986992523
Ni 8.790433924402167 2.8785350650461257 5.302865821290958 -0.4615215020912503 0.10714763892279612 -0.5984777397350467
Ni 4.996883322137988 5.220369640528677 4.165236384464584 4.150833166554323 1.9675366941740307 1.1012788173013743
Ni 8.526147829017438 1.3554613269723153 12.737674549237676 1.3758420387990886 -3.203403763107657 1.0888557610466731
Ni 3.8951031279771007 2.5452375714231836 10.472975946481013 -0.9298690259653987 -1.402916012197745 -1.0307102630541927
Ni 2.372597346634609 0.42981475703591426 9.220304546034605 1.1060178746482563 -0.26640048318126375 0.09775359930240585
Ni 0.663086690584234 3.6745776332021363 2.8073766041482098 -0.07813685351274284 0.13805512713492998 1.0177873843449374
Ni 3.00676293559883 8.784530898702894 11.571904252989397 0.16862374395040636 -0.8509726685788118 -0.35070747006046055
Ni 1.0162142538196621 7.492503821082566 0.12288535297187811 -0.04015626050391149 -0.005939505412886545 3.033901730317355e-05
Ni 4.181101929877146 3.5060062131936616 3.539868538376143 -1.9511577385953751 -5.15593575634274 -0.6643044084218688
Ni 7.063268193697274 1.5763126985603313 6.405214903259772 -1.4652539510050184 0.9918256701738531 2.6846749585674794
Ni 4.392474941588408 1.4139050057015723 5.005955732613341 -0.38573669375045183 0.6084909009966746 0.5100544166946313
Ni 3.063688959455876 5.391808776492005 2.724332019263394 -1.4029298961548162 1.3461224002474688 0.5339973006634738
Ni 5.5117221329288535 1.2830421883461947 11.988761216861775 -1.7165144932210503 0.021092301893924963 -0.3873911986347393
Ni 1.1946457751144652 0.8090171206985023 6.130094800455993 0.27051707645279865 -0.24309137614167808 0.7633394455398596
Ni 0.6424856895397296 0.4266984436265336 10.889083393683375 -0.5333267569590104 -0.8241984858087613 -0.4057915555187979
Ni 6.642840551030459 8.940514162961495 8.109792715437157 0.49043587113275533 0.6339381374251857 0.753445069244283
Ni 8.400461797606534 7.442570182556995 7.245280635629208 -2.275766711796571 0.023970394772668394 -1.0867407715861994
Ni 6.7906768949627745 4.188401570489499 6.410066743467803 -2.070016238197196 -0.8838401087307941 0.45047912823415964
Ni 2.4434336550259084 4.698138081464587 7.194846077888148 0.19924172594657943 -1.4457315647013746 -0.04871417737625159
Ni 4.904101538079194 8.812537683093144 3.3259481010634273 -0.553412214854976 0.3515883300035171 -0.020526144977809812
Ni 3.419723343863723 4.853637185886655 13.04171202935503 -1.1532456972869687 1.0949413051191208 0.012627973176655672
Ni 5.685554135776588 5.79163169380788 10.003285040446904 -3.1552850532235595 -0.055999912404387425 -2.103253917204403
Ni 8.381830954666077 2.9541384856740636 8.152732106478034 -0.2234365780252281 -1.3188622789799351 -0.710146663566964
P 4.3968416908832975 3.6033409618690886 5.664738056035469 0.3052963889155129 0.5277441206649105 2.3087087139402303
P 5.35822484321553 8.87997556186262 10.182687674644601 0.590138623741732 0.5077301394368288 0.2159929772629893
P 8.518447825463335 0.47894860075459544 8.95804819765688 1.2748496208444107 -0.45254989472025936 -1.2560998510407333
P 2.707989762627168 1.800553189004082 3.5363658281741444 0.15387049690063176 -1.7385974411630187 -1.4737113377437523
P 2.9744545772763002 8.988995321977464 6.761690617980151 0.13626821043783627 0.47043783074427364 0.014352926287562379
P 6.923327379406891 6.932805739283645 5.673227612553764 -0.6785632323337282 -0.5043856484446281 -0.590432500833067
P 7.3686426998247505 2.828163820514458 12.085978649884503 -2.198763714777955 1.0041109152991092 0.6479611911771551
P 0.9901254872433712 4.820639830873674 12.571844218765268 1.2027512602162642 -1.0866530969683994 1.2886983538020451
Ni 2.447157961460782 7.524672517913788 9.741506334369452 -0.40281241828581593 -2.940207645796304 0.33499828685531985
Ni 7.720477928727277 5.078827374471299 4.413048010334651 0.5233781303867309 1.1925743196832623 -1.1255623724390873
Ni 7.173246962719097 0.9347078074924491 10.482160086149412 0.14919263180898823 0.16296088923767418 -0.44517648507432367
Ni 4.176604829857036 8.23284938650504 8.44615438217939 1.156169298691667 -0.20813671444336412 -0.9002925978598624
Ni 8.820814954144652 5.067430996780585 6.544144568353086 1.6829975924105274 0.3125479282716037 0.26163134392739457
Ni 0.8108587902305474 4.114390290862469 9.135665957995663 0.9367456984805738 0.3774502853719435 -0.16666944843751294
Ni 6.7870829392531205 8.857285224908152 12.60156511519217 2.1237906037051744 -0.24912292704773867 1.1615457325122318
Ni 6.649730517934976 1.5689665041175425 0.45872282358340455 0.05018973348051356 0.83948009455818 0.19865628575675462
Ni 0.13592414980037124 7.776621848233 4.552863129282857 -0.271243670206178 0.16295780391388065 -0.4029011213448804
Ni 8.776346735312258 5.063185287444829 11.235924327656736 3.0075448375903817 -0.03870101611462367 -2.0216918400601958
Ni 8.977217202877176 2.8290297217605658 10.842737193331196 -0.7795127128656123 -0.4500597813085539 -3.818435036326011
Ni 2.9740821466328127 4.716154413843289 10.19800481593463 0.6550756907347492 1.1983289627788525 -0.19304613865882883
Ni 5.329761831287008 8.693415741773705 6.236591342961209 -0.5439019613716956 -0.5521783424478748 -1.2472555132762262
Ni 6.647905607781888 4.048619039222598 -0.0009469049110666608 -0.5151634557864224 0.7997133561832034 1.5352134109132916
Ni 3.5433889390337074 6.932433308640158 0.8441755045203196 -1.1097773416906889 0.4457285009230517 -1.25643615133423
Ni 9.260692787167594 6.318537257447737 2.1640073229068064 -1.6682921678795526 1.0921686274699898 3.0958437192377906
Ni 1.9450469679110978 3.20964452863858 4.928034862306303 0.7875985751975404 1.2154787350852616 0.4468870400075271
Ni 6.64422785517745 0.8266833682723262 4.405552843634467 0.6321980148056274 -2.4361868368902626 -1.9813684578508006
Ni 7.214558831847935 7.931236429876785 3.276507933140478 0.13612422866080426 -1.9531133196598491 2.0389868796952175
Ni 4.655559948147893 1.847805326896543 1.8007179895638252 -0.5715590609673319 -0.34446894534991646 0.4169905095584109
Ni 9.245711764533315 3.175073654156864 0.571663347297561 -1.9490252656334048 0.7869493716493157 -0.14453096466726076
Ni 1.1771508456366457 2.4751461243188584 12.256577954746767 3.186493360505564 1.4544874565171337 1.389762762645239
Ni 7.8944868361306675 2.288036969030799 2.5350087637998024 -0.10751119290980195 0.18302629252898156 -0.11080091940466726
Ni 5.121684830770609 8.953884423062691 0.7889682480829681 -0.6217811903476776 -0.8634736292593 -0.6155771184194947
P 3.8314826633033694 5.932820150753946 8.280773761708994 0.23548553876996217 0.4655540202894111 1.5541187324582268
P 0.9671744488384614 2.846506029706211 6.836490519494765 -0.538808348898872 1.0151262925730067 1.8495677962660144
P 8.8016720190694 8.37365610204153 12.270572967252415 1.5280143220616909 -0.24401620194879264 0.10151615166863162
P 0.9304574427736494 8.281749529994931 2.4383229755206526 -0.4177772671257644 0.15163106604715176 0.338755697015223
P 3.6298114698549537 0.7226262464819525 13.08542793828758 0.3443036234166457 0.2252471488714056 2.0076556736821036
P 3.8444711819949915 3.9107731473018323 1.5118887147732756 1.4405261092410353 0.3669463005168261 -2.4101904128265006
P 1.8617063006647094 2.2314647542850663 10.205513948783942 -0.9146712351790376 1.2998754534647872 -0.766103638548558
P 6.669897637279817 0.32357519167470455 2.1834258566582383 0.06184120167651285 1.3662968183128148 0.5968067797905271
