# total energy = -340860.2851748183 ev
CRYSTAL
PRIMVEC
9.32514025842423 0.00000000000000 0.00000000000000

0.00000000000000 9.32514025842423 0.00000000000000

0.00000000000000 0.00000000000000 13.64828536782522

PRIMCOORD
 96 1
Ni 2.7602321526575864 0.06356761522247113 10.995631742460066 -0.7661774292092869 0.45721284741356744 5.382099246380827
Ni 3.3985286692581798 2.3280958340000732 10.916703756419256 0.504307744018841 0.30794873893669544 0.8909402101106849
Ni 3.9895187499909768 8.538639159044928 5.212484767345816 1.3523598965167483 -1.921978545928258 -0.3354747122711061
Ni 6.791257101356933 3.16635133035883 7.078423859075288 -1.8237279523847751 -1.3173571551893182 0.2376491220801843
Ni 3.923851113211749 7.407863342020509 0.6411611996478216 0.3291796232910137 -1.5317660757946394 -0.3895750936599355
Ni 9.081688694381247 3.08815070524798 7.598177329344597 0.2926905272260443 -0.7286809749257258 -1.5423124838519178
Ni 1.9001371781197676 8.47009937910637 1.640251117844985 2.7289673527269516 2.2063980913947616 -0.9612915061407379
Ni 6.1355505481379335 8.515027904241606 0.43455152995058605 1.3441719613893173 0.12240585063344726 0.19191562459881142
Ni 8.271501869806851 6.5897594734777005 4.563262916571615 3.288898599647368 -3.2388430777518735 -2.547012695995594
Ni 0.3455272146935203 7.495901989966077 2.627294820025192 0.14385296476362966 -2.49475553846309 1.2650550033514922
Ni 5.805076907152551 9.246090914832509 6.538019865993197 0.4188990394350334 -0.22606913055206876 0.3917181081448673
Ni 1.203502584880314 2.942687844396066 11.880477503924814 0.608501442519636 -1.7678889910382847 -1.1133375482381211
Ni 1.5729926121599722 8.66615112515103 4.762132719962864 -0.5413876795902741 -0.1896736226421701 -0.07112879762602589
Ni 1.1295075979670544 6.317036425303133 0.09914395732364024 0.45303506188679393 1.1942357665460852 -0.04377380265184074
Ni 0.9578224430760621 1.2902823389086433 13.46209493818889 0.6327148065410458 -0.029147310987917542 0.6328675300688261
Ni 9.243638402978926 8.390938264562369 0.23762881581800008 -1.6401064494739561 0.5615870373562845 0.30168296053264176
Ni 5.798661210744696 1.8595541682840389 9.495521627996121 -1.1743020037366356 -1.5240774489011302 0.3036100023520255
Ni 4.1319975660020285 9.477699420184068 13.577682847613708 -2.941274910718554 -0.8104029746865655 -2.1010800494815363
Ni 3.4942978583696074 2.5012170604707302 13.602686345838096 -1.6647545870399396 -0.21360545086741922 -0.9295023866545992
Ni 4.426569417495785 1.712161003425692 7.5698578112908 0.02211380117990385 -1.0249841592036928 -1.0230396338828123
Ni 8.455524185086784 9.235264427144255 10.890717388425408 -1.0703353336449823 -0.6899125959082762 0.4309978795810965
Ni 3.009036216404616 6.414885120663036 2.5007890365388694 -1.3286342707650343 0.2934983678393204 1.3772168076594282
Ni 8.67554154125962 3.191547858983862 3.3187166599332643 -1.0351086492322046 0.8583648472778249 -0.5850853775885407
Ni 7.775227237351052 6.957794778897439 9.565673724662755 -0.625586937247013 3.1818638321533523 0.6806440261221569
P 5.064446302790633 0.0774853868630559 10.766476681476103 0.9908769331073387 1.0452776193454063 1.7770706575375523
P 6.7139330394180865 2.9678004467599486 4.249557742563853 -1.1338521232517051 -0.3451549156733475 0.6842497411955442
P 7.939349703598484 0.7413682229460191 6.979377815722988 -0.9035026201567278 0.7520721001561563 0.5655233962962131
P 0.36148066442398097 1.7303916523753358 4.641604351298393 1.0359437435389902 -0.1151874785081371 0.40141682348986996
P 7.090696675997346 7.248655224620372 11.533960891863742 0.3546104046592925 2.71335715699352 0.987990355588163
P 8.087451579106535 4.794063864788117 6.75719795955454 1.102311629441263 0.34843050110082574 -0.22681192225536426
P 0.7830087036722282 6.441032813581093 8.85604454865536 1.2843045956097237 1.066477650461789 -0.4876451957614957
P 3.2583624879987965 9.222274506946375 3.397440425405278 -0.6831729631915976 0.7089012211956371 -1.710485256307835
Ni 7.867415572653445 2.813096372041489 1.0533613012263354 -0.7626118233452157 0.13294557382250652 0.5704989951339337
Ni 4.249550282451751 3.6787957557960524 5.948768923894216 1.1338127853733377 1.2513813625191417 0.9688400079119573
Ni 0.4164271875983981 3.9217529566830174 5.208062785897263 0.3310585854812814 1.1401564682031784 1.3165562565545776
Ni 9.04922788159674 8.255462628787216 7.886989041781477 -0.028146380527228947 -0.30452917173218524 0.5751640047097707
Ni 4.646577448528492 7.0315846127278885 10.817276314835734 1.5425014599342723 0.9366472252294966 -1.8243604437624514
Ni 2.4948106892030038 6.336647194991675 11.256314169701753 -1.1826161800292858 0.506578799441205 1.0499835094615078
Ni 2.2330353555383504 8.103770574330001 7.298365681613088 -1.937539376480992 -2.9916664757972287 1.6658725026944665
Ni 8.806401232671563 0.08559359620408669 3.5139421985626096 -0.7015170129164241 -0.17325558629546292 0.2768419902295619
Ni 7.916596361686908 2.9692178680593586 10.844982238669129 1.8315232800594778 -0.8159640137141108 -0.7158822804991606
Ni 8.551666379803319 5.1589565979848215 9.021434301446146 -0.2752142248181518 -4.814239231531637 -1.2105442738981218
Ni 3.5373613554793026 3.506532442217143 8.640647799415797 -0.2224629012580491 0.1971398491122282 -0.7885509118084807
Ni 7.589283943204815 6.41122966573298 13.501348183042408 0.0555841650232075 -0.4846025522804299 -0.2805361512516975
Ni 6.580527584751282 4.48241768172055 2.5594628182223262 -0.843645024569147 -0.14547661640998172 0.5343102039182023
Ni 0.3765650110945403 4.064175821853302 0.24736705965335193 -0.9638142725625916 -0.6099515447026012 1.1628523671387974
Ni 8.043949800410838 1.3200948118968843 9.133773332050474 1.0286423247815704 0.25562216161883716 -1.750634574833211
Ni 4.993118305953893 7.860701471761504 2.940468461045675 0.7390232373919983 0.9121914061799774 -0.5842315142286777
Ni 7.136660291686756 5.231086556872541 11.161321764762963 -0.9572435613236095 -1.4933249982096217 0.4624118751160036
Ni 2.2043605496456884 1.344470728190679 9.184381800037487 0.08027421157071982 0.14006855802053297 -2.2721625393850804
Ni 1.4632170625767469 8.284314612342303 9.611914297013957 -1.0515490541764148 -0.3267378466187405 -0.08825208756987382
Ni 0.6312038150194688 1.5802289208990634 2.23928786199397 1.598977026423498 0.320918411723486 -0.9428983483455311
Ni 1.2399732079197292 4.972509746271688 2.235861805511055 -1.9009934590361584 1.2338040157570107 0.6566396927877595
Ni 6.611710853338294 8.713317683916912 8.684976718040822 -0.8359615398819602 0.7192298568151548 0.2845856387307228
Ni 7.481140293143936 7.428229448059394 2.140774284142962 -1.337425386694103 0.3134904946905311 0.17572667354377478
Ni 2.8649534762916007 4.4143814593488875 4.199536758404885 -0.8408947155175196 0.6189717459233404 -0.2847514748846257
P 3.0145566993602113 0.35615787443909264 6.5888465422591995 1.147590041663088 4.511822735267081 -0.3296311090061355
P 4.940039608347053 6.28678567072889 12.678874553835763 -0.07058269531456876 -0.36153052881789355 1.6976173992062313
P 5.190615448718345 7.014594207415228 8.420377731945502 0.28599897413848163 3.088074102594701 0.3593875143329617
P 2.734382864223616 4.513181319001816 10.311456468945225 -2.0062356534061254 -1.0282743999191906 1.3777359133876916
P 6.45702542890009 3.798651781857316 9.49069027289596 1.1372750328903252 1.261415863937008 -1.6227800423803664
P 0.576891401373735 1.394490779835635 10.495353827347447 -0.39061973287436597 0.49758610902429146 0.2561818907770491
P 4.7708256155899 5.567388410437733 1.7884984655390286 0.7198453789119668 0.13536266790443138 0.30431011374284367
P 1.8902338793041553 8.717635223796036 12.943719723630455 0.44163581891091674 -0.9206490500290273 0.3026905758615497
Ni 2.4480824120231244 4.466546293223213 13.077746232629764 1.5909202175572923 1.4098685322561784 -0.7149523124857236
Ni 7.905051838208822 1.221751884110213 12.918456986510515 0.26352676117789453 -0.3788818756121475 -0.27933827428885444
Ni 0.855744796668249 0.9526749657255745 7.029289695742462 -0.2975383422366489 -0.14885041797822107 -0.7629177846214087
Ni 0.9237940742360903 3.4811121102290468 9.383195652587968 1.6199495149101069 0.00011081454625142207 1.6997087345176212
Ni 0.13284874380118097 4.8517305313377825 11.819879013319 0.007142267471736086 2.3019225442563322 -1.4658429907392692
Ni 3.2343968778706205 6.0316778122555395 8.787407787259474 -1.1366145164881907 1.0559291855219815 -0.3046379293959076
Ni 3.811268696450087 8.851180555564754 9.286088305868219 1.596774105234908 -1.5698027188523869 -5.354422092180534
Ni 8.310350403578829 8.390108327091005 5.6531470616220805 0.3143232750044716 2.597259765076604 0.9788575400489594
Ni 2.768326374288425 6.089950612913505 6.226825019707811 2.644686076879368 -1.3497900789070432 -1.027137715211586
Ni 2.3445733566057103 2.434616909678733 5.70114822042939 -0.44830371784939566 -1.4751269871443562 -0.671574716831037
Ni 7.012253597243177 6.656937782957615 6.824483508145923 -0.15127753936247496 1.2960275404736068 2.0146459889570076
Ni 5.318640297531469 5.108032007747479 7.986062128040147 0.8839545228214712 -2.8240493187344655 -0.9958761860941429
Ni 0.1776299317223978 7.395171826306715 11.676558137154418 0.47379543436259697 -0.6338787449421599 0.18851302667516565
Ni 5.23877979747789 4.2011807806093975 13.221816850060613 0.466333578767913 1.02311882386018 0.15305185765407833
Ni 4.781502901036112 4.205638197590436 10.658628638357273 0.7172580778007647 1.1816000800599458 1.5292790477067277
Ni 4.616690374419231 6.046057178332444 4.297981330218948 0.4590887242800416 -0.4257335458583636 0.6936471232500441
Ni 0.6548551679253416 6.159767937049557 6.44328763246397 -2.69940789390228 0.3684799635525331 0.46193082171452704
Ni 4.796861406826425 1.6762125882334278 4.815961158835971 -0.4439994340470869 0.19613660465869445 1.5617993889319362
Ni 6.686992709589176 0.6960750848317917 4.521075982633922 2.0058559014692032 -1.2735753821176776 0.7390399495625466
Ni 5.985723521706258 2.30140728295461 12.00303875313712 -1.4849853679956748 -0.70813528956389 0.6158959352114942
Ni 3.3780972872384 2.2839972463362037 3.328748645682638 -2.5309319883836476 -1.385744385514465 -0.6869596839275395
Ni 4.561000637576636 3.393968675735737 1.9095313242844072 0.6427421088700608 0.4538914963498183 -0.8474186326789662
Ni 6.304354234729468 1.5362608851969817 2.5247966097976198 -0.7468915843964814 0.3778539485682654 -1.6379166409114887
Ni 6.636254622154387 5.059849008707678 5.1955605705280625 -1.0595850371070137 -2.2230218159943713 -0.48948764828687313
P 8.370376330580802 5.4767014226959 2.36902853659059 1.2447584578859854 0.5829976418215767 -0.6956872936085245
P 2.0719808603929306 4.037981503234607 7.100479680505312 -0.09406200938343154 0.7467134069474044 -0.4313534631483023
P 2.0085792326647325 3.307478001051366 1.4532559478923432 2.195426937095238 -3.1634441919955845 -0.35389872330424854
P 8.05094365550661 0.6453696353874503 1.403111871883689 0.11248010687930306 -1.197282266681893 0.11008075340919106
P 7.82058471893216 3.772485438659004 12.79929381836074 -1.1710004501672284 0.1203901057549991 0.09018864247095434
P 5.271884044931207 1.6329998888816892 0.5303384368282561 2.906846039616723 1.4760746957696063 0.8597434727929065
P 6.478771655677875 7.3976709638609375 4.801179879219561 -4.153673978437227 1.6158033539522174 -0.5718272270270539
P 1.2173970436705794 6.00990361005737 4.098238693711747 0.9519244631035414 0.60138771429299 1.856784625729428
