# total energy = -340857.4597911167 ev
CRYSTAL
PRIMVEC
9.35505615595241 0.00000000000000 0.00000000000000

0.00000000000000 9.35505615595241 0.00000000000000

0.00000000000000 0.00000000000000 13.69207030780726

PRIMCOORD
 96 1
Ni 0.6654878194691076 5.726501137159939 12.71583942662763 -0.40522822681616016 0.4750141372610464 0.10867667397281283
Ni 5.4346046766399105 0.39889304368475237 4.260862272138535 -0.04219437397986281 -0.546396188548459 -0.19726326206396994
Ni 7.4970016349542625 7.626269800182958 7.175740588833109 -0.37749270857410466 -0.4589383147451063 0.805177464621568
Ni 4.1210331840753724 6.064387053481405 -0.09451132528990737 -0.3946885036271009 1.917361101760904 -0.2354557139732913
Ni 8.643585376083557 2.2250346086617876 5.167688086925618 1.1045798566501492 -0.5267511606240218 1.9471517027597753
Ni 8.031259533929914 5.596447147218607 3.3155076587920087 -0.6693111176078409 0.4975087188191367 -0.46957188319955256
Ni 7.841969328745559 1.5461381872805153 7.947712334392507 -0.4634125484663761 0.5199441650045173 0.3980468785763725
Ni 8.010435179045048 4.651558415666001 0.7978712183800403 2.5153081658034617 0.6959778282657497 1.0479022014524468
Ni 5.700634407035656 4.953258974981779 10.679211905854093 -1.9352220412017251 -3.881755907871844 1.6012570807069262
Ni 3.8927043297739705 7.7695705495658745 3.961320859771286 -1.0948181492776952 0.09167011211248728 -0.2934487455483075
Ni 2.376165540002761 8.729782863014893 7.293299965843521 -0.7383534650184832 -0.18791704496237957 -1.174356511123655
Ni 1.0236489488822043 1.8995815619009626 7.205547668587897 -0.5043301126163443 1.3874145741280364 -2.5480131122356506
Ni 2.8096227094705832 5.956747777962417 5.841626328572398 -0.4395015461767334 -0.3810860823523179 -0.10318068385524812
Ni 0.9191567142362038 0.6623267460119665 8.852484714365023 -0.6097247734037757 1.2574383673464988 2.2135161904967813
Ni 9.470029742318424 3.323963694003343 3.2092566735986785 -0.1698689292114171 1.4373536250503245 -0.5781302864269463
Ni 8.5081335187709 1.6371067528242869 11.6678757514286 1.9701756744587746 -4.47629343201222 -0.3511766963873952
Ni 8.834737237432371 9.017881170757178 2.220894996336292 -0.2021596709243228 -0.05124774243138271 -1.7885483191598486
Ni 1.9169071258033756 1.2370284235313076 5.2040408994355465 0.16030468256174973 -0.8534707524103172 -0.7206992422718297
Ni 5.168097838382922 4.503140450594843 1.0754282489056741 0.6696877842209693 -1.1207875767582631 2.8862255351528936
Ni -0.10440803914107519 6.980116075161538 10.60468672242224 2.206018596568156 1.618600714191696 -1.3011862018564107
Ni 7.694963977145927 2.4354672406385043 13.965364334101078 -1.2674810962944818 -2.2810485290208007 -1.5195381662698797
Ni -0.3389823288967159 9.338048610819913 6.623867119215856 2.1577510198110192 0.2880936518839812 0.3767663719310414
Ni 0.5363384634529181 7.055349436340375 6.67685602799342 -0.45847371640386203 -0.6855116386271033 -0.34152143268581825
Ni 2.421238200306123 3.269751143887531 1.8849876743805714 0.27369573129109637 -0.9848083583157555 1.2117645194584679
P 7.730400929663389 5.171989541721692 9.563253811888584 1.7466925594663272 -1.3070331475554908 -0.03641119163918245
P 3.734201614223979 4.751872682256485 9.608780192412933 -0.8728496711575613 -0.3057193353855444 0.5228317709649576
P 6.55860531233701 4.659594408858319 13.12728602009675 -2.1924963937120046 -1.6676758744517923 -2.128433758904141
P 0.7192241972292863 1.3724989909561693 2.9569536170225934 0.9405681575504576 -1.130332025913589 0.775917025094554
P 3.8725628939846097 1.010926072582376 11.568348245056363 0.6343181464724238 -0.6774262905158075 -1.017426401461093
P 6.9273254935733535 2.1102106500558384 9.968442808330531 -0.6883015426674145 -0.8982848234012142 0.825069575559805
P 4.210121383342478 2.0948215827667083 1.5936478396986604 0.437423323491466 2.2239790377013184 -3.7495708663644454
P 1.4528495678232458 3.697698185310795 6.1525453601718905 0.28792730150944607 0.29224289816566446 0.42118732124857783
Ni 8.216442869485133 7.762891039508465 12.567690887172235 1.0201980506689592 3.657673211622184 1.497641109086472
Ni 7.726668262278366 5.920309834441954 11.757189407547784 -1.4401851809618487 -3.368519236794489 0.725986458812698
Ni 0.9589306707629313 9.541689472065984 13.700696699873903 -0.6883550216131694 -1.421798708034861 -0.8406116370594621
Ni 5.001278477957528 2.8603364686039425 5.937374392279098 -0.5041151683920608 -0.012273418050714347 -0.9788469985259982
Ni 2.6422794659034317 2.8162273790791703 8.50833465247711 0.6786624769157538 1.1013811472071935 0.061780780752222625
Ni 4.3859122425704715 2.623326122239129 10.181300270849098 1.294518045807616 0.05115209739378287 2.1758204757182207
Ni 0.5421414047534941 2.044603641606798 0.8270636709488741 -0.402366588997649 2.3574966819772105 1.139957979039127
Ni 6.578718682958062 0.42408433875841217 11.754272501054926 -0.28431233046467813 0.21201650911374456 0.4040951416529815
Ni 6.474475292804396 6.708912998740935 9.989487942539423 0.901649368998073 4.838821805967008 -2.1472904865993274
Ni 3.5585978561180416 0.3886071594997075 8.94327646934845 1.9631635048069993 1.4583646800843528 1.1404611439277907
Ni 8.341763201038441 8.24983106471608 4.594251212991377 3.045553712733987 0.0185268551595939 0.43801030634318766
Ni 9.112039810432009 6.740448892863524 1.1816942021887682 -0.020604049403596773 0.401346889483883 0.04349200974536381
Ni 7.879838595849753 8.717930006932626 9.859235625408711 -0.8526240881393057 1.3910123187816237 -0.5647682632977435
Ni 4.392591752627881 3.773661240865652 12.783300607196251 0.33823042063937236 0.1698398757456946 -1.468402266826013
Ni 5.119395416311668 2.486405521118331 3.468091430345749 2.790207430484356 3.292635698092297 0.6722578589409907
Ni 5.174964449562388 2.1745640809871016 8.207245913830457 2.4221270163630866 0.2987241350146339 -0.881916666455836
Ni 2.4614181662677126 3.637844536364986 11.019843531141735 -0.3632516252740583 0.14036911998008728 1.4042339596782203
Ni 2.4966867277753244 6.148713529192178 11.090727726738374 -0.8565707314918797 -0.2264277994430681 -0.22656072547650657
Ni 2.1401748947531543 8.237313999650514 9.733131340153989 -0.15339124327136808 -2.057628920276437 1.790224678421007
Ni 1.2972094994407157 8.469824564029874 3.4092705795936906 1.2734797370800777 0.6260384229621347 0.22047672406595578
Ni 5.432883346316993 8.495251606517325 0.22180089615285736 0.2762339243319178 -0.18700661733296828 -0.0597174704652907
Ni 6.887304563565511 0.21424855936105494 5.924093019129932 -0.21072170156172093 1.1605874823640205 0.8417280100520923
Ni 5.923602814190145 0.7312585413999474 2.0897661104487466 -0.7932375186508726 0.012198856059037056 -3.7868446631142394
Ni 3.492195667900262 5.672354072436847 2.7578022472002615 -2.4332318680269966 -0.46947212439689473 -0.9519324335233412
P 0.7984502963528046 5.635205144652569 2.723407447932652 1.1020182665705602 -0.2554720091942181 -1.3456444321697858
P 7.605800937429999 -0.07497983915845058 14.049706713407227 -0.6423523296308099 0.7249166227872871 -0.8370154350677714
P 0.8690108070082855 2.713237566443282 9.928845662364147 -0.8428538961264194 -0.7624670702372353 -0.7295890885622918
P 3.777730690270376 8.457457179861953 1.7278844752235607 1.9289038122931816 0.12396419625950264 0.9717224716660747
P 3.6463576374185473 3.8299786786045966 4.2368609402011534 -0.48508694811601616 0.857495300188678 -0.02508136844866003
P 3.6551046148746793 1.3845576582726975 7.013749372862377 -1.1993167806134184 -0.7362927258347126 -1.42511543111292
P 4.94940469186742 6.17972554017301 5.918794315353298 -1.0734836494659772 -0.4666788779224737 0.6748479882656699
P 4.4017035772720225 6.786326087991728 11.64310636938518 0.8918449813131416 -0.544546794044546 0.38262000249834105
Ni 4.983550646642693 8.412506135287927 10.578356917020868 -0.21632413535016293 3.2822615539468245 0.6713926827272179
Ni 2.1654709664551652 5.087812746908565 0.6732609355849366 -0.746394847265721 0.46565583597459803 0.10983701282950115
Ni 7.901748137242546 3.514151984573568 11.696560224451051 -1.668074909662424 4.056098042363266 -0.3061389394214663
Ni 1.4248685950197266 0.9378069540827755 11.1986345568619 1.051555481934318 -0.28962628647842376 0.7494297774373028
Ni 5.600123684267014 6.846703620079295 2.4140348071069555 0.24772758936210884 2.5183130140680565 -1.7000550621134465
Ni 4.5202040729263775 4.847163283719755 7.674925446973698 0.11833270900533815 -0.31983237774815887 -1.3989027772732938
Ni 3.441276097532641 1.2025082665119209 3.159924656251705 -3.686676026612438 -3.7801050303975616 1.6378441358023403
Ni 0.49441939256181516 5.048044403415499 4.810092938406743 0.2048701278769504 0.7457572136817221 1.0061886237637445
Ni 3.19164578048513 8.809422455618154 13.146057875672659 0.16803830376058157 -0.045238817233141444 -1.224705653000168
Ni 0.3260021885540604 4.772884138263406 10.581437536995525 -0.018031917801046366 -1.5982005532687893 -1.085727756940653
Ni 1.8567260498939677 5.895294414423026 8.358064386297597 0.48654682049099435 -0.16311592675829972 0.7571266318609284
Ni 4.187454082405357 6.864412741281924 9.129776996802946 -0.6145234803439997 -0.2255353695357858 -0.9135990851607814
Ni 7.146392842332968 4.9493298514185975 7.4718449535881835 -0.9902431561780817 1.6560166929463094 -0.19268695554719717
Ni 5.013599086844934 1.4242698714291464 13.455032926613987 1.0577181591016043 0.21341261813032278 -0.474901265832266
Ni 5.385649668053881 5.285934125053977 3.8064226473377096 0.18504409428995872 -2.7984323894973095 2.276723162172569
Ni 7.606324820571756 1.2868815175032078 3.356501514634543 1.5709702567979267 -0.02981116982416156 2.0508571487702416
Ni 1.980540217414722 7.74612677897222 1.2019450921345316 -1.4287352872536943 -1.8880243004700001 -0.1849350795159202
Ni 7.273172562638315 3.1686323424722054 2.3364009385321367 -1.234502327375616 1.1102452824660427 -0.30738412468247706
Ni 6.616372783771891 6.542009442810616 0.3483841602800448 0.897620707454654 0.2891956266989084 0.03765611978987708
Ni 2.777862294001527 2.070881994199605 13.065315321954873 -1.619435551388166 0.4076198669767883 1.1926529954399976
Ni -0.14861161473248555 3.934484010329141 7.79584048260819 0.7320761166502037 -0.1564120323755629 0.5781773376147978
Ni 4.596681656566889 8.730830629298408 5.949601450605477 -0.9384194866385708 -0.821730740994559 2.978707344533399
Ni 6.44816887504328 7.123912642517904 4.866093239743802 -1.2942843325302549 0.8149322300154868 -0.11982086351509041
Ni 7.017919856873013 3.7744002902977742 4.488740212735781 -0.02191325513332355 0.14521796343195634 1.325054523833576
P 8.07265565718487 5.993176366426778 5.654729146739144 0.6660327039668851 -0.06578347415371251 0.3605475960793339
P 0.998399652460707 3.516182031747879 12.98776377787376 0.39245241520773055 0.7682263413185156 -0.09961816331497036
P 0.29640279104475425 8.112152704050954 8.725107205974705 -1.134765379094594 -2.551228790959471 -1.7697417279763072
P 6.910411552139464 8.508273844612443 3.1281586277489875 -0.8532956602850338 -0.9669577032875799 -0.36696918333496154
P 5.99098728329872 8.55745337454494 8.534924528438141 -0.4538205339025668 -0.2671422464432948 0.26127216081576293
P 1.198831729463515 7.97497951641538 12.336336607727183 -0.18556371423885462 -1.3345187545702695 -1.103505649749364
P 7.060850209328829 3.081499349930588 6.561061950069609 0.3345694268480174 -1.7024312756551068 0.21628248347895013
P 1.9499585390146204 7.985737830933618 5.310579084851232 0.7321758754528617 -0.1349176099472128 0.13536421056632816
