# total energy = -381174.4662637075 ev
CRYSTAL
PRIMVEC
9.19395038388825 0.00000000000000 0.00000000000000

0.00000000000000 9.19395038388825 0.00000000000000

0.00000000000000 0.00000000000000 13.45627572557463

PRIMCOORD
 96 1
Ni 9.335169293795673 8.253510244546375 11.532996884439184 -0.3695875947944151 -0.29099617024275687 0.44992145595847677
Ni 2.934865206879898 0.7854244568410162 2.1762696161713126 -0.21061191545673408 0.09891496660035867 0.7341710515060195
Ni 5.467458315902153 7.892905129078704 5.575863263532763 0.37025531028540104 2.0998263795800933 -0.04774410015349842
Ni 4.719548853532461 6.0287305888375045 3.0560947956702096 -0.16781950288155614 -1.187858659375148 -2.4267619440319366
Ni 2.35470856019587 6.149686197911307 2.0791428872736644 -0.4350262840141992 -1.411933128094691 1.1897530481843832
Ni 5.531990652485387 9.468481571963059 1.974412761545366 -1.8490391774560542 -0.5910631924385306 -0.39676441231952314
Ni 6.373531303879677 7.663902217037791 3.4952539411992567 0.5283048782643869 -0.09711802260093597 0.30161199808539024
Ni 8.076443957289431 4.060048416463292 13.530554496264452 -0.6014049406841707 -0.5282999931683804 0.5316568254557553
Ni 1.3366348706573064 9.414788902687366 0.3025471586282628 -0.7489651790960585 -2.0857164225412723 0.20197095195228443
Ni 3.923895207678408 8.053008578182625 3.445465942581337 -1.0168381330577907 0.6416015675077144 0.38464834578227947
Ni 5.161842216690975 0.7500397006353046 9.857838927948857 -0.0006075516770118569 0.47557180953672934 -0.07002039505319554
Ni 5.761848601896617 4.377147759497303 12.671021284292676 -0.5164135261434396 -0.09393422555631564 -0.3008841187804302
Ni 5.181673567312151 7.022412728446547 7.6585182397898715 0.10233221981202377 0.24125946513926189 0.10213038821386282
Ni 0.4509595806344156 3.0059160541680057 10.077646970376309 -0.0915541553599133 -0.6735099861805368 1.322535099845832
Ni 3.7740522070182663 9.268053457201058 6.700579420445061 1.0971869066201878 -1.1082223384987429 -0.630483860327998
Ni 8.225854842289307 6.579383849270557 7.5456735335987775 -0.9055186221454921 0.22197053500266287 0.8391587066630193
Ni 8.078990681499938 1.5621073058143393 12.224568578055338 0.7419697216148318 0.7314724216279338 -0.5948162317230594
Ni 6.816808419711563 0.6836842037237544 4.458790956832076 0.5134405595580448 -0.2800576689533822 0.28811884869496185
Ni 2.896452882867254 4.873667041044178 5.045040434325864 -0.3809801529020729 0.806828627071746 -0.7294047404656278
Ni 2.631492431522019 6.9076814236706285 7.792986197499716 -0.509806048129251 0.8359890506857861 1.4167714300235987
Ni 3.6774789539237682 2.71985548707145 5.712956094029972 -6.232600631750176 -0.3475149312650918 -0.10341105469849933
Ni 6.829293804108205 4.511489760089155 3.877130179892311 2.4577612206269284 -0.7463426538715469 0.09767518065598663
Ni 4.682111088242973 3.718695432753037 3.603671760360172 -0.793426494733227 -0.1252824008502939 -0.19691693446814473
Ni 1.1747110194101333 3.028597529356898 5.40982603895786 1.1502246510724576 -0.7832654950398253 0.23311189633146304
P 2.9233543812064107 8.898401494718442 9.484239083242443 -0.2244858452253489 0.05006580630813958 -1.094205969614993
Ni 2.4220174697450725 6.910485578487252 10.408994178063837 -1.3608144550420047 0.03602244084119603 -0.4711112026622144
P 3.869273949430654 0.38616613586497855 0.16182639537485735 0.6015725766102865 1.9751900969542304 1.4568315312692781
Ni 6.413782417936009 7.331789153297066 1.214811352682883 -0.7855735743477116 -0.7689796745447725 1.5725604841031822
P 8.464796414516353 3.7076351106402528 2.307347764435618 -0.0925741119839954 0.183960888528109 -0.018004406997220602
P 2.6181979795061547 4.72009129659535 7.2549507143464504 1.2875763243824598 -0.67255276447359 -0.374488117419826
P 1.329408425785612 6.885349318590037 4.237610257637011 0.37811440131850366 -0.5573339185068853 -0.6898758291330699
Ni 1.1499792933225286 1.2267395836962878 11.681607895770057 0.5902658933482158 0.2868680070069962 -0.222822598590313
Ni 2.152616340444331 7.226693108350074 12.73785854419567 -1.0567848486540574 -0.6258635879471673 -1.0513950450970537
Ni 3.0885604726815665 4.398468530053866 13.292809056960822 -0.6252897177215683 0.2855356613488179 0.37938555472144336
Ni 1.718036701519089 0.629091446721677 7.539577944603951 -0.3669023346527681 0.036574970910556365 0.3896334577016967
Ni 6.357147684590415 4.478970758166531 1.642849496027705 -0.9405735568670963 0.7119667474948383 -0.7254678673050666
Ni 7.825026194615959 0.2661087757275179 2.2924112729107398 0.6839921166587833 -1.0580349190110745 0.3970734589195097
Ni 1.643823135355838 3.9210542770609105 2.1808049918140693 0.20315674473026948 -1.478909337004924 -1.1734363133022305
Ni 4.885095121165699 3.290009115917815 10.086110920947407 0.6706761162761675 0.651252203223601 -0.5299789235327002
Ni 0.49124930928166527 4.759772385738139 3.960881550012173 -0.6342271294205142 0.750651565659546 0.019855858383662578
Ni 0.7229046759605995 8.096808557023277 8.960090142499112 0.3881936399313766 -0.1387711793653481 -0.3889685704241882
Ni 4.814246540782398 4.638550152108001 6.72936200099891 -0.9213687018038713 -0.7604114732597872 2.6548419343664476
Ni 5.090083435236047 7.577534248685761 12.770436387399695 0.022648590637451314 0.6274065069542549 0.04759986126615028
Ni 3.9408028821301206 5.38235911268027 9.051619594503773 -0.5181467067844624 -0.9990442994094794 0.16504245435705125
Ni 7.075710057862845 9.269248670729453 13.543337764648172 0.9535488860808417 -2.420579726480625 -0.06929585818234517
Ni 3.4165178709235553 7.7031511905203125 0.958426098706388 1.3584346419559183 0.5945856037694921 1.8901128075679128
Ni 5.601864674145534 2.70623924679794 5.584758410369104 6.700241873585918 -0.20862625248527294 -0.5654514054076971
Ni 2.629046840763914 4.016496674278541 10.895304497288155 -0.24750261783549637 1.6270606720335914 -0.5800444727305236
Ni 4.599926367240333 0.9577521821553763 4.3129647930223705 -0.3639239687507345 0.2260745298687074 -0.6041709334650821
Ni 7.407648436549419 6.464441083639615 12.868613065412289 0.9647822929028158 -0.8501234332046392 -0.9026860377927034
Ni 0.5880781541922361 5.688177478796253 0.302487397951843 0.3728418400656547 -0.5067042692754757 -0.1699316641285525
Ni 2.2635321558795964 2.275153308955705 0.3670942055318457 -0.15286930932962706 -0.1146352055490929 0.21318893215529092
Ni 6.399853583355071 2.258549034861202 2.6860612842535287 1.440905604067641 0.945331640377372 1.2444789789723534
Ni 1.2669723098521832 5.05557854006624 8.857822156639312 0.40514800839752807 2.0735142240481257 1.9849682593869171
Ni 0.697887937416223 7.703647663832108 6.129939431632141 0.7307674251411093 0.6270486093942039 1.1060561840853598
Ni 7.602247586872929 8.850096480270755 8.813012682064675 -0.9881867878696852 -0.30827989702386904 1.4950910889711089
P 0.8758285693389409 5.318562292114511 11.178948894267306 -0.11923953709032369 0.09754662549792233 0.5321497059317738
Ni 6.2826582999206115 5.170870675805483 8.812568614269125 -0.47123024473858205 1.159062561079062 0.7569656808030318
P 5.8984798960928595 2.201941883366264 11.73053534064753 0.7513879296049383 0.22285396604888072 -1.5466409360239428
Ni 3.1133013927193898 7.2490527952813215 5.715983661836904 0.14901291169801434 -0.1866510337657624 -2.462519304137204
P 5.807110418821998 0.35359288963606594 7.652691114141424 -0.033902052064083546 -0.07739046226502155 0.012621802529068585
P 4.557845657090532 5.632894256132771 0.7328396585666462 0.39109847228299743 0.9973381153516503 0.6432817834236146
P 0.36756217759796433 0.9932500239487747 5.801403733921412 -0.7467820554018106 -0.6460122949809003 -0.04176217153845066
Ni 7.380232076998029 2.120262829625639 10.0127873291653 -0.8487010989358158 -0.6382907579669266 -0.5853738553632369
Ni 7.601162700747152 4.336584051133544 10.903511936648158 -0.16972649009628188 0.44959595429825794 1.1285736484615854
Ni 0.6369550323435091 5.213144458909873 6.543154169039771 0.37104978116223836 -0.7362749852228997 -0.40816005575097447
Ni 2.677480570514658 1.898440392705327 10.002883605989997 -0.06079476268986949 -1.5110810366414622 -2.7633998233732084
Ni 3.385175694628892 9.190704754013318 11.668434803897073 -0.4880812548576498 -1.214609702216747 -1.4164788384838443
Ni 0.7634214951782446 3.437388137919415 12.495806658609725 0.3459195617535139 0.7769290112988362 -0.6271013170090103
Ni 6.354334335823572 2.1206030057837215 0.30319441272364106 0.39740590255826397 1.4274091122431027 0.4430185581910564
Ni 8.362568882037515 4.283893522431662 8.660822465913766 -0.6034425399394897 -0.5158345137115181 -1.8017966995293229
Ni 8.947773007391467 1.8637424245809329 1.0914368153066092 0.08665414695513463 1.1895350186363063 -0.4497882728147221
Ni 3.7161211266918732 2.286176855267615 11.889305666969777 1.1529250807227562 0.20211776194279382 2.7459893412062453
Ni 1.3035366498709207 8.247506595053734 2.4404568563031765 -0.7737578126597061 -0.2979633455892094 0.5785218654384101
Ni 8.480398548037048 1.9237145618558198 7.743198198881795 0.09399336092902523 -0.9579434156041114 -0.18500912728696525
Ni 7.784949765613777 8.860283377112788 6.540274623831355 -0.41679176328404344 0.3488004828457348 -1.108818063101213
Ni 1.315709439960136 2.9528485735071675 8.034230854256483 2.06731632276753 -0.086204975232858 -1.8951395713585426
Ni 4.079705082030318 1.9816548361324313 7.7707975180425315 0.29447204460649934 0.9732054839695045 2.190101925337899
Ni 4.0303059875066385 5.899307351612519 11.683572642931736 0.6878156041699316 -1.003272221447898 -0.5606789237197183
Ni 8.583968397247778 6.425348407310806 9.983345542380789 -0.7064280770647963 -0.1707310201013963 0.4457444417626517
Ni 4.68194559713904 7.582811576111145 9.948816742940412 0.8913068494214843 -0.23373873128218456 0.48113773366028095
Ni 2.278499906835217 0.5071658758998293 4.6460349469808335 0.5116063345627835 -0.5429272561632521 1.4049582394387545
Ni 8.375311697040273 6.510493580283783 2.3958358577080197 0.4672308937712018 -0.4515849597038287 0.12196876309602867
Ni 4.418189553272421 2.458057754601359 1.4114423660046687 -0.7047236927791799 0.8163375950034457 -0.07778049861458863
Ni 8.05056298742452 2.60378186556364 5.268710855240083 -0.2646277075515572 0.29581364623605827 -0.08993487458893544
Ni 6.7091932324047185 8.517891477027849 11.371373675364156 0.7194111195880256 0.22235234382211386 -1.491339849458793
Ni 8.160375528833573 6.119392131941546 5.188900931578868 -1.415702622439452 0.23434448318698353 -0.3813169674162013
Ni 8.562491329537503 8.203697422262865 4.218111728013742 0.9550558096436713 1.0014421102176947 -0.29471809917903435
P 7.437050689347991 4.396409085204936 6.469198952877658 -0.1896427694042347 0.22051400506179442 0.3331576341021553
Ni 5.498230467283274 5.751312334946284 5.093388660339578 0.3037113038165802 0.770460372855357 0.12484531331287532
P 9.186668609867423 0.7349174913160138 9.87426851698921 -0.4283822963351203 0.7756725131839157 0.3670707419098323
Ni 0.6523916747602706 1.2912995021301765 3.351352990565293 -1.1065241248607136 1.1311918028107228 -0.5818442449434238
P 6.380748554801151 6.319323773391751 11.000101738853049 -0.8331315266323329 -0.303701019403935 -1.1161256525062198
P 8.894236635269488 7.633948327226111 0.5097585698614295 0.40976519545456525 1.601192803127894 0.36456905853390115
P 2.796716910897612 2.693928547455448 3.6721768028327935 -1.1702103501657652 -0.8909288972567754 -0.529644680121733
Ni 6.308070378324381 2.9716410077536595 7.928827731372194 -0.10023419963241446 -0.4711551685262724 -0.2407172194825467
