# total energy = -381167.5675199263 ev
CRYSTAL
PRIMVEC
9.23934018838988 0.00000000000000 0.00000000000000

0.00000000000000 9.23934018838988 0.00000000000000

0.00000000000000 0.00000000000000 13.52270829252524

PRIMCOORD
 96 1
Ni 4.315317084841623 6.077333212602733 2.4216468240115994 -0.40544137126823077 0.17094802120820882 0.6815385129119682
Ni 1.0904731499412978 4.871913428826065 11.653965318799504 1.1724708640651678 -0.893843499800409 -0.5235586218286532
Ni 0.6357100439717518 0.38920813800967724 2.0668108801337723 0.47137756894972366 0.6831590792345267 0.27410916467943114
Ni 4.462056288970983 6.098075531786112 0.06555219615775058 -0.2491103286422484 2.501190752565473 1.0896605163361557
Ni 0.7584814751863671 2.1628371927113608 11.973695464918237 -2.9582555044369503 -1.1088651142890644 -1.5924741923079735
Ni 2.799788080097958 2.6592946700745954 11.923499976428502 3.171877153254286 1.559484110535198 -1.1229573307160725
Ni 4.115636460257583 4.802184126876418 11.897062527826577 0.0029986776170077387 -1.1718908231919818 -1.2328167121430769
Ni 1.4135359261399625 5.560124176715727 2.8522499787862166 0.3189833994843022 -0.6734104844881951 0.12254031932878251
Ni 4.5102486884634105 0.03609995078543223 10.817234021952617 1.1100622199209593 0.20348198928017214 -0.3539830554879388
Ni 2.392480998191479 2.234211097251048 2.7016746005254806 -1.2314743391825693 -0.460289172346046 -0.0769304919094675
Ni 8.453516014340101 5.301237858890222 4.032173802747058 0.26077593790563475 -0.08266148085597377 -0.8127588765132518
Ni 8.126092269475711 3.504638880036291 10.748200442334598 1.527568492773524 -0.4812842865404744 -0.12907889177824863
Ni 8.468252762267714 9.096777371215449 0.3771655817408064 -1.0194115502119219 -1.5882853510376065 -2.431843729430218
Ni 9.131970018774242 2.6374528693843926 3.5839503019080223 0.20247797349568997 -0.2699918000769479 0.3921729362940988
Ni 2.9520246917614426 2.7081707807561415 7.4055900269108115 1.230755972959306 -0.09913685280317765 0.026695249902999187
Ni 4.6955159420336114 2.0212258225003867 2.880972316267449 0.44237912483484454 1.7541071067628435 -2.084365822050649
Ni 2.54568774059628 0.44296724008918115 12.01972678269263 -1.750181546456192 0.07609899714710765 -0.005600376905912936
Ni 7.0938454426941675 2.799353831099464 1.7539086065658254 0.1950603408753802 1.0537267785540239 0.8745142033441777
Ni 3.388786790842358 6.532509317087868 9.594023888248289 -1.0305536828716702 1.324086503493352 0.7908728750734378
Ni 5.058871481688273 2.683464784543957 10.864170795085569 -0.45674439241758114 0.522982437610209 0.33415316524620514
Ni 3.399171809444637 3.94162272328665 1.4884715964013386 -0.4790811082415685 2.5941646710910486 0.7844381751916877
Ni 9.109730926447119 9.03223133922655 11.644769403305865 -1.3091663918484098 -0.26139017445086593 1.307608817553303
Ni 7.291641241837936 1.6364350131328351 6.225476796471902 -0.03600007224369284 -0.6643964539150429 -0.31305854935943506
Ni 8.884226345463283 2.020458957247727 0.4100936669691545 0.30670329656536854 0.8753097026622796 1.18711535345122
P 6.322831726198075 7.681060960742625 1.0254337371753857 -1.1936657529752281 0.0766633542910099 0.7437756644753191
Ni 5.417912249379176 6.980912985064577 11.196788897119179 -0.8984951396398074 -0.10144261811821885 0.04905999075144454
P 1.539338784937681 7.779672440762311 2.981567482669617 0.20797730604736442 -0.1564886512497692 0.7405648708475052
Ni 3.4382819373302675 4.168457769287148 3.8343502855821088 1.2594294296345987 0.7812142689377514 0.44330266509037847
P 7.435192873531543 5.898681326754269 5.965434637163173 -1.0379448331294188 2.1029682676431847 -0.8000830808177963
P 5.843152890989413 4.5973941470547794 2.998376614647488 -0.3035372401325611 -0.9554718141351674 0.37117242278303175
P 5.301339491634551 7.880288857647384 9.147787769527891 -2.0550799286023382 -0.4209199265198041 -0.46577847759539137
Ni 4.8499699953915325 2.597566636905709 5.981229289565839 0.14672900075984407 1.0509348176311835 -0.23168853362137518
Ni 7.147359702253244 8.40820628905044 10.019840140765039 0.19621810862890723 -0.9477320222887483 0.15843189101906907
Ni 9.147030143615625 8.809664868487843 6.156564252213041 0.49610721048591977 0.8774288058878115 0.8721181923081754
Ni 6.589044840955614 6.771521813726982 3.2328470515491636 -0.9064262215614259 0.4978586459593878 0.49389760442911074
Ni 5.836158710311543 4.344273177634811 0.30000230651056076 -0.18721230558587112 -0.8752613659228475 0.587471104211898
Ni 3.3145764088018708 8.804509316548277 8.50904260223688 1.6044583612530432 1.4503952887256313 0.6426899154758867
Ni 3.8934949991769763 8.486481980864063 13.202099031857744 3.224914383485924 0.10208410835695968 0.6985504740889324
Ni 2.4345754330242055 0.6701339784098055 6.313454719632724 0.6272764091342939 -1.2652095266514856 1.017468567552938
Ni 2.846714689956478 1.8177478290146232 9.708196265358685 3.1708271147232168 -3.396711125847673 0.11740196966095265
Ni 4.82574444487981 7.780328433930249 4.479491848227532 -2.4124586400353873 -0.8764877821307808 -1.6348099769617073
Ni 8.913062326831355 7.703798977450996 4.247929031747686 0.047453822606589244 -0.2967479851248696 -1.6152770491351018
Ni 2.7933574991840913 6.871971922484972 11.91848301459484 -1.0298756829680393 0.20991566072065784 -0.16246620898944278
Ni 6.594311264979902 2.7634127969688 4.259856096261639 -0.0595997139405038 2.2484731661879405 -0.7033851764734144
Ni 6.805836723948392 2.340528187158902 12.777756454133753 -0.3434939830311568 -0.5758970262210533 -0.8718489978071888
Ni 0.5599825622386541 2.466395721339375 6.101798062030648 -0.18824691749797257 -0.1620275787901274 -1.2401685245224576
Ni 4.362336088104079 2.5348684729955067 0.3450246883139833 0.7418005430268192 -2.954041980576235 -1.742314999223922
Ni 8.421141365601324 4.29888029828161 12.943328205787159 0.4050793599431218 0.2404781068885471 1.8586869849584633
Ni 7.962066259470137 5.2914811154347 7.9557068214773 0.9670610616346634 -0.7530074674862322 0.6291746545982713
Ni 2.112556702290005 7.949814894108372 0.8887912842280284 -1.1219142341635386 0.23250717286792863 0.3449834230924897
Ni 2.70607345048682 6.696747831922492 4.587227176885786 -0.5272278431501243 -0.3525229260026445 -0.29879124080714353
Ni 1.56535676748574 3.484663426105572 0.0028244663582889617 -0.40416430432802003 0.6867118295827916 2.9360416873440722
Ni 7.656456597274769 5.882327694257798 10.485927906254883 0.9896343189494892 1.3009198355689016 -0.4472477657810556
Ni 2.807604562070848 5.569409713811181 6.990348199474405 -1.1816358183938873 -0.8797142594878784 -0.05394225854441032
Ni 6.456515742351437 4.159126035489726 9.278254647356242 -0.07014355089462113 0.9854943286391867 2.1481451212901392
Ni 0.09966199302242572 6.762273233993101 12.75452413271433 0.01660906931159075 0.4116788675375103 0.19109132892530317
P 0.15664100522905974 3.9470184980764462 1.9364788966751665 -0.5472135422434317 0.6110221520589607 -1.6509737312057633
Ni 5.04988160348541 1.5620213656036912 8.431327738385143 0.34391255862581416 -0.1272125279934712 1.5839044483610913
P 7.933054730634587 0.9567244584051806 4.312094402912375 2.4335884800354672 -0.9914520888845184 -0.12964761979752512
Ni 4.307528320889913 8.648068805005757 2.2808078626575203 0.40030970646862024 0.28496204823353505 -0.4781035748196476
P 2.6464797049488293 2.5496976143270533 4.955640331471844 -0.041523316054767195 -1.0844278071823066 0.5519631411132753
P 6.743813031886915 0.05718412556336945 11.87658907344865 -0.5283442161427546 1.263908805562191 1.5073328824529395
P 2.47051646715487 0.8903444173481736 0.9092462599251692 1.0552545280524601 0.4117169198642974 -0.8442183805741139
Ni 7.632443551592096 2.602749906866455 8.185822757251525 1.6597293659112062 0.29744809651568777 -0.37207256599979793
Ni 3.6912458379635464 7.782989363963573 6.393496049395542 -0.04043573941754326 -0.27850035176859134 0.9158382589039453
Ni 6.757080724691962 7.224425040475318 7.646848607199582 -1.6498853832375908 0.8685109345728914 0.28409044426185914
Ni 7.917153825817397 0.12443820822160034 8.032434923775012 -1.017815923590028 2.711524474660156 0.027414130346894723
Ni 4.974654894001639 5.382137523375595 5.587407024963655 0.4444087536703637 0.24852437423179138 -0.1963500062210812
Ni 9.081902033181935 7.079007062022227 1.6073634285847285 0.48797044031139836 -0.15854527666848178 0.4695297171077075
Ni 7.6088924729290985 8.732562572904195 2.39937447005906 -0.14402548578575197 0.9383431248746807 2.336327504098763
Ni 4.817567628631574 5.740051091538492 8.10993358706154 1.5566150165175192 0.2730287871310588 -0.9257542324660766
Ni 5.950320000213468 0.5588877004020258 3.983276441582607 1.373889543058408 -1.7959135012756684 -0.5780842636803593
Ni 7.014849082329855 1.6006695264696473 10.163654169725822 -0.0004864527181152912 -1.4883316587600885 0.26295777604830195
Ni 5.294733363253208 0.4137967945988641 6.564598470208487 -0.234745318169828 -2.100099430735822 -0.7140951066917508
Ni 6.657009428890104 7.88147149321775 5.40706895949338 3.0342228611022004 0.575076587202287 1.0469444655248679
Ni 7.451232368454636 5.3806869469338166 1.7371003985219935 1.43224947105454 -1.5205192992362264 -1.1691083753508382
Ni 0.899974581840305 5.3250476390842385 9.163866069680637 0.3845825255413506 0.23598253301103878 -0.9754590558903717
Ni 6.894321886896816 6.376068805545347 12.940379932267597 1.0992458460317456 1.0674181599981873 0.7912539125619406
Ni 1.5997086350687246 7.571584016420197 7.8712167493150185 1.5697497541272643 -0.37085026355692263 -1.5498414452391114
Ni 3.87988545077737 0.7263655279786064 4.52572643149058 -2.0746210839590593 -0.33716855503376125 0.44724133802315236
Ni 1.3982170997675611 4.3821175158865335 5.060724893371206 0.04784668716963372 0.39425732962695326 -0.23511272881157574
Ni 8.825150002987327 7.4812325067122885 8.464336205874913 0.4609823417583286 -1.763073571927512 1.869655053934193
Ni 1.4146538863275744 0.4597163163544942 4.30820002093652 -0.7487849447644523 -0.11597629295801962 -0.32300229083570825
Ni 3.3850448579829955 4.190096304488694 9.60996729403129 -0.42023627018921816 -0.0944474177473083 0.060752853708340535
Ni 2.0912415440022305 5.711908060699931 0.572534206163206 -0.1191840012620399 -0.45830273804363647 -0.8856949025513456
Ni 0.9683845059817611 1.3212903516513888 7.885185708055931 -0.9033995189199602 -1.4922063112241462 3.3942117564645864
Ni 1.1966793677644303 3.016228868155783 9.73579602298211 -2.9016187297795124 2.0723222606225535 0.42382707286427007
Ni 8.043400172954001 4.010557441962456 5.897713043881032 0.16806170079934926 -2.676690654810422 0.16795397157689138
P 4.929548434200636 3.6208882608671438 8.157128137791473 -1.8168615642822452 -0.6187740280902376 -2.43557799966167
Ni 0.5329510240494293 6.281236215746596 6.109654273167229 -0.8667003637267139 0.4285859277054942 0.3794377481156175
P 0.6305480244939107 6.727385484667295 10.647848270584781 -0.11281897827596053 2.0444288766463954 0.7781988791501954
Ni 6.216625508374942 0.8225350503322941 1.0338221343186325 -1.1842053788932765 -0.911786714542391 -0.6471793187058079
P 0.0077093056243255145 1.17320220382458 10.019501980906638 -0.8455597250933566 0.9517676258107028 -1.2143669900783214
P 1.286439559687156 3.833346893215376 7.702209810903317 -1.5688267280923625 0.9558225126063667 -1.1051444709043676
P 6.573328722946293 4.581955209257263 11.832613508911809 -1.81483167833641 -1.2622262756534455 -1.2611101597711312
Ni 1.3928860003605192 8.753046190556555 10.069752905438735 1.9609814095540161 -0.8374838900637578 -1.5701565026473796
