# total energy = -381179.8262212824 ev
CRYSTAL
PRIMVEC
9.09574656944317 0.00000000000000 0.00000000000000
0.00000000000000 9.09574656944317 0.00000000000000
0.00000000000000 0.00000000000000 13.31254451654246
PRIMCOORD
 96 1
Ni 8.022512145379293 5.62191723176837 12.496658947212 2.315528050854909 -1.3557838345966327 -1.376910589272919
Ni 2.6310356529737455 2.5107353088327278 12.112924862173099 0.8372625180815709 -0.6808527996988533 0.5945969166234018
Ni 7.581677692094962 1.0390617052240503 10.982476372006236 0.680814233151434 -1.055902446049104 -0.5554469858968176
Ni 1.9382217324477231 5.493257896529091 7.349908973732852 0.05434592174073221 -0.12244518851181492 -0.6461699036046872
Ni 7.461732082070193 3.083239789471162 12.439826903490395 -1.4912388051045544 -0.6190380803849017 0.10158480012303797
Ni 1.602434056305734 1.8866761366328775 0.9404410730337445 -0.06712713266580052 -0.2059674747061872 -0.44775427310382887
Ni 0.7312962051163607 7.164655903332117 5.667736145542447 -0.5235308539145113 0.11031549512781648 0.7869514285318446
Ni 4.205127362965899 7.246626771425181 3.0576516352191194 -1.0699776931952476 0.03893010140629424 -0.21389778529685743
Ni 7.727009530797909 6.177831070662269 4.893864569879038 0.41731292589483615 -1.249422439020558 1.0044685557488444
Ni 6.1136423871144725 5.872486858291638 6.518500433988628 -0.49803168120214236 0.8955496838582384 1.7762432765402507
Ni 1.9656363126111154 3.787014084614599 5.314154460384651 2.0363728391111384 -0.9719754682171453 -0.39793272159601145
Ni 8.906536850309706 2.8506433581711392 4.401393563314156 -1.4142553484699643 1.2755448471392226 -0.13241515524033326
Ni 1.5333973398358776 4.437778368745345 11.506125778665371 -0.47274565294184395 1.4251406279239005 -0.009300708575635596
Ni 6.442117083013804 7.854786578619851 3.948713719271104 -1.3195083972043662 0.3617652705365189 0.7896135487450402
Ni 7.294570451598121 8.158429886381805 6.663834091840889 -0.9073618460018179 -0.5033330388103977 1.0504877027914359
Ni 5.3899665984748495 8.192147818918531 1.0656476628748728 -1.131236282895413 -0.43682477067551867 1.0651424765901332
Ni 4.928157353599018 2.945075399065744 4.153034203207511 -0.5446910329318942 0.32504940317272407 -0.4859199855402729
Ni 8.098561682454982 2.130232942550315 6.53865569881413 -0.7439906086996027 -0.9944970463584291 0.48116190202999715
Ni 0.607031025045276 8.613062587213538 1.683317982683626 0.9284099249213688 -1.0826979689753935 -1.9288161376753814
Ni 4.482793218522594 3.6252371361122444 10.6541754048664 -1.7328942201306543 1.0856143712912398 2.0891167064720735
Ni 2.9770924269937935 4.61256223484347 3.4563491329410976 1.0000701695708325 1.2185074946092562 -0.1776089781681522
Ni 9.180337013573952 5.5017078450930565 1.5128909791927558 0.0095696459663061 0.5319594442978386 -0.4914745968099149
Ni 0.8428391644593313 3.1220877230736335 7.369957818323479 1.4051405306528897 0.67507578800576 1.9622708177894013
Ni 7.927698083128728 8.029315763814003 9.648918951346154 1.689575245628045 0.9411463986514308 -1.3505367272650806
P 3.502171685013804 0.8890346421414272 10.78732803891149 -1.8932333554747651 0.3217470782723685 0.49517235737647625
Ni 0.22511517974581247 2.5278171208920677 11.202652561364284 0.5560990176585197 -0.21669206021254295 -0.30642870274774325
P 0.3837022499259035 8.761396022284739 7.235488120174985 -0.01921899613061206 -0.112869886118554 -0.5007915033354665
Ni 2.0430047329395213 2.422715769270303 9.734198852041553 0.2549189649042255 0.5818414167299463 -0.20736075550928806
P 2.8524897947249443 1.6113387921982227 3.8424262822965503 -0.5489300107139062 -0.734983777215302 0.9558713635664312
P 4.585375048344338 8.286798157730829 5.109048103944555 -0.7824340002774653 -0.15432686771176002 -0.012908480531551962
P 0.2467339501945022 3.606918302519321 0.10239445744239314 1.0371848150349428 0.6156910182895396 -0.25088438982353567
Ni 7.591874024000457 5.695556396002883 9.683291777635954 -3.0369605717483372 -0.5430951491996839 1.3848637826817245
Ni 5.401527292365915 5.548268971787285 4.272754238717333 0.42907392308550624 0.0768477023876741 -0.98414527081046
Ni 8.562344704336603 7.6566539310753345 3.33296896901132 1.2628083734091606 -0.5057118234552193 -0.5584883438263026
Ni 6.896395049729287 4.599000476706901 0.8793058316096539 -0.542904887565749 -0.23057318907000934 -0.002202406967957497
Ni 1.2286079680060453 7.474184159125164 8.855690717406128 0.48069113304116573 -0.14947133939167162 -0.05570269287894278
Ni 8.481947400400232 6.3667315354377605 7.600038366122109 0.5144332624886172 -0.17157948414462063 -0.6968026381598903
Ni 6.727123206052867 0.4362620214833563 13.133091063471658 -0.7063730554571448 1.5520716201212108 -0.40466978320952884
Ni 0.7075281097530693 5.53633535228683 3.8820973809636494 0.45778748897011484 0.07545519291552166 -0.2610001381012989
Ni 5.825389082549751 8.808111776670666 10.037059925598445 -0.8678059380860669 -0.30314129024572306 -0.8692107888533933
Ni 6.225401825225819 1.138732896143245 5.425394531366825 -1.8388997750292073 -0.19238330826384933 0.9891362962671479
Ni 7.459048836831904 4.419586875604407 3.0034700920481523 0.25949167187657246 -0.2757245887956671 1.6632206668939162
Ni 0.7053451305761569 1.0788737879629913 3.2165106682216678 0.5510766247432638 0.77021843204788 0.41524627317379453
Ni 8.259128896663462 0.20348458482658108 5.08877368483898 2.0895257689850335 0.2226755314894875 -1.8488777121775255
Ni 2.419432204758364 7.004588955185011 11.282634189682385 0.40650477953573866 -1.513094210416749 -1.0958391343430418
Ni 3.0521778149330117 6.24694964885126 5.199653564256964 -0.12471033039690782 1.5819627512536885 0.1347718283979679
Ni 3.3710928811867813 3.4600310911528234 7.7939760553483275 -1.6529910187461079 0.6404070329789809 0.9533719941833451
Ni 2.4160212997944384 -0.09359705135943591 12.552184841726083 0.8174902205506501 1.4208201461716758 1.603034227212007
Ni 4.79444078326656 3.458166463105877 13.379240157161679 -0.5703136185960048 0.4655483638624563 -2.315072194264413
Ni 5.797565193790688 2.625168896435793 1.7990968312044637 1.402052121535553 -0.8864238102975701 0.9398245945162137
Ni 2.5816366533495305 8.556950926620317 6.491569747542784 0.33033996214770206 -1.770405843922867 -1.8075084052021195
Ni 0.9827226509665677 -0.04406525383529215 10.774787733114785 -0.7430346725442365 0.49845951276818024 -0.6015304105184414
Ni 5.815720303945343 6.278411836238511 12.935573288395304 -2.4633446282519764 -0.8317909534440384 -0.23668958638039236
Ni 5.253821463808076 4.460408586212671 8.784469202610046 0.9109217954389344 1.6075308295307797 -2.4138022985474747
Ni 1.1476740150220157 1.5190442517476779 5.690194453399592 1.3853957439257945 -2.1314262658735617 -0.07240535034560434
Ni 7.546559014586382 4.184852943860325 7.726427403017398 0.1489900288798789 -0.7135693160952679 0.39186748923853804
P 6.340781370472214 4.692777623848432 11.404830087408689 -0.8685780403654009 -0.4108820826678278 -0.45726786902121896
Ni 2.0982704891016883 8.317232525755616 4.171672297505059 0.28062973940676833 0.43312366767484756 -1.5291157826559858
P 3.053387549226884 5.462268687963505 9.287043764465404 -0.5056943399537226 -0.3807279276819508 0.12723592503223893
Ni 7.560038911003817 7.372348180522198 0.6646571274424797 1.852223488721307 0.6886923503479301 2.882145965766881
P 9.382899289698289 4.63664777176207 5.945235548936903 -3.3852280649087376 2.2689700005897118 0.6203254317377574
P 0.12391681297743593 6.707540063686648 10.86780265669371 1.0166550705127073 0.08660092511969603 -0.2165586199584722
P 5.566733337325336 2.75340982733283 7.204775422305141 0.3555318880322974 -0.038964811298971606 -0.17659879173608295
Ni 6.7964873693992605 0.9415098232557746 8.1816240401365 0.47482644673027263 0.9538067677279186 0.4044196148719358
Ni 2.2580281818653987 4.37692782418891 0.9836622415872972 1.3276932470080036 1.1461795344688066 -2.4860693235430023
Ni 0.8072256783373185 7.3903759502248665 12.858053878673829 -1.4507171908414243 -0.60235933417764 0.9065488631822195
Ni 6.803864019867911 3.8355671798077604 5.480548409846175 -0.42802002789969507 -0.2956341832354005 -0.443675475048765
Ni 4.777586364871481 0.10386978753612315 7.159685987406014 0.09764895540374151 -0.6136559901373818 0.19632789473389414
Ni 3.023981000564559 9.256923199697296 1.8836854551605076 -0.5001731530251773 -0.7892021722392344 0.5264549695398417
Ni 4.768563384273577 6.1364818067529185 10.498978319433123 0.34875497431978003 0.980248249748899 0.11115058943460211
Ni 5.096510526871821 0.5772770188639591 3.051621155242899 -1.0316803402769457 0.420089974419341 1.0229344757635157
Ni 3.630039690301452 1.9953703081499774 6.055516928230549 0.01634630256850733 -0.8210396284648054 -0.8275283215129426
Ni 4.493089603640365 1.886184966318072 9.072818922088413 0.4345426595095613 -1.3504534235226548 -0.5544439985535999
Ni 3.909779376076213 6.911994255097641 7.7542112704915525 0.8197047117034656 -0.9492546295808622 -0.16805398748986541
Ni 7.245098686001342 7.685714841367981 11.828794659528773 0.2024322078594191 1.2832910667435447 -1.7895870448370084
Ni 3.218993807035406 6.787127846178248 0.605403795983819 0.011574077990844584 1.7084193749177417 0.38574106462582597
Ni 3.518707752278916 8.266123525776154 9.6170756521776 -0.059637509156974716 0.10965523583599826 -0.38080043279109904
Ni 4.666117990650388 8.293947414535216 12.003867770367838 -0.34953350435701735 -0.32995686777667044 0.5226137414168807
Ni 2.3813574096143824 0.7851584875827047 8.131488285040076 -0.7540675333196304 1.16282562766592 1.1297213889127833
Ni 4.212467630448267 4.454678265873276 5.8815616846449945 0.6209898047946337 -0.8894790521841262 0.8486563617408093
Ni 1.1548960377989679 3.5385910542819605 2.5716777204295242 -2.092818580803692 -1.6839769256046613 1.6991204661143189
Ni 0.4601756487917753 4.872582342053455 9.255266864246815 2.2351599940188023 -1.0146622084523944 0.2936446636091975
Ni 3.555309036478482 5.205441187799753 12.44881350110202 0.6324553822320721 -0.6963673503946846 -1.0050159436118822
Ni 3.5365081283173234 2.6833998659799327 2.1646330560798273 -0.38947867729138724 -0.3192186554235599 -0.6723061956804228
Ni 8.993883304625916 0.7740725916626175 13.038398884225137 0.38664506449733416 -0.7564961973657811 -0.9197455643781514
Ni 4.631344951511487 4.953070603455532 1.9162609619279836 0.8218690663446362 0.4940660116861749 -0.616711489134254
Ni 7.272777042815277 0.42328239112729765 2.1171205142943275 0.2624381560994061 -1.4712381936129113 1.237460124452359
Ni 8.120655250874648 2.287671219938556 1.4022239402445216 1.3915219114281905 1.9303323172095914 0.07279975757054559
P 6.348630999762528 6.4147297900901235 2.2218371158361614 -0.29383209702965524 -0.3473223556383115 0.4200370096942185
Ni 6.666782023304378 2.918752308490808 9.86191950623476 1.47499920331724 0.3838826712608486 -0.026363320484877176
P 8.792703581980291 2.176239228703745 8.956759924573205 -0.7059686209298744 0.46372108084573044 1.0152065109916386
Ni 4.360309895204664 1.1570972084690212 0.2823519841898002 -0.1878486536182894 -0.08004564049968149 0.16360366502799564
P 1.972212537381564 6.665854257154191 2.3197637425631403 -0.34495205563392206 0.28060042883072966 0.7745540833087563
P 6.26481369511566 7.160317232218005 8.505012394553626 -0.9174647387637748 -0.17020857193902297 -0.6876780501508027
P 6.901643295500448 2.0683000041519946 3.693512538594153 1.1233715354353557 0.5445869032538622 -1.3396779301737056
Ni 5.301064771495089 1.6483130020071775 11.459331800858937 1.1162356957215227 0.07218166437057245 1.0249828736521123
