# total energy = -340875.00574082194 ev
CRYSTAL
PRIMVEC
9.16660314514825 0.00000000000000 0.00000000000000

0.00000000000000 9.16660314514825 0.00000000000000

0.00000000000000 0.00000000000000 13.41625027737078

PRIMCOORD
 96 1
Ni 2.3037689663659466 4.788459173567016 7.270574482022046 -1.0279463271558102 1.041176195582523 -0.16475834745772916
Ni 8.533410609677038 6.358129915732732 9.11889070155423 -0.824667969246012 0.2156433072330544 0.6011007791801906
Ni 6.664175285736393 8.057718920367728 10.795332200623191 -1.8112776424365646 -2.856173967183152 -0.4773502415933908
Ni 2.8649392274332506 2.683770488320652 2.2707407795668875 1.4274214535382772 2.269756243936433 2.5260252951106494
Ni 4.817416472031735 5.0347107930529935 2.883474098435359 -0.32874407841549186 -0.22467070754264531 -1.2467744598747497
Ni 8.423677206726374 5.56204712292901 6.941111191667701 1.3573324100306752 -0.1199051956987806 0.34299750301071247
Ni 0.532915124382388 1.673629185308601 9.716826373410484 0.17609948350216123 -0.44312397342066917 0.54579840706346
Ni 0.9693865866542986 4.058788418552749 0.06705644997117965 -0.843616742434373 -1.4471760104573852 0.06585495082159626
Ni 6.221272534891248 5.514371621404793 10.487133595605489 0.3071501542948001 -0.2693387398739813 -0.14203236661512314
Ni 6.970688152486396 3.598799119958875 7.789434454224645 -0.9358658669787817 1.2777333701501092 0.9786137994692694
Ni 0.9565075096226652 5.188352223748514 2.1463178955178663 0.5951265638746267 0.38064565238078957 1.0876056906896558
Ni 4.781685054046464 3.3900297396062418 10.33286058597226 0.004621300822095267 0.38931258402716823 -0.33783035698747627
Ni 8.746919123713198 1.7533786302731633 4.402595609077273 -1.5388227255311047 -0.06260096266067283 0.4284002940572493
Ni 6.9376058827304075 8.41064229744596 3.8599492190886346 2.0245087406837 1.1590345360546037 -0.2547274177187097
Ni 4.586729744218151 7.194279929678994 6.651616123144904 -0.573545238159425 -0.39904343816168697 -1.1510312061341532
Ni 3.33255513961454 3.0726544484558924 13.460389069185776 -1.8497914822410464 -0.7463385401064888 -2.0546387272998614
Ni 2.457960393233637 5.59656854933551 12.70937479605019 -0.32284905308729556 -0.9811746182179103 -2.2837160485506347
Ni 7.3228323683207215 -0.026858146407605477 8.744202142622681 -0.6085628918851906 -0.9581737864473626 0.401986837060727
Ni 7.316443246120686 2.4310197474002058 10.011554655511471 -0.11291410909292814 0.5278009420447749 -1.3329334123610204
Ni 2.1471392231349724 8.59897015339963 12.448817776126088 -1.0686204078364046 0.3741217352193428 -0.8623847670704954
Ni 6.830659127052068 1.6556534770815312 12.837995984213437 1.0364386808975377 -2.8872951140679888 0.5618104662210003
Ni 4.305278369713332 5.361903515876567 8.258882770319547 2.187372442221878 -0.4547777556095135 0.9214252660734196
Ni 0.47923366465808104 2.4835810482538614 1.9467114513935753 -0.6040056115318113 0.5098777819074508 0.6783675713831543
Ni 4.623927818662541 8.267129962921226 8.6247842237404 0.04821615469391051 -0.07892309685946408 1.5722956604775697
P 7.831780492840541 0.31744220735129697 5.853362678781687 -0.47546459453490375 -0.05751043551164289 0.2403323253393022
P 3.009744052962583 4.929624857757161 10.375818953659836 0.3880190620267253 0.4185187732774792 0.45509785795309365
P 3.047849621091052 4.888008480729677 1.247982564365271 0.16144625236536067 0.38346666676935254 1.0615537307976104
P 1.346051465164509 1.8265556209803013 12.304780195256932 0.0246350249398608 0.3322423213767375 1.5498098206702275
P 6.908712750485774 5.929527065363992 3.033709219504577 -0.09572808423194482 -0.09968166956305412 -0.37539365995323093
P 6.334095083008929 6.74778387050901 8.777662076416894 -0.36589420510322795 1.2604059346152552 -1.4059321733162498
P 1.3318890637311471 2.7718340420878413 3.9519305789222443 1.233892975926391 -0.15887669186597156 -0.5685354436496595
P 0.7358352954439994 6.817945048872086 12.831904776606663 -0.7881840153873652 1.486616990061827 1.412953084718773
Ni 2.6670047716723544 7.766578446629859 4.773769692468659 0.6427493079589124 0.5562959641606743 0.2953960990826655
Ni 0.8381868331038631 6.015188969179375 10.935182477301565 0.04323155699512555 -0.7491166170722582 -1.2150727578960945
Ni 8.14736829643134 3.9947780307151004 3.198997735806072 -0.39276197602834934 0.5922302161634382 0.38689369017303044
Ni 8.945550241292175 0.08813413660928478 2.591643379501417 -0.7838421934789017 -0.9525870363882046 0.05652698855245104
Ni 7.895873380104014 6.603409875314544 4.932913834866734 -0.1766478998064635 -0.8858278285847841 -2.1470009803833667
Ni 0.8872584082451036 3.698861756882227 5.900024354028538 -2.0276837959775724 -1.4544776863251208 0.09142328620900383
Ni 8.410614797637352 6.714142437977982 1.20062972726206 -0.16650181251139712 1.3180477534984398 1.8237989148320268
Ni 5.635627444162406 7.638851002246387 2.040182384193477 1.5487037320902424 -2.58607418077343 -3.212401595730894
Ni 1.6902024032966387 1.2317347607791 5.574598952238203 -0.12101051294781742 -0.42164754871444804 1.4024861237491781
Ni 4.4619631125615244 8.831911865519109 12.359425064942823 1.122282673246551 0.7302454911993682 -0.5456400271087248
Ni 1.3324940595205332 3.5469619807319095 11.055835137590364 -1.0175228178296412 1.418703614049305 -0.2154301627809838
Ni 6.172377875185388 5.4950117561444305 6.191545241785492 -1.4965681877372679 -0.06928865909349358 1.2876316031004276
Ni 7.172371748820914 1.6454510480877889 2.4415961737910234 -0.368845574422068 1.988210163362982 -1.0930736557827627
Ni 6.018553112432477 3.961072431963986 4.6068449375549605 -0.2514754864403153 -1.52951198965314 -1.6652708645547256
Ni 6.64608041167202 3.6562828865534462 11.921438363216584 0.9777499088070775 0.8703071072413656 0.5102256521651729
Ni 3.7108975064498675 2.209398789824548 4.695661069417735 0.2648966449422277 -0.34343227655528596 -1.2412872115079332
Ni 6.429766917157796 5.4525978846673 0.7761500148640161 -0.35573834761614864 0.7904985224531547 0.701022846888825
Ni 8.200974590012116 5.491125116527766 12.716740161455824 -0.029081490746988622 -1.1233782203035751 -1.8336593525658744
Ni 5.748834989600606 0.6478496578012004 6.952904026259299 -0.1455385799961687 0.09321714488463301 -0.8948241185461234
Ni 2.8899640532669584 1.7871392286414947 10.948598717261348 1.4511841031755137 -1.056744225224109 -0.3466518119338482
Ni 0.20421907868821823 3.789326960601223 8.66418778283519 -0.4562180876004659 0.933254911718496 0.1558571883133574
Ni 4.696371481140121 3.2115468151344038 6.582119523489866 -0.0002792218033156481 0.22466967910138078 0.9646002587989969
Ni 4.141590342272852 6.771305373472122 10.743330062544574 -0.12685025955804605 0.7506582505277654 0.7852303320756799
Ni 2.519999961454345 6.685560970230911 9.02890766114617 -0.8177190487320046 1.2476609762447608 0.08745607403113971
P 5.485386823131466 2.1810831535606936 8.452573088951867 -0.06141748387553294 0.3232894830588239 0.80333372654461
P 0.9771140328732785 7.52932843116172 3.4293407160120495 -0.6279546661482411 -0.9482714397319862 0.26500565971626616
P 7.937058926796633 3.1436589542829614 0.7079248230269766 -0.38527106696794294 1.0599043681196456 -0.1976404428977306
P 1.0281720108563375 6.722282381326089 7.535357305868984 -0.5873744307330336 0.6794268658856041 -0.9184260742357795
P 7.684161520230274 0.5782412255911549 10.85696568833678 1.9969233748662638 1.0491299032119608 1.3548543808038278
P 8.191065492310198 4.462714773996822 10.58288517919932 1.3384913660647721 0.30990560555275015 -0.6215994133541746
P 1.3632021791333249 2.153995842081351 7.675034333753124 0.12160006690270025 -0.47754693098522916 -0.8730193639662062
P 3.49896564810726 8.693908659318938 1.4429983737725214 -0.17818053440090603 -0.6907829143283717 -0.0016537335533390871
Ni 3.8457474012629334 6.9625848755497675 0.2389110039080898 1.487605065006709 0.278081776173934 1.4052783417823347
Ni 5.115175233041376 0.8873519075943723 1.0968197830856605 0.34752187324362727 0.5958215330591222 0.010390342095388557
Ni 1.8393888649975874 0.4672382481430665 3.1417101345129077 2.299200260229163 0.4924840119110357 2.1973385522956543
Ni 2.7447008975941514 8.479529318010178 6.9453782453034485 -0.8677154352547896 0.5500772369444721 1.0278583954276943
Ni 0.44419890849089055 8.09903279950052 5.76276272600051 -0.406217587312623 0.9417400663713716 0.12854513076196572
Ni 3.0969367794571707 6.666861100377153 2.8644900638926454 -0.18845286286119156 -0.27129509226940374 -1.788340316914101
Ni 2.7271560197019475 3.298125379236736 8.98335972814796 -0.31522753198629583 0.9762409283617187 0.4250416619976615
Ni 4.793454972130888 4.852689559873532 12.534560346046723 -1.4391875929352698 1.4069310468944092 -1.5550391873899672
Ni 1.0185929108577203 5.944780292538823 5.068283476062501 -0.00256647517559558 0.1612055971094643 -0.11983551880310975
Ni 2.170055730308697 1.1047039782137087 1.0157695971739176 -0.6824872499784826 -1.05121995297177 -3.5171644807404396
Ni 1.350020604206998 7.912034100962925 1.293973244282076 0.6716364233069078 -0.5041545062704285 -0.48149768810286103
Ni 0.3161460497055511 8.498018355997937 10.225262084829899 0.41227793457408995 -0.8053654122626582 1.3991622015822678
Ni 4.639144379425895 8.96593676607392 3.3030405116953565 -2.72641193329495 3.872507906911015 0.16561246792790832
Ni 3.467845031365342 1.3446764747340854 8.201205588404429 -0.09865939894612685 -1.599337752197026 -0.3988524051968034
Ni 5.438829647157327 3.3619524350169945 0.6433772722611764 1.8435629848328314 -1.433171468648177 2.3687285461372882
Ni 8.236394343499827 1.685454103010243 7.6380590077584625 0.8345847141390916 0.5025213415423797 -1.6404697463506457
Ni 5.168433195713113 7.145531935619047 4.321495006849748 -0.3484865511497418 -3.5413575330468756 1.9192806873811203
Ni 8.98987076616616 1.0927690612776328 0.09994713772719645 0.7385583819404377 0.2169183172907361 0.9906866714734036
Ni 6.858296434703581 7.624826099856067 6.708433477710863 1.2619321414517946 1.124318215619341 1.2602771223468747
Ni 5.081469634290261 0.8747349954048065 10.23575326181403 0.5198726883366337 0.005385432681629434 -0.2168326995554653
Ni 6.2104284436966415 1.3969352776930475 4.4454742273198855 -1.1887850278441592 0.58885101527856 1.8048763668959111
Ni 2.5956061019218977 4.4612481175377035 4.309004593779781 1.280358209367466 0.17706236163606281 -1.04620115960094
Ni 0.6247250687423381 9.028187166160627 8.035434908791999 0.3547250758602859 0.003194852788213853 -0.6659514571069886
Ni 8.144984979685272 8.325402057362574 12.733201546888855 -0.270875745343798 -0.7067268392521376 -0.37039697806958793
P 5.725890982618273 6.838395739873918 12.347766062753117 0.33967126685095694 -0.02106787641389275 1.0575546369405464
P 3.868663908436658 5.18536391121306 5.8541803397576455 1.4255229509639835 0.715958899373367 0.37859854004377375
P 7.695537274391312 3.929365152638421 5.853603760437155 1.482368756308434 -1.267217815330766 -1.2683125910568414
P 4.9252982212027625 2.067188112907281 12.148950696456463 -1.6533460880926816 0.2432937219604713 0.20118856526030515
P 2.7934122252426206 8.883217341779643 10.191439153562056 0.4371487296738407 -1.1226696242723244 -0.43491984034332193
P 5.071716368837125 2.795859708208775 2.905812192968019 0.37452874084977433 -0.8217333120977202 -0.06155323812244883
P 7.2788235079443 9.003125673915441 1.3908624032920105 -1.2180218132220892 -1.217946994120096 -1.8491816165711894
P 4.249288759386488 0.12438438431696963 5.31533075667755 -0.4337438177573498 0.082132090715065 1.9510487238213365
