# total energy = -340861.6534910925 ev
CRYSTAL
PRIMVEC
9.41418233800405 0.00000000000000 0.00000000000000

0.00000000000000 9.41418233800405 0.00000000000000

0.00000000000000 0.00000000000000 13.77860745180333

PRIMCOORD
 96 1
Ni 2.34158010717658 2.6638840466018077 6.0472516696302625 -2.2234496475604093 -0.22192245537354685 -0.6201683373346029
Ni 7.257637773260103 5.9741175957482415 12.7745188985226 2.338990138532591 -0.8665417266616625 0.07911001605928956
Ni 0.7366823457611481 6.193882263406336 0.9739376223997928 -1.0380713314049543 -0.9277136701852926 -1.1042309579511629
Ni 3.2122224989841475 5.762656236729389 11.954815704805814 -0.04870749250803224 1.4786177739064341 -3.8683049245732604
Ni 4.391876005048453 2.762883585887813 4.689700246679329 1.5289206359260443 0.037546847905522436 0.22245133129382333
Ni 6.563379497852555 4.045989539385926 11.398421536774269 0.47323904763849467 -0.5074048948869261 -0.9935462524093857
Ni 1.4613446637778713 0.20271370098304525 3.4160056510572354 -1.2787065326966556 -4.775884800123156 2.1388377278462842
Ni 4.922233369561235 1.9665379194554031 13.508091739925993 0.7824445418004267 0.15676221662613002 -0.6019577278638472
Ni 2.491340916511097 5.789599625987333 2.353041873920657 1.2236702697571185 -0.11088499447804129 1.0239364346654687
Ni 4.610322687208255 7.400808655103159 2.994339726333972 2.516632026821208 0.27175480551464165 -1.9340766147433721
Ni 2.9860373591129443 5.057213912950617 0.09480646256501038 -0.6908471919074037 -1.3165642269743776 1.8861761915176676
Ni 8.73679406962918 0.494688911256143 4.706551632693207 0.41233758416743177 0.34969574096649453 -0.40204571532312045
Ni 5.350870496152251 4.6179952456447415 13.389568128319214 -0.6655909884437763 -0.84344293586067 0.9131666256090532
Ni 3.9618926504127523 3.4903362674880634 2.0805973258958232 -0.7354452902327528 -0.0731010908610483 -0.9017259878722793
Ni 3.132088980687982 7.931053049430373 0.7786535939542633 -0.09795697356246356 -0.8177475879770948 0.3288134982008466
Ni 3.728948127771736 0.20470762475831872 6.031033858073777 -0.3946177982901655 -0.8002206348369251 -0.4945187829528774
Ni 9.186886117295966 1.3082135772405787 9.865896241906487 -0.7984110924320121 -0.35023027331372586 0.06204714703973186
Ni 1.7469615354399224 3.611261436956373 10.305777667634363 0.13065934889149108 0.8322311263052505 -0.40802841526911665
Ni 2.617773382525842 5.3086290609319855 4.8016659390138905 -0.35242985206820593 0.8284693452699732 0.5261130128193907
Ni 7.6104624911529255 6.5296955541890584 5.396887959825123 -0.8900074138837704 -0.9478736900729352 -0.5345040650965633
Ni 7.443219545601775 7.499007988908058 10.872671472996231 0.24048659152897933 -0.38279535173394075 1.014273457654408
Ni 5.271301828783924 7.0213323875984415 13.029036960934235 -1.2445964783868244 1.73184983802654 1.7511472528035712
Ni 7.475510190309935 5.992738848002685 3.105877073381589 -0.7447256870934142 -0.6025724786297106 0.241659528791158
Ni 6.288099398169966 3.2424137810771696 6.881615569179124 -0.15620865811550516 -1.7176987433371387 -0.5426935428858911
P 7.124398853564892 4.230422781507658 8.561971766044637 -0.8431287470543609 1.8183677165141265 0.05263999479321903
P 2.2421004446019106 5.957529806834021 9.660181299660188 0.5360940352915025 -1.3458907438526369 0.6934069822147799
P 0.24768524902120134 1.7287545071992285 0.6371725578036607 -0.805547189256161 0.41017220108499686 -0.3122795051015654
P 5.5498580638479815 5.967574739167434 11.283755857004635 -0.2072741093327527 -0.1864628290143563 -1.7082910768699935
P 4.5916167073146354 5.868942352984524 1.3703650662489737 0.07428791208029786 0.13835054688816173 -0.8546627158358894
P 2.940435060872034 2.7734557124205423 13.469856039202321 -0.8122721666848205 1.2815113491353025 -0.5377662807876028
P 8.76937655398339 8.592389929927009 2.6953575403010253 -0.0011806505716624829 0.398349754528772 -0.8855696898273909
P 8.415290335685059 8.395238127746756 8.623961331120384 -0.5973497967781906 1.04422141016675 0.42809664677390147
Ni 6.240614263502925 2.422372618221892 9.35785143046158 0.706181508271629 0.35378585187546807 -0.7522623617900915
Ni 3.5248957300897112 9.21065692717588 8.756801089493255 -0.39487413727534576 0.1301698108495823 1.0803623788636814
Ni 7.378770054735287 2.630200102938311 4.523310226029216 -2.806714427000444 1.5139586152995732 -1.920879142216492
Ni 0.02287363832286117 7.519144924485537 4.421017605833907 1.0704847147386534 -0.7059328825959326 -2.1401677595116175
Ni 4.992980948273134 5.080561084634651 3.4852714375017695 -0.4993406298215529 0.10561886098309553 -0.469818709103036
Ni 7.892925611801206 6.568792652577684 7.6049919099168 -0.30504287814381015 0.4000243140177175 1.1029767738290877
Ni 7.611611021372865 3.5476874650280354 13.603329372032585 0.652054130299606 1.2957958840787749 -0.9225344399771982
Ni 3.4133565002056683 0.2683908011993718 11.53080659015023 -0.373610342800563 1.2551187180743868 -0.5782765821968234
Ni 0.21665516330033757 5.2871082405813 3.782806663741234 0.5763629101138784 0.4038909960619754 -1.3888068264898727
Ni 7.609831740950171 7.200032392802603 1.0576127560135125 -0.3756718533152821 1.9936616733958568 -0.36213242406795054
Ni 6.591960954801234 3.628159893880905 2.1583499975311455 0.4016004002555858 -0.09504339946009438 -0.25754560389379516
Ni 0.5272186761904206 4.353870951786984 12.680548415330792 -0.2675150564016812 0.8298842233396287 0.44264009180571506
Ni 2.7477926519323677 7.503366755234553 7.079007433003709 -0.3908909842578816 0.06373070538974186 0.6497802466637648
Ni 1.9052798363312078 1.6337654095008833 2.1423251767083387 2.44897473268355 3.4651500353463613 -3.2603848084783915
Ni 8.92134028193648 4.8146857529005915 9.547899290806036 -0.30841385149857203 -1.8255495789745462 0.16165836837616673
Ni 0.28241228406477475 6.251299360221222 11.194043408390524 0.29783479043114514 0.30475542881037837 1.3736691995174857
Ni 4.277371307793252 6.805935900448973 5.234713609933119 0.6137513780646655 0.7910713642374892 0.4272746650932383
Ni 9.338501520510224 8.301755299189317 6.41281189310944 0.5120351945700858 0.43528236588906327 2.704517961435336
Ni 3.9005404254672507 2.791022576276352 8.834678028332704 -1.8321048635945607 -1.9875943841558543 0.14469525815926693
Ni 7.743127145738166 0.811068505866547 7.5651445012123615 1.212600385096202 0.7288941193777962 0.9096023052965624
Ni 1.6492893958343393 4.767633670611559 7.849065878672681 -0.2020012909695876 0.9446590397903796 0.4604074430914651
Ni 7.464665052495415 1.2292662458928758 2.59910035226968 -1.0429870235390168 -1.2671098289979918 0.32263308042174754
Ni 7.011842892010737 0.14323019119047897 9.898220777670318 -0.09257899708000185 -0.2825508676888811 -1.0874606804713594
Ni 7.100439760042366 1.4090206394956708 11.848169025375075 0.5343580264370023 0.9663033575330325 -0.15148682715980363
P 3.7733359965177913 0.7118769172650758 1.0569142236994176 -1.5110581538233265 -1.8517789449847204 -1.0849595113160604
P 5.782369534110987 0.8209505728490993 4.448836514030003 1.0742830054388208 -0.20104484059358926 0.6844801120387954
P 1.5471549338988242 0.4220123666256717 5.509830844264848 -0.5120354516804021 0.17608971331014836 1.1384016902956007
P 6.016180161508024 4.513149499255596 5.164841550159372 0.8049586637425428 0.8484571012458098 0.31525272879727645
P 8.094737434136134 5.15574274313009 1.169302612811646 0.7042230989936775 -0.6691262552905444 -0.18661066744613022
P 2.7075281949595404 7.573681281568442 3.5159974451398126 -2.3595268250333623 0.7714175945623037 1.2795498545335577
P 1.4027696225609136 7.45657827004518 12.70483982948253 0.5854144787931853 -0.31586156602586896 0.6143926111930902
P 4.9897142270737955 7.891231059017687 7.006711221331315 0.17210424629983906 -0.28543281722236646 0.5574326488682787
Ni 5.539606019507694 8.690410394271426 0.9714993492279522 0.5745574814740234 1.135658837443141 0.144369499388732
Ni 0.36638019874275785 8.39013564103194 0.7417612970206384 -0.9819078968395089 1.638966936552874 0.39801294001464355
Ni 4.873590290492122 1.3592855152994014 2.67905688394179 0.5844410591363225 0.5006277240640926 -0.7415807137065292
Ni 0.0772301845270708 8.958582786445366 11.694399657289322 -0.9304266982410815 0.058718339776815 0.3328509014950139
Ni 1.9117379652728395 0.17938629908148632 13.382321090915033 0.3685920636503652 1.567247813641017 -0.029827110663761532
Ni 0.6408431474164045 2.6402167927253317 7.980775935189873 -0.21609350739659555 -0.6575562910647578 -0.4820949553672278
Ni 0.3691743279991373 6.826995425875256 8.927545169378797 1.1008574134932396 0.23639159552399933 -1.3610563958494817
Ni 4.838757816608686 4.700501137837834 9.327979289142787 1.466192403658888 2.3008213407723535 0.45114864349735845
Ni 5.787792103018247 5.688717250275196 7.02934950510091 0.22731123048928592 0.4971191966902019 0.44562899923071
Ni 1.1566923158476288 9.159848586216716 8.519726565151519 -0.6434679312924918 0.8370545158358229 -0.5190864449899124
Ni 3.745281733768429 4.516246765176583 7.030768222348001 0.6568623503215267 -0.5055884105034777 -0.6735058724154788
Ni 6.813439003607108 8.858227604932546 5.775454817336018 -0.9334711414943601 -0.5630721065422432 1.0783101243203428
Ni 4.732010405429147 7.982586282413598 10.677649158813933 -0.007381380065735675 -0.45465845642282987 0.230684517836893
Ni 0.8887665752455114 2.1766718787938335 12.06450693073761 0.4162232923750832 -1.3448188509446968 0.40607591952843614
Ni 4.258561771896196 3.335717740174127 11.290590553231493 -0.6971433093287607 -0.6499656232016935 0.7638053294326845
Ni 7.214671446015777 1.4740726380185216 0.3865547910487592 0.27304164264686526 -1.0897847006188457 1.635337567330403
Ni 9.215759413890696 2.5397203984805516 2.9340578938967257 1.2975336927054881 0.7262898489857299 -0.2560538498396171
Ni 5.456073981462361 0.47541713901647176 7.773380561433251 0.2365152655860572 0.8874905609991878 -0.029872619189716298
Ni 8.733169609508876 4.583285156129003 7.010872289833067 0.24110905560432666 -0.49885032044869576 0.009673004313389794
Ni 6.789442253356059 8.43288544208726 3.5070963359352754 -0.2488912706529068 -0.6345945400622619 -0.9092446648468275
Ni 6.137387756440254 7.4739756786226375 8.91880974977976 -0.7125969248796696 -0.25859101443917404 -1.3680518533307082
Ni 1.901664790393035 7.951510067200294 10.40797426317194 1.5728314783763815 0.25984879810567507 1.0207837479691
Ni 0.28423957681633555 3.6199130703344484 5.18621268501418 0.930277831368043 -0.889700681276629 -0.03473971747403049
Ni 1.3311841816393857 3.960207511811364 1.4165510437819846 -0.7751703767365166 -1.6123524192891392 -0.02850787763170574
P 5.249225571687531 1.2233447253326917 10.755346286774685 -1.9074718676716504 -0.6029915684450002 0.9242336820564921
P 2.55786152744633 3.5388381338252164 3.7979766768265772 -1.5310078574723762 -1.5945521578829247 -1.5035677589835523
P 8.436773499307222 2.1916780851101034 6.10932407950876 1.6124010131388877 -0.23315714774710167 3.163631882526358
P 4.105393028630381 2.1143594072710044 6.820424326748057 2.5174460380820713 0.527493180996369 1.576033787363763
P 8.409660654770924 3.0011941923433048 10.861717130668998 0.9344142221339198 0.8732890726878251 1.008357349280289
P 1.2348865126248791 6.2459615189531394 6.191499533909067 -1.7651417673104504 -0.26718466964545595 0.0354907367074421
P 1.893107298836266 1.4059610303032068 9.954134429598938 1.444622647907912 -0.349174835466018 -0.30535063919221606
P 7.241445379995369 9.051792603721017 13.1139547665892 0.17084903373649932 -2.1140651488872946 0.15420576875286346
