# total energy = -381165.7160915184 ev
CRYSTAL
PRIMVEC
9.31518099673556 0.00000000000000 0.00000000000000
0.00000000000000 9.31518099673556 0.00000000000000
0.00000000000000 0.00000000000000 13.63370898164285
PRIMCOORD
 96 1
Ni 8.25806632577705 2.6527586184158185 2.680155497292076 3.0154602357827165 -1.8183011249422494 -0.48859856081370046
Ni 3.8534016143151977 8.106955459390104 13.057043581021789 -1.2024866937009677 -0.2485112616056688 0.8228823381004988
Ni 1.7170393705157443 5.419982181114881 12.363019745747915 0.7194795109321157 0.29471167142113114 0.17161650803014314
Ni 2.188471366384127 3.8352649568835995 4.99428679250043 -1.4372109288248733 1.2992319063435172 0.5276407623178268
Ni 0.3657885280041027 8.60683601807107 2.5621424005611204 -1.0376455567214453 0.9086399413832932 1.6726442742006613
Ni 5.34347659945812 6.582665814387777 11.10503808464337 0.8881194528324381 0.56616514364527 -0.03264863927295668
Ni 5.02594070909946 1.9545485407948675 11.034469999364061 -0.6671477914079349 1.7093303167677851 0.6551456247407362
Ni 1.819245536586362 8.554577852590196 0.9606718232786167 1.122595062280647 -0.6040084397452888 -1.759036425743661
Ni 7.156760420196397 5.77984625399495 -0.05829440277706211 -0.6475719261585364 -0.020469323597945392 1.1270700673328655
Ni 7.221398461243062 4.716378613687615 2.8314759552518054 -2.0430145127973716 -0.3473619506269953 -0.0325409100504988
Ni 3.929012938594746 4.51271149602739 11.107968640589945 0.15537973445630657 0.029705497484232714 1.0866816362134897
Ni 8.182371164868387 0.6069427286134695 8.192331887925196 1.482126815500957 -0.7012033383307472 1.2040360404659587
Ni 7.682071423041854 5.82794984874419 4.921033140535179 -2.2419603047700876 1.5967409380041275 0.48709960767067073
Ni 1.2858489566219398 2.3207841974875767 9.294344815744708 -0.22440382703450384 -2.1669493984808357 0.21393686606490897
Ni 2.3005143636040857 4.838640364478433 0.9763054915721199 0.40671355311243496 -0.7761463674965408 0.5361032912628831
Ni 7.9786108953980355 5.372055574804881 10.08837177677971 0.1282525392222114 -0.3993182890896284 -2.521462615440632
Ni 3.3330556029494756 5.456544266589469 3.3428085974697033 -0.4537904519955798 -0.6020942534417114 0.6109517038323414
Ni 3.2672717946382557 7.358517925749031 10.916592904275891 -2.716091525205548 -0.34568482003488854 -1.4310855326534258
Ni 8.068763217238306 8.282770185822553 0.6847244900689614 -0.11671111424151513 -1.3714837618303928 0.07108688864449693
Ni 5.395520515775705 7.290451898089716 5.521992728384234 0.44815793630015077 0.1724444032480772 -0.660485806006727
Ni 6.4116670365388595 8.099875921820502 8.890623007620958 0.5542048859596004 0.33928303027360274 0.5895449560217911
Ni 0.7838985647199669 9.305865831621134 10.003638095734491 -0.3572918081461976 -0.7047581455615411 -1.2299684440610044
Ni 2.0618035349743327 5.498723406214674 6.9000750182846655 -2.348949306627832 -1.1642423055077884 -0.19678760797913208
Ni 8.831583390362885 6.3030892866556005 11.881314036740699 -0.25837144222920017 -0.9752988761634236 4.829059070153289
P 0.7615384042172408 7.164808736591312 6.923661056608655 -1.4740656357593773 1.1458753729648266 -0.06989672499113768
Ni 2.177302464349979 7.386137437451491 8.407812518145644 1.6369859015671033 0.6617590162921958 1.0111557379610328
P 4.616929741196737 5.871060506470659 13.257036791290632 0.6569495107186943 -0.6950620013196996 -0.10682933635142892
Ni 9.217418187906175 0.11307418775805751 12.111287225580602 -0.9124354038699835 -1.3106460617177298 0.9591286941614642
P 1.3896945945507813 3.4458438146504453 2.8157975740894416 1.13299774567121 1.247861779401657 -0.04744739484868603
P 8.347287129516054 7.686654492100068 10.567269890229719 -1.7857170203586408 3.437905854918428 -2.7613465403886055
P 2.7444572603041855 2.5736354708945073 11.366681957408126 -0.18823483331311452 0.503801493806384 -0.07525696086178651
Ni 2.5148566787047884 3.2709885518622968 7.790260729876885 0.756782104037316 1.5740900333738312 -0.44493968647316917
Ni 6.430176301210962 4.729308084933151 11.561766998801412 -0.44787382940082865 -2.5619186665731495 0.5196603152155115
Ni 0.004775893305177333 4.200662247285172 8.457426103737031 0.5333336989375459 0.04501564547874183 1.2035043363322047
Ni 4.9306929832452795 4.748040913949557 1.7704870846119332 0.9485645454923728 -0.2512595137747673 -0.9517627407146962
Ni 4.140644536020773 9.247152245698503 1.9026657771088011 1.242166271678777 -1.0521473498820462 2.6424839270217264
Ni 8.605867239245756 2.065101109052805 10.53889771190144 1.2524946501879786 -0.3810233474351825 -0.295724943176994
Ni 8.002830366030883 8.227503216874599 4.358247164475897 -0.7771020465415907 1.242756854074924 0.7882986865883584
Ni 1.476027692175871 0.08806478977533837 7.597084369073088 -0.23275734120552172 0.4225554052406981 -0.0666458221540078
Ni 7.513829938772674 2.7895334212243204 4.8631439481321665 0.4733802012020492 0.509400070940084 2.109014730947581
Ni 6.184087849219204 5.737993145705185 8.399645898951867 -2.677786973198395 -1.8924977628603217 1.440556191148022
Ni 6.813207229269451 0.30589564016527265 2.104894630820675 -0.675377892627211 -0.2165884447551431 1.0658713843363579
Ni 0.16900626063031568 6.603550450218103 0.5252523172050764 1.3825677875586964 -0.5806162860735936 -0.5153611736195254
Ni 0.88752436437691 6.530631213251206 10.216079182390516 1.570446780194289 0.17699551295386937 -1.5182983803255077
Ni 4.202925836271242 3.2973970900331135 6.196261859284616 1.5605248930948865 0.465539879222024 0.4940973791447426
Ni 7.728451709303757 2.6150787112197156 7.385816063706554 -0.7300775981629362 1.6003304551275985 -0.4358310393036816
Ni 3.1405108114183355 1.1047804680983648 14.117705488808118 -0.6143216487458387 0.5662193939219732 -3.6357854104101577
Ni 3.178675108027096 0.6977331403531045 9.603570633121997 0.5538027654251753 0.008474613129914437 -1.179131049694163
Ni 5.804019148722734 6.697009661317857 3.0625949113562614 -0.19874447459518674 0.8996325956783604 -0.01717548333802203
Ni 7.009450147662607 8.69659710230881 6.665411635804902 -0.7543858358909976 0.6852856386592262 -1.1374359839482218
Ni 0.887337129238556 3.9335121710238483 10.77512883934563 -0.17089788469656375 0.7853560590202668 0.7723984704183342
Ni 5.372502703493487 1.1720919660956564 5.2282142756801955 -0.1547050769867852 0.5948483705125756 0.8954632947920191
Ni 4.5246628732666 3.371955798858234 9.057936699861278 0.6463442243990224 0.3643875386507144 -0.0928196523358982
Ni 3.78528901075082 6.807757848377061 1.465746526892227 -1.1080300199822788 0.21925313607149982 0.4104527084398931
Ni 1.4651568759341274 6.489262494374098 2.4735503715404668 -1.0653687336683266 -0.45806413967026915 0.3060870031376083
Ni 2.9470345017859323 5.371571185392224 9.347952750954313 -0.2733347484072518 -0.26024757620599054 -1.521080313946019
P 6.83686778904154 2.925721367629026 9.94565482000325 -1.7925091035798095 0.3983767511119655 -0.4842837354884305
Ni 4.1557537596232645 3.3495807340658876 13.104134615594957 0.4451795703981172 -0.18796538170181176 0.47534889489264587
P 2.665855762919582 8.033635669639663 3.293181970624897 -0.07010421301625346 0.42207203784637626 -0.4204429868833856
Ni 9.127750255478562 4.318294353112711 1.3618738749384491 0.4918432930032432 0.6301226203338375 -1.148813115436912
P 1.6248935999387712 7.653054634187498 12.351840597014654 -0.7453977734597743 0.4398604721780489 1.0234031878698182
P 6.865493340293364 4.599640765237289 6.447749390191296 -0.5805538082667744 -0.8368930505572942 0.502294056022922
P 8.319639672270558 0.9476147340532078 0.6768634088123998 1.1679079272848338 3.2720478466386163 -0.7118271365931805
Ni 6.712267927816551 3.114726390375365 1.1569100840812658 -0.8703590435252236 0.31298321603680934 -2.2548880685753487
Ni 4.789139492577297 9.007975658018118 11.295595948064515 0.9321431667115558 0.5039953549847449 -0.7310186219199668
Ni 9.23677513405043 4.294009676212775 6.265071238388739 -0.507750451151803 0.7256681562413309 -1.2766385944240335
Ni 9.227702147744123 4.7437279851407075 3.942159453557876 2.453096211051091 -2.0765548106466625 -2.105580251344735
Ni 2.2732208832370686 0.8831872160974276 3.2774486298945584 1.0404272332316404 -0.5574627307752658 0.20734301489747514
Ni 5.696102776691371 0.8506418366754879 -0.1636164968964058 -0.18959494688543477 0.3056458018351317 -0.23509138865533705
Ni 0.6177325027804033 6.732453925070929 4.881835790352117 -0.7236881496968247 -0.6294407637754643 -0.5623575969737218
Ni 2.778960690774981 1.4932887225922813 5.6217778789096675 0.05289839066092825 -0.41856145358995656 0.8533990186321174
Ni 0.5682362884697737 2.108705471372944 4.374211521695349 -0.32414514619089985 -0.5270959455579503 0.6313063562292934
Ni 5.658562597210458 7.96274714213352 0.7423826659828607 1.8117687231403699 -1.349184069891928 0.2697668285503354
Ni 7.248086454844258 2.4705443626276895 12.51014185162525 0.3962813020355175 -0.07949053932715987 -0.053013833192869994
Ni 3.780575529158427 2.7310154541029554 3.9746759559186766 1.751757118473428 -0.27194866669300266 -1.2759827060075895
Ni 3.9685279364503385 8.924371908429729 6.883782766693569 0.2062451538476061 -1.8164918396476524 -0.05313107549702462
Ni 6.928352181766617 8.076289883496514 12.342092260084932 -0.013079716002093605 -0.030259313105173696 -1.332662418087821
Ni 4.165963198013111 5.641497185595313 6.894866900580502 2.3070377539957105 0.2751892851174873 0.4829004819876587
Ni 1.6070829738426156 8.812776039898377 5.214852580035673 -1.820656255437987 1.9363378999737233 0.009808244339673432
Ni 3.6437914111689125 2.81160108504325 1.6918473949851776 -0.442839866521347 0.6414100203221986 1.4760584978196902
Ni 0.8158114433511489 2.210743964185334 6.789123760279388 -1.542480891108982 -0.7418650777161675 -0.22684148994171902
Ni 8.186823821392426 6.751000450467083 2.624256959071463 0.562362224959412 -0.19610960807550096 -0.8009276882062787
Ni 5.208434420317968 4.9221323318946695 4.5301951592700025 1.012337674084276 -0.6730667279955311 1.30422061780736
Ni 6.210263507864705 2.2733978716763086 3.1643427705210576 -3.8443201316228883 -0.19534573332628294 0.7224265093755816
Ni 2.941566490531516 7.099500002511737 5.242242938285222 2.085226627389048 -1.480215457410857 0.1653928957179345
Ni 7.727501560840468 6.541725593837253 7.263290693293079 3.204506766363849 0.6188676162453084 -1.241882679000087
Ni 6.75201580519746 0.502084530508555 10.54042540158751 2.0978893104583807 -0.2432394716837682 0.3786985559567478
Ni 0.7193247984222884 2.1802367463689585 12.75729316577055 0.22354045059294406 1.2241176417071822 0.05361881376672056
P 4.465166812138908 7.185143776741892 9.02231172159656 -0.6048738730693777 -0.7820830446959499 -0.6373569332987474
Ni 5.74992589258237 1.3220011741319715 8.520809389901295 0.8138544235702757 -0.6053546693605382 -0.08336930555627577
P 8.804150182280678 4.248747211672388 12.641801688539715 -0.14056683781319018 -0.8670322931448358 0.8064241925444757
Ni 2.4294923599050127 0.445856234880095 11.725698348816044 -0.2520480711143337 -0.49506179994054095 1.6927199619046138
P 8.582970524316702 0.7539726141987797 5.779915186334443 -0.23895884203054332 0.3615079031100742 0.4198490620531285
P 3.8380222504633394 1.4977879550213833 7.62833307529807 -0.6352663693183059 1.9747866908682246 0.0978692989446637
P 5.575927626447384 8.908955283853821 3.9312122528318287 0.9156204864661844 -1.1755631298372464 -0.8756125786146791
Ni 1.1874061236804263 1.7888128402180876 1.5323603178316723 -1.9066987369510515 0.025600988397555913 -1.059415601408685
