# total energy = -381168.7925983331 ev
CRYSTAL
PRIMVEC
9.29057075105776 0.00000000000000 0.00000000000000

0.00000000000000 9.29057075105776 0.00000000000000

0.00000000000000 0.00000000000000 13.59768939945331

PRIMCOORD
 96 1
Ni 0.7589950206836102 8.294844376986942 2.403010722751473 1.3183822540197232 2.492056908585005 0.5261464371604875
Ni 6.490606282070988 1.5369019268158581 8.979886455947641 -0.21113153540562996 1.316304545555088 0.5648299697736143
Ni 1.7897819671118267 6.9852827119750565 0.33310225903830365 1.1316864830589544 0.23524154107995615 0.5310780701341499
Ni 4.396335155156816 2.2005366730733003 8.351537296708242 0.6727556245130155 0.730749170308664 -0.18177236551722242
Ni 3.7907200220978132 5.6396364708762645 11.860149143502515 0.4481898179793507 1.2853124680489478 0.5426349217338139
Ni 1.4110704390400914 7.303726308770846 11.507139978907718 -0.02650498826906403 -0.04150660388421884 0.2726174106252531
Ni 2.798161915443646 1.901231651648012 9.729378151997036 -1.8882762685798058 0.2679488015049901 1.2993550621849428
Ni 6.778037954310111 5.810257799361346 10.875785320089506 0.7827685007987486 -1.1078852668742982 -1.5356335291698455
Ni 3.061177968229526 8.94975527748084 10.380503144984388 0.7350632243029857 -1.1112505838021056 -1.0744257016642722
Ni 8.454846583312566 6.321815195987843 12.493284804698654 -0.14246174084305788 -2.5825702813852294 -0.04181179382946348
Ni 5.638131398444215 7.15874695505401 12.048735648295334 -1.3753936384077603 1.5572932735314664 0.5498437807774273
Ni 6.5099492499939915 6.862554274769071 4.318612099897328 1.8556438272567655 1.6546987454658342 -0.056572497078405795
Ni -0.05533463830422819 5.122885645302141 0.8586326737993801 0.2846679140318839 0.14359816844034623 0.7260828751812463
Ni 7.652001927661143 9.293822267903739 2.7068105222176584 0.06160748839915197 0.3047166051526429 0.49419790927834895
Ni 5.245669825931537 6.990977831733366 7.477464623681562 0.23131752343520165 -0.19119314461049008 0.07080843817212967
Ni 8.454363473643019 8.329721178899984 11.626064856523083 -0.24460472746241102 1.053729092546869 -1.6864279582483148
Ni 6.030797363509394 2.6941446873620247 6.84360801420933 0.5007092280343054 0.4769712609874172 -1.3952970621999066
Ni 4.6682237028353315 1.738367949587381 4.499407532211651 -1.0433600906077192 -0.19037219137109151 0.9858221442922507
Ni 1.5237000260384392 2.819047118080971 0.5657697340060854 -0.018957772049425413 -0.6668035206946388 0.6993292612364859
Ni 2.1234249373572 7.170982636492336 5.010924979384703 -0.989793727345489 0.6713168351839599 0.02861406419226685
Ni 3.508862692199614 5.090563750295356 3.941793061050336 -0.9070674546898507 -1.4341641715787494 0.08041767912711957
Ni 6.703750552046745 0.4795848270730762 4.844951723354894 0.27109248934029445 0.07232024683096576 0.5007714487308086
Ni 5.342765578939845 5.964611338781502 2.746271291649052 -0.6392706053816927 0.3593168089960263 -1.8168623356131934
Ni 5.890937114175637 4.186414713168227 1.5194059243218148 1.2763992247197178 -1.3394077072314545 1.5365401001445151
P 8.70024771430113 4.010414144324154 12.620776517434958 0.34923499927999213 -0.3172466192988536 -0.3108234893813292
Ni 8.188049268305427 2.577250728472871 7.823254085887806 0.47541060136851676 0.22854047491069673 -0.8693241745028061
P 7.318795614232475 2.1999513671275035 3.308046080310809 -0.31536919977048267 0.7451625175205167 0.6278016855101446
Ni 9.294286796432148 1.3979242816860815 4.1155713254144946 0.4398129067695651 -2.004676536449122 -1.257700362758634
P 1.1836558526715728 9.200405580840439 5.737137292761347 3.061982547713972 -0.2991074864959816 -1.996275713979936
P 6.534374160017802 -0.1927709777767396 12.128485906052806 -0.7768953298474234 1.0935629367143553 -0.15340255612527776
P 3.3537937788457066 2.84275665417103 2.7997236603561615 -0.6113720791992115 0.7603019442651164 0.6650960510852287
Ni 6.398453112604964 8.504235256453143 9.866293290460671 -0.8307535133184596 0.12209423293029939 0.5040583470121964
Ni 6.84413107333232 5.112981897076434 8.25918159280383 1.4511432226352492 0.08932372336749778 -0.49816537856652915
Ni 1.8149408322105254 4.808687839256021 12.888012347372916 -0.6608352189263458 0.8343363455737114 -0.15749703790962552
Ni 5.851619419530994 3.894644344473753 3.8212497660419915 0.13231256822419793 -0.6671578187102639 1.6037410234710445
Ni 4.73597983398925 4.642107908968107 8.305971693356481 -1.8019995595687481 0.29180426796634906 -0.7313891178855082
Ni 3.72578822439663 3.608754906948953 6.045532208430567 0.030012487201690245 -0.7733106978199585 0.4094579486267916
Ni 7.262829217129609 0.45724936637005487 0.5287951212587437 0.2007406790896091 -0.6695283758249695 -0.24809165756974694
Ni 2.9464115500004913 7.915380312699182 7.2371389313944094 0.6225121549764311 0.8566344948502794 -0.03455382671546952
Ni 3.9357179569557865 3.2742200419290324 0.4395982113475224 1.5350473176490724 -1.0942046840634123 3.7701304356833525
Ni 8.826525149464171 9.42723486126316 6.754610851565325 -2.5643388459788676 0.3830635177936629 0.4898645720103176
Ni 3.1904655482566655 1.1833864261250948 12.208236163810275 -1.5751279877200421 0.7498097864845409 0.7079887366836968
Ni 7.519648459346496 3.795783383057485 10.047753927627678 0.3436531343168404 -0.7690544936467658 0.138878908587806
Ni 1.093964684406123 3.7331277751455114 6.504223471352807 0.6690396091140091 0.9784479633153664 -1.2255744287583668
Ni 2.0043941472373588 6.665696374999378 9.312880944367356 0.4952271218738116 -0.3793318186653725 -1.0633059376020269
Ni 8.45177140445449 2.850913775129914 1.446426634394452 -0.49076240123423864 -0.38555183143315536 0.6979251818001077
Ni 7.776542026127929 5.683831715069215 5.837243190633754 0.2866162960075064 -0.7716253396977356 0.9402382850148646
Ni 7.553243162521125 1.5278529110824266 11.164069866706788 -0.9252726648439678 -0.29476540747720203 -2.022672201695594
Ni 0.9628004091242068 9.406609794601744 12.725519339077957 2.9924709739763946 -2.5577285397512015 2.8197337220782472
Ni 5.008750985871744 0.5546321980089214 13.52436997844211 -0.4274330450479735 -0.21239086173402774 -0.3517731923208135
Ni 2.727321314861084 4.497435144080021 10.255295983550806 -1.2822127460777015 -0.14843852725178308 -1.1917891047778055
Ni 5.07947080903692 1.4952801706703005 10.898221118954663 0.5545738392632449 -1.2881090569574782 0.14279547003339277
Ni 4.809458956613182 3.7036395041620294 10.513230094235876 1.8661357279270245 0.4952235223293858 0.3034966167026128
Ni 4.669663741273403 6.646446312782056 9.81180688124932 -0.39963633455067954 -0.022064693109523293 -0.3499279115819587
Ni 6.454846875953968 2.5006964269908627 13.379663767499977 0.006185559985421605 0.9423396476285835 -0.33381815050428965
Ni 4.441505909259428 6.808668965473482 5.178163611125903 -1.082521077077897 0.03662690719441434 1.1842287759320445
P 4.521423397287126 9.049452390248247 8.500255176021724 0.03274916940656295 -0.49855001559945755 0.5408582894493653
Ni 8.426612539355792 0.362532928484263 9.047753144891322 0.2883566757373808 -0.3707322499218196 0.5614024321493041
P 5.412621379042179 5.013832927972552 5.95316349772736 1.049801989578321 -0.3240932099070418 0.6085222684552424
Ni 6.732681388796134 7.039288798688032 0.5400590090156353 -0.11252895783936749 -0.20709901720746915 1.2524787093483785
P 4.896520893407829 8.615313318166601 4.189284570416746 0.5653058809687683 1.3389009427983651 -0.6376996613501469
P 9.27549197217267 7.51367462247114 9.591728129401456 -0.2224616157064685 -0.3605607087054565 0.379206863051734
P 2.689796700336105 3.772222496096518 8.214105602521014 -0.7703719269066086 -0.6228212015764177 -0.9913993812697118
Ni 0.867421553556902 0.737926793806092 10.735443819200315 -0.0384323358342693 -0.736153629153687 -1.8423072580488595
Ni 0.5389209141210302 5.289558481295737 10.650131296843659 -1.676304753771384 -0.7584834029991389 -0.15530774356779056
Ni 8.419040724342704 2.91624506736553 5.392122664140491 -1.4080368783640784 1.2899042011846882 0.4703743244961899
Ni 3.3953783727089917 7.361123453741216 2.9459525958144224 -0.4630366531841961 -2.353629228602004 -1.6570237940545847
Ni 2.086662149618813 1.9963856754075664 5.011469406820001 0.9243750927303629 -0.12556419375677086 -0.5863968973111127
Ni 8.963960559879624 7.813704308400749 0.47914445402814326 -0.5244608219279484 0.8718896212371372 -0.46420316268847145
Ni 0.316528810201683 2.5865320084705075 9.64853903936897 -0.7333207876905822 0.7872849006118635 -2.2810246177614006
Ni 7.614728158541505 7.339550748881845 8.14333003593243 1.0741025139968985 -0.26060393110414476 -0.23628669451501888
Ni 5.134015748842851 8.48510597165321 1.9073476342530613 1.5911248773689306 0.4081785676937357 0.6679900848035721
Ni 2.78090932589849 5.737651990370825 6.910807640186213 0.42362961214148326 -1.7459767643462254 0.24532077969282914
Ni 8.854099562910601 7.827677326535328 4.571121446427624 0.219955304344847 -0.17378111978162974 0.5915460456122199
Ni 5.716404455481341 4.8984440415154475 13.185964661723474 0.1461988392879869 0.673962243226607 -2.812050751611692
Ni 2.7627927132904904 -0.05230962852722068 3.7509768193211466 -0.7526619112213553 2.362667684655189 1.5855062456305726
Ni 5.25615888010304 1.808168006266304 2.2707185722025764 0.6814906903931682 -0.15658918138337546 -1.4358377026264304
Ni 2.646530513199975 5.018886998361657 1.6417580934197888 0.5297413536005973 -0.3917381627495254 -0.15328197138701344
Ni 1.27486138393964 8.830575838231908 8.45444523066402 0.04498556357175478 0.552208681465178 0.2567429054868417
Ni 6.371909952491603 0.018798540487705725 7.268725942269249 -0.4615122461198697 -0.25569286695577254 -0.5488230528223969
Ni 8.001494611295874 5.09815414644958 3.1843207648828544 0.3455012432691727 0.35721441794104286 -0.15402013510461862
Ni 3.05329027381712 9.430114938139305 1.2983349395372665 -1.230579338172126 0.19691333492371893 -0.6264438859306695
Ni 0.6244313256307877 6.768580153471679 6.9168316461426365 -0.7830145553712837 0.7399087253207451 0.007940852113631484
Ni 3.625180635713539 0.8599138434807356 6.751891501560012 0.6593802316473741 -0.3429568795807642 -1.5101492688558122
Ni 9.33154198441065 4.767001049116486 8.150508859810483 -0.5620128120397934 0.5890335636030114 1.555922618436185
Ni 1.1744024443856407 6.183394985092159 2.9936132228293135 -0.6836272771201968 -0.9617630464605179 0.33393693547034103
Ni 4.300400723469532 6.712846020633017 0.4478315149850655 -0.7546113216382424 0.31846635063856765 0.3664040548601109
Ni 1.5280480130643592 1.6556818715303576 7.285818734000632 -0.6941670003092562 -0.2132508957414779 1.1721016536512072
P 0.5999311619853747 5.441106268404295 5.053322498172707 -0.4633752674705374 -0.018778051938451532 -0.1109955519139766
Ni 1.2768309849000994 2.9334976569106863 11.505045884301646 0.5183639650015911 0.31240111828109424 2.2194685514254746
P 3.2041412681330628 8.148443565973169 12.438500168172064 0.6558621911917866 -0.23754833483626184 1.4168426495811663
Ni 8.816054676433804 1.6608381381957114 12.856207008089724 -0.010630226020336532 2.9925787031988524 1.3156566275584438
P 8.128756846939144 7.2341306446444245 2.432925430924036 -0.42158532801794496 -2.077320485168093 0.3743528773935424
P 3.430561763450784 3.4257120856141805 12.218407480468345 -1.0046243646004183 0.056632146671747624 -4.184448283505605
P 0.5692787825096964 0.8820718542859043 1.1525101438987229 0.08314561958124389 -0.12039216263752812 0.6814287268069813
Ni 1.129696218811439 3.7845789549522304 3.575227095882415 0.08624148489774824 -0.443467729913333 -0.04594278527870152
