# total energy = -381170.4308282696 ev
CRYSTAL
PRIMVEC
9.24115221664396 0.00000000000000 0.00000000000000

0.00000000000000 9.24115221664396 0.00000000000000

0.00000000000000 0.00000000000000 13.52536037903676

PRIMCOORD
 96 1
Ni 0.037070882436400276 5.8739166694551574 7.129406682810243 0.934740495125087 0.32374353987710697 -0.09593968602211864
Ni 5.971586408074206 1.8144263241499945 4.060218548106107 0.7556431053368663 0.9746208762597924 -0.3464026720375195
Ni 1.5430229223614766 1.8195551636744123 9.984408010168085 1.4544871994068176 -0.858124963352877 0.3855016949215103
Ni 3.2799621845074287 6.444677958728344 6.985443391763139 -2.159737454113429 0.6116122202344757 1.9132257394362924
Ni 4.950429838186467 3.528262705555326 7.3295284563616505 -0.7522009124245368 -1.6856152325390323 1.6629882391681359
Ni 1.4204020725425572 2.48825418498324 12.21538851522377 0.3626787834897238 0.13849967087151632 1.248448505143063
Ni 2.3171450090659054 4.10114945985665 10.217206498239026 0.14337396824468213 -0.8644689032930337 0.4069925178054346
Ni 0.6619770071285362 8.220688812782834 1.6349049272973852 -1.2473161913108326 0.9278005734721441 -0.21746750492598674
Ni 3.9837406199328145 0.3921122571973436 3.5721018079334987 -0.30735867076118034 0.788139792412991 -0.09457314469189519
Ni 4.676882489065219 0.8829495926059676 7.763273028768822 0.2571666232878216 1.1696164253355084 -1.089417289977098
Ni 3.760428174693973 2.165294394533952 5.502089665663308 0.18511814206100377 -0.38209575456375483 -0.08862232642509899
Ni 4.358903679703609 7.9005106091747175 10.427687603514526 0.17719040257349483 0.28918919894100514 -0.6099206914646657
Ni 2.8578355887671 2.52411909704498 7.8340242148641295 -0.3343030605605081 0.6087145869717064 0.5448180454280617
Ni 3.2212069382078816 8.529297093716048 12.675954608055573 -2.908605959730623 -1.1788070906958408 -0.018399071332477993
Ni 3.0179755169087876 9.239997152211323 1.3937746163161473 -0.36896847315317743 1.3007419152301405 -0.7110861446620979
Ni 1.7136977641208875 3.6177909890013797 4.832205928630103 -1.0311501788050885 -0.8504849303091159 2.2820294048768313
Ni 7.934656666909355 5.724108349580676 12.173798709314504 -0.4187036355947757 0.5032003698872753 0.037643778494702906
Ni 7.434950597642022 6.1566220005019865 3.1753763675098674 0.9994019398592142 -0.5208635914949933 -1.8457301676874793
Ni 6.008366194213274 3.488941602534789 0.20346891891310742 2.105919636962025 -2.2086169534229514 1.2767200983942464
Ni 1.1703734560152619 0.9455362206475393 7.793421364020102 -1.3736121210273053 1.0061785964614156 -0.03323510790404599
Ni 6.883392422840439 2.524692048487347 8.94983883183757 0.08799420592279684 1.3801607207791005 0.08555525746400104
Ni 7.78682595362627 0.42011849334635387 5.203449815712058 0.08181044570958813 -0.7726283270409533 0.01598660523624344
Ni 8.900320117258124 5.870053867795325 0.9222374274782379 -0.9102983029223226 0.4050294805417928 0.589320755826127
Ni 7.470307246327469 4.513508157619844 7.407772368738755 -1.2156931650889127 -0.6344040213180107 -0.7327541165538348
P 5.705016128936626 7.58868640724241 3.275950600295627 0.2749280610363007 1.1244567980797344 0.2922629527703225
Ni 1.256075902410669 1.2218189508484762 5.450328123421562 0.19971018094256573 0.753192844024161 0.04894943331550925
P 1.4226476725505455 3.9963363105126013 7.146245910524467 -0.7102569638925832 -0.03280830477927253 -0.7571932234328056
Ni 2.2035342827358275 8.265120273023197 8.200926608597308 1.490728441127039 -1.9186955043016118 -0.6065211788648135
P 6.460803769485298 5.459682017775824 0.6203677947994483 1.261025570477125 1.222406058332714 0.301095720570604
P 2.6608234629633816 5.9878878007247875 9.129375014533855 0.8248330340689666 1.3347588956055334 -0.5120830170888859
P 2.8678714801608254 4.513646774904288 13.080768829084109 0.08348911896359171 0.11588810411958753 -0.4513443044479324
Ni 6.486706719371682 6.430446584192122 5.208034351366226 0.08799960523943554 0.49694204768238937 1.1711218062364412
Ni 8.881255620070963 3.2608884461679724 0.44259482396128913 -2.043211973520159 -0.3930653662013811 -2.2905577540628164
Ni 3.8548819923139277 1.6807160915755772 13.05241882206968 -0.047640227585782464 0.7764027064817209 -0.5136084525944767
Ni 5.396435571460301 5.681488155190378 7.290061343134832 -1.0712030809619166 -0.8868647544897307 -0.00474651354604989
Ni 6.939208982709778 8.037353592377563 11.338228504531402 1.6169055858774606 1.338794242017172 1.2425743057504728
Ni 6.051023353212757 0.6976949848687657 9.860880603308903 -1.1144310384126164 -1.6258183149860579 0.7562028344950783
Ni 8.693715675370898 2.7084523618982455 6.674413928928308 2.2994771680396333 -0.7869293170446577 -0.2666236549356634
Ni 0.24510493058385438 7.93846402165541 12.740578910178467 0.43381169488080773 -1.3429411743060096 -0.6632857373493674
Ni 4.165541809056909 2.5991757359951086 10.201827372587609 0.37952722250563026 -1.2325896837339354 -0.3419037557259014
Ni 5.000101031778802 7.860099050183224 7.510199452559913 0.008865420810429892 0.9265906123244428 0.07856494218909695
Ni 0.28792103740283226 0.3243145433759175 3.5141459213075765 0.04978787005640457 -0.27078807072599814 0.14234732675238065
Ni 5.851072540978831 6.134489440752472 11.043443139202916 0.0843344976830225 -0.776416847549108 -0.76538758631814
Ni 2.061691836140712 6.686408020493609 0.748779150647197 -1.2023817926919873 -1.05387847364054 -2.225457679129374
Ni 4.786870683695167 4.168083125938377 12.112988230744273 -2.2210739482393813 0.8647704936938526 -1.1487951177147828
Ni 2.809578291476091 6.336011248876759 11.403529259002381 0.5053773229339361 -0.4414944082370461 0.4426033250305087
Ni 7.531853320620482 8.58032673669593 2.4503358888812734 0.10620841493797838 0.5068330815438562 0.8578704241399098
Ni 1.6034785406835335 6.182903837632518 5.096085184219015 0.5939119747412351 0.0869038010720955 -0.09521154960684249
Ni 4.113560327390512 7.173093306175528 4.801868149756748 0.1672705723566216 0.7457219895684124 0.31880162249079935
Ni 4.037015862920686 3.4106875248901583 3.3125233846232596 0.9324861518732714 -1.0491399305142899 2.6797587522127846
Ni 9.123013405293117 3.781969300696528 2.6125181116804317 -0.48324552403190324 0.6988446082905836 1.974768693146096
Ni 3.9095988550600143 6.8626737593922496 1.68822175547059 3.0304664793835614 -0.7619819030707006 0.15983262802133763
Ni 5.049809189980322 6.796544073560297 13.06522798326751 -0.7018818524550106 -0.4301247329475238 0.27958150064791204
Ni 6.662445712589436 3.91337848634918 2.4658628729694296 -0.5480599494041272 0.6150410434103666 0.844948573871919
Ni 8.476141985708027 2.3163040642069466 4.333552426609311 0.1112770877101374 0.4299943780172465 -0.8313620934367358
Ni 2.598057556567263 7.785800185721387 3.080860634169528 -2.1309236152055298 -0.1837055779841933 2.17740710347905
P 1.347396969402195 0.47806791116566805 13.313160706454015 0.6979174684906237 0.469852647664765 0.08196008391357497
Ni 6.881839909254669 7.575527006372552 9.202749763766064 -0.18997392749140832 0.2675752202156553 -0.2556350171346436
P 0.9683803491238651 8.466244711598746 6.2027307298841174 -1.0069244734885046 -1.2445846513122822 0.18390946646488326
Ni 9.227845036941758 3.2167434616487935 9.095777881245613 0.9065681464559291 0.6875358681459837 -1.4049965488758578
P 8.969776617916725 7.515043664593606 10.555218277548443 -0.9759719909710483 1.0263285890467293 -0.09195730433560292
P 6.577002018458325 0.7915758510463528 0.15472646112654545 1.0215859321554213 0.7635446195721303 0.7453337529910583
P 6.266249790192381 4.03449302834381 10.523934204679954 1.039238869350494 -0.358656292593892 -0.1728105283382443
Ni 6.396559278721779 2.2963893810085314 11.860618830340336 0.3489454930640313 -1.8242414016860842 -0.780292014233798
Ni 8.820846207510387 0.8106458929248909 11.885613374955998 -0.3342164143839728 0.6139807204666523 1.0005697349150704
Ni 5.173649871902346 9.187230172599746 12.299069921611988 2.242829080528286 0.8714571616854089 -0.5084346217030211
Ni 7.648060810745806 1.8864518651469544 2.071300786298351 -0.2704273449524698 -1.473254709822308 -0.7716585069285162
Ni 0.896976737676443 1.6871202101168772 1.6758866653855577 -0.08559716644553 -0.38469668252171163 -0.2547305030425033
Ni 8.84677688085366 7.402772905346485 4.671713912585927 0.037072222261949055 0.485784488403673 0.04446131563716858
Ni 4.388318267462568 4.539133872937341 1.3507727623360146 -0.4822867596630597 1.2647115039691446 -0.8805485824637158
Ni 5.052165683815865 1.831115845197019 1.7951132399660652 1.5187542369160036 -0.7816606124465505 -0.5041773890885639
Ni 3.010517907005715 2.687705974993168 1.4492557223571334 -1.382489368912277 -0.7293821147578083 -0.38246136543328974
Ni 8.51109202369244 3.4123878969126675 11.352984776518051 -0.24582780123623474 -0.2807392684014391 -0.19594582880412703
Ni 7.95471920854451 5.1408437812506635 9.524355725403952 -2.1357706588851864 0.6004852570833787 0.5493940948345183
Ni 8.541763408163687 0.9910396545542661 9.686822575693837 -0.17400069199160356 -0.8847839607013019 -1.0696732745809514
Ni 2.1640098743647735 4.716397656283976 3.0540261761316825 1.5418196033758995 2.0799178135816243 0.285173907134025
Ni 9.024031423048 8.200690959213754 8.127226570804266 -0.4112487219786272 -0.40468855226260625 0.3437150979030274
Ni 0.757710724341521 5.747349847605739 10.006359443332594 0.017280641457318627 1.0368755113246402 -0.15154801941504223
Ni 3.0823678661090463 8.754365357891178 6.029592196922527 0.20772970881293257 1.2992010531055818 -0.012028134809127672
Ni 5.390299446335591 8.555819200806281 1.2912320180912866 -1.2705450799317861 1.345592752996244 0.48079603405014615
Ni 5.421968875254835 0.037045007209970775 5.3463854906238195 0.08383956032447497 -1.03057296614538 0.9301045390149724
Ni 0.8977409809713427 4.955373854664959 12.22307160924287 0.503643628072281 -0.21663369617078174 0.938581723248048
Ni 8.39906153440502 4.511576756789928 4.879151906410273 -0.09840203151968215 1.3477951599642013 0.30808629295582424
Ni 5.859666812614342 3.94547300827405 5.349036777217613 1.4017649293124375 -0.2963178395659864 -1.7397302692158814
Ni 4.539512760181487 4.971675247315542 9.513779226600896 -0.36105204651957823 -0.16751688403947282 -1.0076004165096069
Ni 1.9399304134853435 8.596544958975848 10.362400710771992 -1.5998540297118125 -0.4175180999271067 2.2576010966311375
Ni 4.9737822300390855 5.611874554942738 3.4166138758577422 0.2749691986868813 -1.596533707089328 -0.0334006869476328
Ni 7.23173765864752 7.751469304940824 0.170753391553929 1.167386764674041 -0.4366224248567254 0.033377804129497354
P 6.676852669019287 2.303477344819754 6.817052038736131 -1.3267033722909087 -0.8095205720816123 -1.1078708686965952
Ni 1.4278874059025184 4.359559801516642 1.1069532760365683 0.6963007588228074 0.18944813689492535 -2.60905161550521
P 3.513495344185921 0.5170406227446362 9.473838966376512 0.08776409218986175 0.8946557112890592 0.4955731923593208
Ni 6.929561219712496 9.278301728479272 7.323509693871103 0.3075363339896252 0.6570664959125329 0.929026218349129
P 7.103840110867443 6.765235049580607 7.320438858963061 2.5333958765431075 0.831476250417097 -0.9773048508498589
P 0.8704971398867729 6.396845754442962 2.881564095518177 -1.4075573676244986 0.1996973254267593 0.24080617965192722
P 2.217571593073829 1.8803064988699492 3.5442397337603095 0.5691643354829101 -0.4607077479407033 -0.1498598330793419
Ni 3.7642540117446197 4.963635444817806 5.542111248027901 -0.2323454504790837 -2.4557878989506414 -1.6470473995681634
