# total energy = -381175.44813288783 ev
CRYSTAL
PRIMVEC
9.13034469225444 0.00000000000000 0.00000000000000

0.00000000000000 9.13034469225444 0.00000000000000

0.00000000000000 0.00000000000000 13.36318236650033

PRIMCOORD
 96 1
Ni 3.7444821885628925 5.191084873362036 4.861405473700363 -1.6522477128221802 0.0902403216444962 -0.4890919555103512
Ni 6.220859931319713 2.3570989195238026 7.64398119560518 -0.5740910833605661 -0.6275098653013387 -2.6731181069678156
Ni 2.468142171832434 8.917361154582107 5.034672938211637 -2.8743370112454243 1.8200085945516589 0.13281496178191318
Ni 0.9324729744308647 4.580867415312781 6.074140770108702 -0.5533939600225307 -0.36761812977287006 -0.3632464830677357
Ni 1.7611521902492877 7.89130214691958 13.481045261159084 -0.6294677603586579 0.5637585910863065 -0.7812664623319254
Ni 2.6721414635880447 1.1564129390233489 1.1061120439716543 -0.9928214584282192 -0.36940170403585415 0.5283053924850192
Ni 9.111673150605153 0.6828393068025543 0.15252332134031507 -0.09950812009966734 0.33770334449130873 -0.5452276221616545
Ni 3.7165889854875047 6.9349441907390545 8.641595527372104 -0.07275270638269406 -0.9483704272036957 -0.15265539354660806
Ni 2.3724105075949735 8.172818065225124 10.371834196517415 -0.46815469113705177 -0.7822151993984399 0.7040729465690585
Ni 0.887178247381211 5.57049634760025 3.5526691678857496 2.82033587443862 -1.8660935618351797 2.1251350335482107
Ni 6.6123873729821625 2.402348907884399 5.113060599646477 -1.7065833501502674 0.6370008355109094 0.684387552324989
Ni 7.307316169209306 5.04130156846785 5.769460254250763 0.39034848149085033 -0.15947935844697697 0.2397985643230193
Ni 4.874435388629622 4.051855243074491 8.583291885186014 -2.5701243423123934 -0.40542003111199215 -0.5845505881309933
Ni 2.8318768442112567 8.896461795551152 7.656903372466914 -1.0552907806070342 0.4892469930309768 -0.3897638126319739
Ni 2.7430203295370585 5.047848025621715 7.510402426494364 -0.6778448661104649 -0.8091953275317095 0.4484250739186083
Ni 5.623014090346447 9.185857201337567 4.54548641654439 0.39150727768564186 -0.5010031051256404 1.329457280886962
Ni 1.992789035428532 8.383820331369874 2.733639813386599 -0.615881794144107 0.28260691773779717 -1.243229937056601
Ni 3.6967852678212147 -0.21032022939524816 12.438864803850008 0.5879886672782647 0.7994685871622489 -0.44088094302276326
Ni 8.97537536484103 4.534138311109889 1.7490800484796387 -0.1051797165631479 -0.22918453625259883 0.06189622328416438
Ni 1.7988970352619402 3.4874082030340476 11.63764783883687 -1.6077576008296053 -0.042642517260874944 1.3673622834628516
Ni 8.336470363727006 3.0107402969925494 6.548226614667477 1.056377843023626 -0.3936065834168318 -0.2609515442515506
Ni -0.0268450395031933 7.69855143984118 4.740442101869175 0.46726894609798886 -0.44428842604241553 0.058489768705776685
Ni 2.980801896703123 4.594088154446386 0.022699863006883605 1.9131380648184921 -0.07067371236647829 0.209802017960929
Ni 7.865591096228813 5.184894499651689 10.812645412831364 1.1787466697715507 -1.3383504696115336 -1.8290575921278047
P 0.7853749039145743 1.3925419137977129 5.2677131173721214 -0.3698948416221888 0.4401263242449258 1.280300616656653
Ni 2.306516809855178 3.680861946654774 2.5327101435209864 0.19558098926554057 0.44300056046892733 -0.6236982048647323
P 8.876941118570734 0.09180652904855417 2.1590087868616092 -0.11054715152264831 -0.6716755040749595 1.2358066480093362
Ni 4.358525261043764 5.2369739858520195 2.403221768838248 -0.5465566253857232 1.5455713571088479 0.8518139335331846
P 2.4800755323625587 6.236573254557927 12.027532731486795 -0.316465518158455 0.9159683567239063 -0.4690586910085599
P 9.193800601231377 4.2695591822331 9.156211885113187 -0.25311225071278987 0.0501550235878362 -0.25234477641914604
P 1.2630644955286208 7.605851050045954 8.53832493751129 0.303081126431749 -1.1414003679126086 0.24723882265114835
Ni 1.8505565256058174 1.9933094650767471 7.185062679671228 -0.48708469527233533 -0.6171326358320726 -1.0430608141997455
Ni 8.334598643062375 8.276383565219927 9.225072944882282 -0.3656975157113896 -2.4745849770524866 -1.6405389090256843
Ni 7.208334102256678 8.053393156476819 3.318411913776019 0.14215397979465194 -0.6109200792634576 -0.3759981263064492
Ni 6.7203080474015024 1.4577508356845936 0.05144584027776783 -0.7798233021274957 0.11171340391660761 -0.25869874366163187
Ni 4.558954588019514 7.631014280054389 2.9334327553363737 -0.45263911199995593 0.8829443363894021 1.061687171051681
Ni 8.497109648476066 1.6298943547626177 8.373997906535667 -1.1428841515469865 0.9708719507403215 0.21337662268606478
Ni 0.44191507498884697 7.181080023310677 11.357087867621997 -0.39569560473537657 -0.6896647415635284 -0.3451235482147798
Ni 6.443530777998128 0.5130267647278515 9.344646678249287 0.9453092717798687 0.42152207888017723 0.18283474534346578
Ni 2.1632799621148555 6.122014819537667 1.4717138718427576 0.14181407995672995 -0.06447735374777927 2.3455153412456187
Ni 5.484634585989466 5.535581909446313 10.113376963765683 1.6991842294727189 -0.09364934732604517 -0.3953094250405514
Ni 6.764964563356241 5.896130091522906 1.918058077048256 0.5850861489194892 1.9232440429042423 0.11904644724291111
Ni 4.052731756166222 7.458532938222261 0.744744869974975 0.5797400541162273 -1.1126304948687677 -0.054978156008092416
Ni 6.351277775093474 8.472211198464091 11.896987062887158 -1.708930253115889 3.359667442830814 3.090098075003265
Ni 3.602751847698982 2.360367582928382 12.809491973447033 0.04241446041046889 0.49148950920825035 0.05389932112161685
Ni 8.6441629803033 3.148069811708395 3.8805882370881974 0.30258953150731116 1.06482391690845 1.6685886160740488
Ni 4.464565084453766 8.71690443657224 9.933013395349272 0.8015678928934389 -1.2725690523403503 0.5960539607849026
Ni 8.446436235360386 2.2948025775979857 1.771464001559711 0.25840975166630337 -1.369336633580403 -0.2535339116312408
Ni 2.0091780041749545 3.290211018084055 9.065048132331903 0.1589610240496617 0.10551293153285055 0.4490346824781493
Ni 9.041889926020803 6.886516842420934 2.1228617521724242 -0.5268056680110411 2.2432324866142914 -1.020292153044662
Ni 5.878207224865954 6.30892210600453 4.380023570687401 -0.20433019621308035 0.07914755416544433 -0.43727805616285337
Ni 8.580424043914007 0.16901546298191022 11.054585852010797 -0.6135498035768208 1.7856244606448344 2.4468458592660056
Ni 1.6477167876278083 6.805841116602889 6.29420581640816 0.41288831446457924 0.39265836057094955 0.32982805550829
Ni 6.448095950350893 4.066116841504526 3.3834774892510224 -0.10139762381289634 -0.39201969854568613 0.8083435210543756
Ni 6.220421674773847 1.5693053872967342 2.5969339012141406 -0.37478610827621905 -0.19296643446082898 0.23244829460553515
Ni 0.14213938030671813 8.743418957597093 7.074081513706595 2.1615423685326514 0.905236572128699 -1.257324210366138
P 6.958975258004004 7.146457756187315 10.728229897821935 1.8817035004582945 -2.935427965019474 -3.4474351345651018
Ni 6.4443799000557425 2.9182042534020236 9.721340961903135 0.6564144641508308 0.10451431506500711 2.310891580524162
P 6.1695473940746455 7.374360290381998 6.1930863357599675 0.46585689624181065 0.8706503495133974 0.6476899397936394
Ni 7.184576945332894 4.56988361063203 8.244335142269053 1.049316308191154 0.4872155644232447 -0.1164447479540059
P 4.724779908561312 0.3927472557151084 1.268564615179231 0.5633150757909847 0.11591844313689069 0.4347527186378384
P 1.2652009961897146 3.105558926759457 0.5378932585333569 0.8104690520378106 -0.3949080758370747 0.5637210529801517
P 7.987563371149961 5.555906056760817 3.72365039408276 -0.9927836632117483 0.44190758451506473 0.7982593973454962
Ni 4.492777849593847 3.015789377614706 4.091953890952229 0.733040280335686 0.5600119795596806 -1.2239950000863888
Ni 1.8748706335566383 5.707981078176091 9.94366394244827 -1.7548226447726296 0.8038039813128092 -1.5238946434663625
Ni 8.421702131553111 7.551854191457461 13.327141431699292 1.0190832203382256 0.013005154010416313 -0.7503515179206238
Ni 3.9550918498853056 7.557505874830183 5.7965746389227695 1.6846014465625374 -1.2066709069856445 0.4662860133594292
Ni 3.7569633697753493 0.9590605382133621 3.468160523360324 -0.14814773548424162 -0.06794345791950879 -2.278916827389778
Ni 1.3376776724621955 1.7098944350724536 3.2306163451566032 -0.4656481226651142 -1.6932724919739741 -0.6125936103111385
Ni 4.009919569842001 1.3090357811209543 5.770195246999558 0.7208810192653327 0.9409697638642505 2.111226650997235
Ni 5.611747244979826 3.6967122250635707 12.05844168741842 0.21159022020960336 0.9418444531597199 0.5276549033852138
Ni 4.85418428407276 5.536933200462729 6.862969683425376 1.95544299623429 0.7326340460362029 -0.39734188208954796
Ni 5.068345649485624 8.977447953089186 7.4871775686669135 0.9192814802575393 -0.3296637620162839 -0.4122763919121932
Ni 8.575749307424777 3.596524952609812 12.844182718155686 -1.2959488647168713 -1.0337199964147938 -0.5300360020228807
Ni 7.1446773389697364 5.7732539124759095 12.790423248529539 -0.6087909487355967 -0.08332482547158553 0.9094218138546403
Ni 1.1153629092272952 0.6843138574724971 9.220221992740234 1.7689647406009665 -0.014644232275736071 0.8388162357219361
Ni 8.660414993879138 6.455290661978848 7.363794655488761 -0.09367968634334835 -0.4572249315984254 0.3525514652477348
Ni 4.489472664810446 3.2448332048975805 1.5721385332588593 -0.3617400737255383 -2.5755552835199773 -0.4267033659708006
Ni 6.784886975503703 8.419209547448501 1.0981987742153732 -1.6573338690958361 0.7711923659253751 0.4712816668018077
Ni 0.7439468778477119 5.442726303791093 13.13846742353191 -0.5260574769911068 1.2066850480530316 -0.9366716507095288
Ni 9.28446492415727 2.43762855982656 10.596535631858341 -1.4134307956861398 0.4399080375865327 -0.9124726848658221
Ni 7.280947733699741 0.4075165013107704 6.757400072767711 -1.8160565518824467 -0.5146574626842814 -0.6420006027183458
Ni 2.4220887131377506 2.9818792773783755 4.967549383040008 -1.2748411362039787 0.4086105130248318 0.4289769924963257
Ni 1.6612844798602229 0.9332581840755402 11.952885772277812 0.11874742794525356 -0.21325449528590368 -0.657476586866758
Ni 7.949718092345548 0.7611995772032774 4.4925012001492695 1.941317612576502 -0.01401508333216941 -0.8670999131579777
Ni 4.343168021249067 1.626926992733321 8.95659241971282 -1.1102432255835137 1.014301482678866 -0.6894166301084643
Ni 3.518807458476358 4.489408752397507 10.729218714153543 2.7544302728847465 -0.37246028835651984 0.09872007698073319
Ni 5.029715161036536 1.4122269369828313 11.355136712958425 2.1623358109682247 0.0610071358109917 -0.7165913907510432
P 5.3034337649635575 5.497727500297192 0.4898758626925148 -1.4694921574560822 -0.8188971282005059 -1.2621943939742455
Ni 6.659299084079165 3.63505500726714 1.1696565040187172 0.4503659996950631 0.47350078594031353 -1.6369442496958906
P 2.4102649167440924 6.924489946051224 4.211366930252417 0.9878679710776858 -0.629190081217239 0.09610706483791837
Ni 4.655918848792221 6.590921932579467 11.866772926187624 -0.6364177093139298 0.24242597464353735 1.0724230694119465
P 7.32537599103684 2.297477768596705 11.51790062892046 -0.013535572592589593 -0.8290792109398302 0.7839512082529402
P 3.0552415970872926 1.956249395917009 10.631614416216978 -0.7320005262172619 0.07984123779835926 -0.3076785159944443
P 4.793230102818655 3.4714209694546683 6.1941691946420425 0.10751916332960193 -0.5771198428845609 0.24112576777487504
Ni 6.201110995721656 6.890862886500765 8.348247595362666 0.8780278729243911 0.9566174977038365 0.2722479431009763
