# total energy = -381166.53996242426 ev
CRYSTAL
PRIMVEC
9.28423924243113 0.00000000000000 0.00000000000000
0.00000000000000 9.28423924243113 0.00000000000000
0.00000000000000 0.00000000000000 13.58842259659123
PRIMCOORD
 96 1
Ni 8.137291934146285 4.358950193084797 9.61391764636026 -0.325377218825788 -0.15760039625670924 -0.0365474601067306
Ni 3.913251017431488 1.2861084865756436 3.070738826384056 0.4626836407201515 -0.9737994087997617 -1.1158739415067298
Ni 2.0425789930343363 0.16052077797307543 9.64797037802841 -0.11029132675810038 -0.038789719173688036 -0.27134522878104883
Ni 6.561877277247499 9.111245738311073 7.662510808365566 0.7093642768749848 -0.2407781546274692 -0.35182924236972957
Ni 7.614979218571068 7.026831964509878 8.894234079944294 0.7573276921281409 -0.6603683065922562 2.100724208804014
Ni 3.826164855959421 8.334851255037982 7.852572177870819 -0.8497521659081494 -1.6847497992149436 2.219791224872216
Ni 5.895389614817301 8.41660826334534 0.6261996358745605 -0.2732802410202326 1.7782718769345052 2.6946194713747014
Ni 1.1520069389954162 6.1487936330708814 4.029796069132859 0.053335221088030724 1.1768350545711346 0.05007866182394601
Ni 6.263918196210928 2.6780944342842776 3.9869650895252797 1.1324986945476045 0.2479512753371407 0.2522403896307978
Ni 5.486836679254581 4.007244652691957 5.849476267874037 0.6674046446137474 3.2609607355865196 0.20904405674898194
Ni 0.5516258432528033 4.375457569960846 6.331484245263482 0.4628003688036739 0.8104865355393075 -0.6962858464244718
Ni 4.740300308486199 3.4489369426575505 11.994636049814837 -0.31438138193591664 0.8902748086125442 1.3700475436044985
Ni 6.425547512316174 6.730841142133443 13.150521943848954 -0.2997651746846386 -3.732611869912604 -0.35253603862876703
Ni 0.3574552695825681 5.687441230526111 8.267155226639947 -0.768582953326986 1.6441739346751103 -0.4547834120364684
Ni 6.354133146213494 1.3274790553943567 13.173567281802683 -0.5566821438554993 0.21812056512895336 -0.4861228455796983
Ni 7.634160456268433 8.386072401396339 12.320187889049167 -1.4611733531777416 2.8775164374146702 -1.140890003935093
Ni 7.490031930608267 2.0062776186893703 8.563600048301668 0.7181556499143698 0.8398007111223924 -0.5756180615280537
Ni 3.2010663308258613 2.098637227892368 13.657044025796061 1.0890745619256985 -0.0765222007274553 -2.489525400412403
Ni 3.283779615746399 8.57214711869092 4.497930608240033 0.2868911469354478 0.43009285126832375 0.08353257060701742
Ni 1.6761857866021779 2.424309762233217 6.303547041800199 1.2284988014940132 -1.5710083091247138 -3.7186533508499826
Ni 9.029869383801193 3.3643296729885797 11.700786172943248 -0.08922550722673665 -0.132728572715694 1.0728699271413782
Ni 6.481057977075395 3.692239708919489 1.3170537834629086 -1.6247888452802792 0.291590095073014 -0.06810543741866981
Ni 1.0107658116527132 7.099416144721884 0.7526073346262271 -0.9189960878066366 0.03976082483770571 -1.722862546926265
Ni 3.0929420838638477 6.033576227541207 8.360426548109102 0.16241684380874608 0.13655463133000353 -0.32649384892873445
P 4.66572930113613 6.2063930515967565 6.169565260902593 -1.6545125975969568 -1.045487164253051 -1.6912379780424485
Ni 5.871547689160556 6.802515466927083 7.684225714875909 -0.857043300252924 -0.5005331074677574 -1.0216309264607437
P 4.981709089999705 0.88258018113965 8.719364510654046 -0.17074053318309304 0.1102033950299844 -0.2011515413747826
Ni 3.4146873851233868 7.293920950994783 13.363234999575909 0.13907379820743146 0.2162914823400146 -0.4545535554138494
P 4.2336686725193315 4.210040284358733 0.808093660364144 0.8136741892386695 -0.7965249311528928 -1.0957170069428808
P 2.193865666934905 1.789954850853639 4.282852856849227 -1.716827653586095 -0.48845509325730074 -1.2263401032797978
P 8.856597632036461 7.777044893907571 2.445969891733679 1.1489056751507183 -1.8244496610421483 1.309668528295809
Ni 2.735294630534747 5.7045892198906 1.433428933591258 -0.19231620247133976 0.022158538374910223 2.1657306955823863
Ni 9.127706693992307 2.186726087172429 4.285924083098157 0.5316051462822136 0.03506727601677831 -0.4949126759571863
Ni 3.370772934828837 7.5952223580580025 10.432864582072044 -0.7198376656024829 -1.052482621734278 0.1695799372160886
Ni 8.548008097387362 8.821540345712524 0.7610662047453317 -0.246190326781976 1.8707829968910492 -0.32388469344066156
Ni 4.771903857915934 1.5111120178416926 10.863916013913574 -0.39002400827189604 -0.8716746770128536 -1.088929551707402
Ni 2.3907843753381606 -0.10215169603717594 0.7955014470587534 0.11751689797226211 0.9023582221396395 -0.7922376166314485
Ni 0.7258353031527887 9.005015476097492 4.341514392312458 0.636824200723729 -0.5713412885295709 1.4069899251568025
Ni 2.338569815410772 4.439175301963276 13.151513500570193 -0.44454785035138916 -0.4030646435059381 -1.3353111685645778
Ni 5.184486153188555 8.737759373311253 11.995981336040563 -0.02659060600433485 -0.6320501763738534 -0.2872601002390924
Ni 2.728999916517896 4.296235158890362 4.549920489584519 -1.5796171338396472 0.41402525628249987 0.4683521518598386
Ni 0.35768459028495186 7.512880442695981 9.970232811398184 0.5508022880359545 -0.5296359383709845 -0.07288768929866156
Ni 4.456453270673246 5.7845543700781175 11.832132158399284 1.44183145831602 0.9106461731800445 2.157438373666607
Ni 2.806356195556837 5.058647578285314 10.568245497781358 2.2040187925293075 -1.1915091116435415 -0.5726245261173687
Ni 1.6197747506635554 4.063887794604653 8.840845063788096 1.0524692519978391 -2.4839746457975025 -0.6679648879925916
Ni 8.328287298091206 0.42188231744176435 6.01283616612197 -0.07315842646154497 0.2427954421678141 0.4790399705909879
Ni 4.370091279840286 4.171835641026372 3.054609318033797 0.12791598181839905 -1.2476465780670578 -0.9150167914439145
Ni 3.3291424073191624 3.8314011667345005 6.900349991846507 0.7806923349960103 1.9062716767159618 0.789037364526596
Ni 7.620391929886442 5.56872366690742 2.1706550695276374 0.16890887929099296 1.016600563125688 1.0367248446793889
Ni 8.823434330460957 7.54168943619788 7.047092030774733 -0.19074474421916182 -0.0005309328028055372 -2.561562568785311
Ni 3.9220060547735094 6.497416806128037 3.726842067534243 -0.5531710453784474 -0.34028087541049784 0.47354449469405535
Ni 0.43070698657600737 2.1515666742199007 9.791029359360051 -0.7917825313719008 -0.41229053297958024 -0.6270172419356362
Ni 2.917339988119426 0.1068030997575923 11.826099259921186 -0.05717362099751444 0.7576308251908564 1.0869683142159732
Ni 5.530110517060691 8.09227265941515 9.629584799610164 -1.2123499596482927 -0.5053163877890137 0.12372045567981273
Ni 2.3581781281004313 2.5380231210509008 10.912181987010037 1.8160202993278725 0.4488469919473754 -0.11968330949596162
Ni 6.275170693833971 7.4694116358716505 3.226624912266848 -1.5041933083826933 0.34280878403867415 -2.5052368976103887
P 4.46189383470551 0.6552063836663707 0.9319194122602261 0.5128085824010007 -0.29328188095314006 0.21977224179976343
Ni 9.160210814601443 -0.004432295680891762 8.494068525860666 -0.6459768137572747 1.7270488170934708 -0.027422872097643092
P 5.525050606825906 0.5099888167758547 4.45552113308137 0.1628847845841001 -0.2502909792139109 0.010990180462916556
Ni 6.217079210643062 7.783144638906201 5.447163269318287 -0.9471129006475107 1.006089636292035 1.5318843465400585
P 8.118593476874992 4.369199992899847 4.25973974395107 0.008258126243734164 -0.08030532191897137 0.2988454910838466
P 1.8595773588364781 6.4286948693246 11.974009256110946 0.4045268298737613 1.959731082086683 1.439692043375514
P 8.516618085453773 1.1240242427612146 11.339294116259607 0.7894852506972919 0.4195677833672839 1.3717151611149085
Ni 1.9961392297418759 9.07754395087572 6.42883227606125 -1.3940960999132699 0.0874812708421203 0.4903065446437426
Ni 7.933660720972848 2.8462691388583736 6.095603299628492 -0.04388924518378248 1.1687520204526838 0.69191934192566
Ni 8.156770267490465 7.0511845233095825 4.47065908471039 2.046103179025025 -1.839633053650806 0.3177806374254527
Ni 7.1713689966844125 4.5207187727744875 12.524964777310627 -0.7777939304022927 0.0008350943067856586 0.31278986907908063
Ni 0.8558090780901079 0.9879080153260363 2.4556997741668054 0.3310449586345266 1.0010716142521534 -1.3619020316792285
Ni 6.474196924481806 4.3809631236658495 8.004857835883795 -0.5825333005906483 -0.5649847501839237 0.031078980792991633
Ni 8.757311980567135 6.407006887107249 12.142355719105856 -0.6331254117159032 -0.3109566725250838 0.9236361576818093
Ni 6.001424908012661 5.257970904579963 3.8930011638294917 2.187978965457625 0.6421903501316488 1.3175875260325696
Ni 5.212765945069569 5.662160247830116 9.709294633226204 0.6229189034965465 -0.41060877440178317 -0.3218463228543941
Ni 4.139517205196492 2.4944986087927936 5.066429627384023 -0.8872774165471171 -1.3309017266429723 -0.05339049980599837
Ni 8.120691714880607 2.174638008042724 0.9099287638526848 2.0922282555178615 0.11911560991794969 -0.11196485780578137
Ni 7.779895155269184 9.123928008734403 3.7394927715451 -0.8097679122057281 2.883569071366653 -0.240089870311193
Ni 7.043292920191112 0.334363510434026 10.136201580794692 0.14659761738830238 0.3245387820848927 0.25333747934971856
Ni 8.999574912065228 5.111512034940106 0.5177365141904005 1.114862212412764 -1.880929855517064 -0.5070544535260428
Ni 7.767259306040667 5.470208607272015 6.248540711216664 -0.7975137774287233 -0.08275481190072845 -0.08432755570448704
Ni 2.2863181185275314 6.342388583925417 6.073725918936298 0.8189662908755444 0.36536430074168685 0.3728474964926095
Ni 2.890415695126996 1.7460775375149409 7.988605775579228 1.3534384742929078 -0.3910290524976427 2.336582814642679
Ni 1.15300963680341 1.636337832973381 12.64754644118568 -1.4850740710547392 -1.2104722830096055 0.23663996408937954
Ni 5.948541882879942 2.06274436006177 6.77124707852391 -0.7938568974024264 -1.2657911101865684 0.8764510153555743
Ni 6.327580222779581 1.177650007010965 2.2201447053194125 -0.5485106637883005 -0.6553492561111101 -0.8263710679800477
Ni 2.71693969010508 3.0422872760822273 1.968446201763317 -1.6451643236128377 0.46327370889566666 1.8612218355651753
Ni 4.227373958502481 0.5242624057574278 6.4134909995989435 1.2114323329300296 0.9418182279074747 -2.1388287289852195
Ni 0.7215134899155555 4.206558694747644 3.043045798405497 -0.7212893104473448 -0.8011416039892978 -0.9753603255289783
Ni 5.0817931860198415 6.022147329377869 1.5823852635121365 1.089322930491079 0.6802179943283317 -0.3976488718070055
Ni 0.6733756393167795 5.260171269214172 10.72463478941594 -1.1200802662785936 -1.5634495229408494 -1.269291152920027
P 6.804669410366478 6.852706062760558 11.01132373277544 -0.4235337099935673 -0.7424415190449277 -0.47054453152546705
Ni 6.777503727161013 2.817478713834399 10.919954751869785 0.41167346822087164 -0.9630789370584639 -0.12986025002896345
P 0.25831630908885544 2.4394152190258667 7.644846615314739 -2.722981824567478 -0.07976821846857875 2.089087138785718
Ni 1.961620429277788 7.928350136286065 2.615703420029647 0.3267319330814695 -0.5203195460660651 1.0137746636411187
P 4.093161000054698 3.855660883144577 9.029900950213667 -0.5580497136269873 0.1417487739364333 -0.12632935405756954
P 0.9803320763323043 3.019466616711402 0.6996166123215396 -1.6190722545114762 0.38897731217493653 0.3738340287755949
P 1.4263654845882783 7.718758441698442 8.109000072754618 1.6992019700845316 -0.3265784382227408 -0.43190187945260455
Ni 0.4970057370101257 8.502589600380821 11.940921156871042 2.5386432409849764 1.570005321781496 1.2452490243691585
