# total energy = -340888.0912282395 ev
CRYSTAL
PRIMVEC
9.10553121565906 0.00000000000000 0.00000000000000
0.00000000000000 9.10553121565906 0.00000000000000
0.00000000000000 0.00000000000000 13.32686533532316
PRIMCOORD
 96 1
Ni 6.439322297173819 2.2812906455025135 10.95600260612025 1.1244128322156763 0.6396115336608791 2.3427449775893328
Ni 4.886592508139131 0.8646603186244621 5.817389941043378 -0.30670741033042664 -1.6526341496273216 -0.05291715971400564
Ni 3.2270366287431207 2.0140068868538368 4.66191079764708 -1.9349088808366803 -0.05415797409964221 0.5609429760143824
Ni 3.644142795404515 4.441668944098446 4.211822576390834 0.1719669493910264 0.09090880846643054 1.746484042999947
Ni 3.6405096885127515 3.0118911409271187 2.3561763540219127 -0.8393402265462062 0.1976610117230209 -1.1261092460814928
Ni 5.241799274674692 4.765643739108322 2.454141852111619 0.035437771982319614 0.9596717111491279 0.17783703501855824
Ni 5.202791179626286 2.7804831746432233 0.44123946617500265 0.7592732458902859 1.860241988150409 0.43305321944822844
Ni 6.15935453376267 8.237801263907258 12.176436965865129 -0.9596647691705924 -0.26597008051206456 -0.4348617334118769
Ni 1.7119399995672253 6.687320541043661 0.6630237966847009 0.4278084261095213 1.373983388323795 -1.4111797948684341
Ni 0.37290427669804593 0.2602852474782271 0.2961164227408287 2.5014926000766082 -0.9963415557663355 0.1098364986088689
Ni 8.122670929221904 8.992021506893852 6.969217766485799 0.19626207449296523 -0.19738307547128586 0.03494154907219143
Ni 8.988989365051854 2.394071753175148 1.327166663136313 -0.5383550634115374 1.113569204632953 -0.2662166493052318
Ni 7.095029799654179 0.9094640841906817 4.967681814967699 0.9548493500598202 0.3039666143604959 -1.9156340917674688
Ni 0.947803833259501 8.224152072852737 2.657683251148516 1.3578430311185068 -3.017617391335035 -0.3416805839715019
Ni 7.787405275701284 4.478200334699334 3.524062694036549 0.39190785555817026 -0.5021634439823287 -0.33759355838632177
Ni 7.919362631780068 4.199780511567885 12.592048004326955 -0.7988723483391468 -0.24351637949423868 0.6014278235023062
Ni 9.01005956391787 7.152740655493768 8.99350206624373 -2.5614052172718407 1.2914687174583306 1.367603195829064
Ni 6.862447219863924 0.874124607605161 0.3873410961890004 0.3927781739782655 1.373973618131782 -1.1986912312142775
Ni 2.1890698269567004 6.620485943084906 9.127943411194877 0.6386049467732356 -0.3615302717075774 0.4172998132687135
Ni 0.05349226330085781 5.186027896950256 1.267648359381899 -0.8947253881847301 -1.593700608515907 0.6959634300880465
Ni 6.635145848086758 2.222405176156564 6.901450762146802 0.45852899512182965 -0.08880204653607288 0.9114573562274302
Ni 3.487600505471694 4.805416698765521 0.2729838210903905 0.6114525547281598 -1.1292555050199586 0.3666665644928782
Ni 6.189803429617449 5.909225595625477 4.845847988318145 -0.09374113570890308 -0.2275716832395242 -1.3235491429326431
Ni 5.395965021001624 3.01389435775967 8.99769971606103 0.3966497411185298 -0.07353123641993142 0.21312542590720715
P 0.44886716954149436 5.706600213012921 12.445879645927432 0.9686001239870093 -0.4850131574552873 0.2704404575785923
P 4.1167107517344075 6.553851666809407 12.504943583682099 1.2372747479144304 0.13445506848849748 -0.12834664159791445
P 2.548638142868589 8.644053637548646 1.1273822062135561 -0.76595939966121 0.9596519136547861 0.7105469843291763
P 6.545365311864235 8.076806369287537 5.671927261300776 0.08573677734718783 -0.7570932075198316 0.7629998028122537
P 4.873462332354864 1.2992409099374433 12.32539161676811 0.23471035116683447 -0.41215349318108374 -0.5197647020038596
P 4.504642796889011 6.307710951275203 8.106158959203047 -0.27737266592205134 -0.24097638668120436 0.41320198905025607
P 4.879098656079178 1.6533459072151016 3.3998696242901127 0.46968269774580396 -2.033264889609776 0.2202306694934207
P 0.562280201069488 5.922565198624057 3.3539185618107044 -0.28319647169268003 0.43724000383606626 -0.0021489280222027505
Ni 0.6820798520808973 0.08332380414996847 4.681474941676259 -0.4652105209070633 0.08224316237163255 1.3221460919375294
Ni 2.064487951034128 6.81861319335528 4.914721314680573 0.5785138950186102 0.4423253887787737 -0.8241018123298968
Ni 6.4160849819162245 5.6017773394841495 9.086403067959504 0.2742734581714373 0.6319311342974859 1.2551863380875286
Ni 8.848618498276355 2.4929669259857787 10.07730884303066 0.2890490738187151 0.1883227650412305 0.3999818908155563
Ni 2.706309518652485 5.491363669886347 6.98720847474832 -0.1999194687398944 -0.4350283408967282 -0.6485170636806251
Ni 0.7923150532699801 0.3974910316582952 9.254881798555013 -0.9992908682026468 -0.706235501438016 -1.15427233877927
Ni 1.7638142099992449 1.280638309987888 11.312802840590797 0.09387663284550284 -0.7457338166429545 -0.055741516536678186
Ni 4.11092873951318 6.949213825306564 1.3798767613193703 0.4594044557482475 1.6040837515224438 0.5747557135277586
Ni 5.974657941801446 8.125621121284388 8.16564994636429 -1.0412926665557294 -0.10728107917686684 -1.2115835137959134
Ni 5.620662210896473 3.2000114125657935 4.825844047138909 -0.7289224015125705 -0.2587252260241931 -0.3691505072569965
Ni 1.1669284381474345 7.8926287925965655 7.180967801770627 -0.243387053005226 -0.8088831956079294 -1.3803101018727713
Ni 5.687779080317996 4.582003388749716 7.064305006208371 -0.9841987497562146 0.3794434045425723 -0.17413824601073236
Ni 1.1657447191100179 7.557490616510744 11.537146735880633 0.5605053742563315 -0.25284099932927423 0.5152868687381641
Ni 5.18520839915512 0.6118088267012114 10.156830177411207 -1.8563079432033256 -1.5233547118024926 -0.15629067630635018
Ni 8.44849414703636 7.101194244179803 4.798617598725221 0.16337869350138315 1.0294902746041625 0.4348370508215285
Ni 7.358225174858239 6.318801488102691 6.932195587760935 1.0774076671107315 0.8089271614719875 -0.11489283008585374
Ni 2.5383579983051785 5.527758477521381 2.4880453864494427 -0.4554737532352736 -0.20026065412939703 0.381728086811691
Ni 2.5405160091656995 5.523169289868627 11.434783266290369 -0.7204107644971334 -0.5604441820010929 -0.19207451877417886
Ni 1.2414116821941121 3.628417543268988 3.4605607204446747 -0.35149988405476884 -0.5053737233895103 -0.24423937370319226
Ni 1.8442069437019486 1.3392232968089544 2.3980363013973878 -1.8908980224733691 1.937432418589483 -0.7856154833292405
Ni 1.645888477279377 3.3169537479315 8.185306966810252 -1.1747398626050025 1.3742181300424205 -0.6420584525394748
Ni 3.938615669789546 3.009824185377168 7.073059974319726 -1.1006419550483237 0.2417546596081256 -0.7814646943856607
Ni 4.502921851519228 6.979398660760688 6.041761152926385 -0.051882033581271934 1.1341020344789823 -0.5476969096377535
Ni 8.255666315841191 7.372438908838296 0.2489552351839385 0.1307285115665297 -0.1362306723316815 0.10876666258345784
P 0.6635592019108555 5.671762451188643 7.777532148376124 -0.42438731624311427 -0.8329404936674493 -0.9429088898684923
P 8.69456201832211 1.8510178809326228 7.8566000273100265 0.5401586922791795 0.40170967213994047 -0.3762328680250746
P 1.9989736550786454 3.2957469660996277 10.307024091091051 0.6001358441637599 -0.20958578818506488 -1.0817556596667823
P 4.200600009363019 6.4614305265803385 3.821345535305786 -0.3402646774605817 0.4102087107498871 -0.771500384084097
P 7.363023789725306 4.150701699170379 10.507526974414208 -0.6709923619650057 0.9141246186469483 -1.5098726181556577
P 6.84112206612831 7.813255878372252 10.05975702136509 -0.1431870490448566 0.9914299773973313 -0.05127782433836975
P 2.5942841700575863 8.934738611013945 5.533887410475882 1.030834961557515 -0.1960121632656882 0.9106554291514253
P 6.947392719095154 4.173265205129752 1.4066907291761743 1.2235692254028798 -0.12022735492488971 -0.9071008790309474
Ni 2.832748922910696 1.7595710325266591 13.486387801431876 -0.16412714163163344 0.22680935115220294 -0.44956972904601283
Ni 1.59060879823202 1.2309403214785033 6.960074902751414 -0.004438238277011711 -0.09027657419907033 -0.7740622312740024
Ni 7.298174197536987 0.7968405022053344 9.193164509050321 0.4209816329956749 -0.1612361932370836 -0.28525258289076033
Ni 2.8806440162707845 1.423877419046358 8.969007277147156 0.3207913992273185 0.31450993709398095 1.7341805430422454
Ni 6.760228528217469 2.290305121248994 2.6869229324789177 0.6371473883911027 -0.20693652348767586 -0.835403096275329
Ni 4.350549894810536 7.1212719401606 10.300160341780247 0.5372705720981069 0.38458921040956995 -0.09969709618202185
Ni 7.953608534085637 6.57477617717851 11.334871916213771 -0.9845394209250851 -1.5981319048143832 -0.4193564386874262
Ni 8.097639824346071 4.116100681153585 7.776145375996135 0.9665285861699612 -0.5297650077496812 0.2977977665456226
Ni 3.3948242495314007 8.71252723109767 12.434964845849345 0.2805217530739943 -0.9545863262064205 -0.9839951183858406
Ni 0.4213466124746632 4.885244889542688 9.98184827653475 -0.33108095407878463 0.16560629728032125 0.39292678374098783
Ni 9.086099853775304 2.53458830844756 5.499210816551314 -0.013351481606241524 0.2397018908441549 0.5427228534619297
Ni 3.829549618788189 3.2227934512705345 11.4037452425762 0.2717638043757062 -1.1450729316681891 0.5281876359602322
Ni 1.1690136047594992 3.3821948779552704 12.258436825799402 -0.9243655796486662 0.76118897485576 1.083169252184857
Ni 3.3749013475785725 8.388725441177879 7.716774581844844 0.9364225108132003 0.3554388140978588 0.32683709120076615
Ni 5.5645084008676395 8.228540938822237 3.6675531157521934 0.16838565979767128 0.15731140426138068 -0.49171396651423055
Ni 3.196578627357285 9.059839502206769 3.288577270945306 2.0099141306989776 -2.0850337946519515 1.6454867399492628
Ni 3.6420667343235076 4.644968136009224 9.352527692504617 0.36563040991888 -0.19968267013873997 -0.38705901210630117
Ni 5.369495242218776 5.030314210343625 11.36585712784781 0.649942740383558 -0.06634346042224058 0.23572979357028434
Ni 8.142612042236845 -0.06034508597439443 2.150662696958059 -1.3922125097373121 1.2781869127477599 1.4639699420862724
Ni 4.595242830906669 0.5662447492917281 1.286888346505448 0.45881207357988724 -1.0310848727847919 0.8434917868207344
Ni 6.104985407821018 6.136672655899556 0.35455207885255957 0.4377436829453622 -0.7129926176561914 -0.24075012960301115
Ni 8.593490623588842 -0.1389604200147618 11.219621388518464 -1.6072752618765478 0.21852397121495915 -0.6853897683372584
Ni 0.31398420633408 4.9998197868335605 5.390637374780144 0.30453482815914007 -0.1789770621602724 1.5305892818777187
Ni 7.545744481447149 6.69322092516863 2.617089883143076 -0.37089397231066445 -0.03562571962340961 -0.6651631568777384
P 8.826956439891632 1.574592169102667 3.5306596512873822 -0.045303094812173594 1.2634856019818435 -0.9867369427970362
P 1.859440497160395 3.5222015234884876 1.0603919036737257 -0.2536480686116019 -0.011197154267400072 1.490978352354316
P 4.654656421053927 1.1834913991402105 7.931630513773232 1.867433363692526 -0.6883902457264789 0.49425987286453577
P 8.70644473635156 1.6073902919701648 12.310838246479625 -0.5832637509987697 2.560149490487868 -0.24250542173122105
P 6.369992783705432 8.146236043597552 1.3847545943066326 -0.9459039679410741 -1.0640513004084835 -0.05916776860940778
P 2.2792236899525626 3.716185757127903 5.68895915714299 -1.5299225948279973 -0.6116145342273208 0.38171703106809746
P 7.284834594538408 4.136105532885926 5.65941352996907 1.508005483039932 0.19681023368695139 0.5886039322647606
P 2.538467264677863 8.453238128717086 10.159348767301587 0.6685431290935647 1.8723709102034591 -0.2534837751195957
