# total energy = -340897.28843448503 ev
CRYSTAL
PRIMVEC
9.01200710425795 0.00000000000000 0.00000000000000

0.00000000000000 9.01200710425795 0.00000000000000

0.00000000000000 0.00000000000000 13.18998334472568

PRIMCOORD
 96 1
Ni 6.480453070362409 1.8730104588692824 11.42687781626571 -0.08689428799039875 0.519431487034157 0.4236051866614511
Ni 4.703744917473722 0.4161816893158061 6.0229152812763465 -1.353020670029199 -0.0854326158432077 0.4642630693921295
Ni 2.796858324580384 1.6687172739287877 4.72790971283741 -0.025613072582413958 -0.590504234611267 -0.023738995488152666
Ni 3.349429529072265 4.152390333916465 4.82472390081124 0.33298254197687166 0.5310472168962145 -0.08070924222560939
Ni 5.140583929058733 4.600935942494625 2.813291719204716 0.38115421658609194 -0.4040293214120526 -0.7839645779893789
Ni 7.317362105286049 5.888535443644131 2.5410498044651857 -0.6083363776966814 0.6524909607267085 -0.8425836731841683
Ni 5.019498604039523 4.660892824554226 11.3543068281158 0.6296708775083995 0.437417152843879 -0.019530870944076042
Ni 5.555055139460529 7.7203159708400815 12.3202092241337 -0.12788949945583783 1.0287562246516153 0.047807863511898314
Ni 1.9549205897936357 6.332313700559953 0.35955384261360956 -1.137870243272163 0.42955754759014414 -0.3437269249775693
Ni 2.5896542614037172 1.462135039229817 0.3835266822298348 1.3574707353807525 -0.8255174617305009 -0.3092093508166739
Ni 0.4561355208088226 -0.008684871071822973 4.825990988984632 -0.1969030505110738 0.01389141327011156 -0.8123878663270783
Ni 8.615803050764084 2.280335147781034 1.295334506691631 0.255305915929999 -0.6376068445260245 -0.20190975969704583
Ni 6.780237480660418 0.7083311273485371 4.800032804243242 0.2968641989877597 -0.3679289761450696 -0.33420227331658575
Ni 0.7614596117624811 7.167447370119737 2.316438148715796 -0.3929003013784266 0.4193178721400069 0.8960878157498955
Ni 7.424460795560559 3.972375495626889 3.9491470477825144 0.786797933673116 -1.0047747741353534 -0.5589197749367664
Ni 7.874195989052572 3.825849275063675 12.646450183155949 -1.0447703406916846 -0.4811313059023778 -1.0012202240148758
Ni 7.952609461290749 8.851890596129392 6.850349993321697 -0.24184336266718992 0.12678906730280745 0.26415591012146117
Ni 6.80682290108366 0.6059177794733649 0.40450753554758 0.11807199914478374 -0.26503342763040805 -0.14421163365462902
Ni 1.8928098380794052 6.424443447335139 9.080103449845264 -0.49823505546220004 0.754838864268016 0.08544547135901413
Ni 9.207116873018512 4.571836172139829 1.4636923140261344 0.03756484562765144 0.9152664455608754 -0.27978487490796977
Ni 6.331601752013027 1.9851378490068996 7.062972075060552 0.019947646766520485 0.6080820955940301 0.05859081306001522
Ni 3.553470377818912 4.512960730911003 0.7259622176929539 0.01920151262911532 -0.837356620457274 -0.7596982492428466
Ni 5.931090140335164 5.636226285817185 4.843677953771973 -0.34465149367436776 -0.48576854756407306 0.8785469786526546
Ni 5.308288365891309 2.9105267679018567 9.531873554500521 0.04365038970009901 0.3486999527121285 -0.6463784200710674
P 0.17175983994798594 5.548782782642029 12.38032922351861 1.326209977594258 0.35041487852070624 0.14715760365683042
P 3.9134189463357547 6.283747995251192 12.594864554327247 0.6426060975128287 -0.6255365436250517 -0.6491256437989015
P 2.3308204105644235 8.28551299703127 1.428238177589838 0.8787680935245253 1.0772009504165643 -0.4558074824256085
P 6.23693963129244 7.84824140911395 5.9314560278162425 0.24124815228535224 -0.8722907133302977 -0.6723475904413194
P 4.688965226119785 1.0416708442241382 12.597159011289875 0.4923446581196939 -0.2112058402869911 0.4184948620180793
P 3.882327522450947 6.129714772921008 8.113633297391207 0.5644507320573247 0.2816944332258568 -0.3733807432882602
P 4.7691360397079725 1.028675530240981 3.7878861958999783 0.10541060162703136 -0.22924110052214713 -0.05565204214666544
P 0.21828883169212002 5.468314572825377 3.4986034772694956 0.44044539814724143 -0.523408469404034 0.8790478295484732
Ni 1.378728915156224 1.0004589365646523 2.4501979602717006 -0.22354842101274403 0.2050897000869242 1.1495677342147492
Ni 1.8164150553920093 6.521701026049588 4.666787578282648 0.1906295587975362 0.20101193047312477 0.5397758550184639
Ni 6.098803589174662 5.652682210458825 9.195291317533979 -1.0959887725470288 0.28967488032817207 -0.09982822244324743
Ni 8.557540426006032 2.482690751233055 10.134642538754944 0.3343948489433661 -0.4556275052043185 0.6046553293006683
Ni 2.1995425057151494 5.068866377964444 7.057181860612439 0.25791301453554294 0.19918310479450213 -0.9204479897618149
Ni 0.7931395196993695 -0.04304134506488173 8.726030709842306 -1.247986992125612 -0.2004249476214032 0.5939286869117836
Ni 1.565376590541225 1.1051694450045313 11.421786933554833 -0.782881115117213 0.8362325341551599 -0.5130754629091422
Ni 4.026871101491072 6.781913713948121 1.6213258331221096 0.7753904631671227 0.903003311922806 0.8617540754650321
Ni 5.522305506301865 7.8564964074555395 8.127878576734604 -0.6223871993627926 0.39194102278895077 -1.0888192513817827
Ni 5.379465196570211 2.8341590212352306 4.888089123889171 -0.35050203891787374 0.2732632717393681 0.0796579181429596
Ni 0.7451028191969954 7.336737920170785 6.846472126742674 0.27066774309805 -0.41062728634454443 -0.3572285590084299
Ni 5.0503376917304825 4.438034905352078 7.1231452452863095 0.052303694499722816 0.5072711975225394 0.30304615942875546
Ni 8.19115728454607 7.264011024301104 8.95954622843175 -0.2977643422045259 -0.1422244280212712 0.5325839652557149
Ni 4.524279811606458 0.325623636548015 10.485601630365963 0.2316193709463366 0.13322453851550603 -0.8534309003113174
Ni 7.995218230023321 6.971111787292369 4.61851205959681 0.44392255806256453 1.0448204772033298 0.5704923102657142
Ni 7.135707081736463 6.117287215374008 6.984504530780836 0.46079876499261285 -0.06501034343311385 -0.20832414786382186
Ni 2.320681902775899 5.080041266549128 2.660234497224308 0.14018631454531985 0.304046832779128 0.26494935255703406
Ni 2.4837091080153693 5.079446474092201 11.47012823989121 -0.17751179046865556 1.4764719312080248 -0.4276572452436377
Ni 1.0267649847732767 3.239933644956203 3.6744791007792768 -0.5758013811834535 0.0699481470543634 0.0840439630257972
Ni 3.7983896899688894 2.6784495656173437 2.5826384140140584 0.27013346786113474 -0.2294082222276307 0.2153813118209194
Ni 0.9528304799758962 3.3355420264037177 8.36604969810054 0.47567619632507757 -0.07018314588330493 -0.9990962356933375
Ni 3.4520041918713615 2.7794831752325844 6.931758155460432 0.4905466856790068 -0.8998228573122955 0.9875830928474153
Ni 4.086900079606059 6.86157084314169 5.957704399180559 -0.2152728112675131 0.6021266493415436 0.5492637399042412
Ni 0.7296102780954379 7.4235595948682445 11.078965684195403 0.3617066493844416 -0.7089670414365662 0.5239651132384525
P 0.1585951002346737 5.533588538969627 7.913475722427738 0.3059587050898602 -0.12456326329608226 0.5084886148694081
P 8.339062342168527 1.6045157366083904 8.045876523339635 0.9935681067862567 0.9494029822332681 -0.29552928222642005
P 1.9292183460488612 3.3176171446336062 10.44216646059854 -1.5077979950148164 -1.5121421309161247 -0.14529612496805944
P 3.9262880922219883 6.047173801512035 3.8917964381250827 -0.34834642602745164 0.8347798608690332 -0.57051982106954
P 7.005970230071045 4.094542261476875 10.459959767067572 -0.3818828672220004 -0.539120223712336 0.3976383302840442
P 6.306764660932873 7.740701130500208 10.08876781871343 -0.35093244158707304 -0.07318593726537075 0.9942553626612681
P 2.3657960094331014 8.532721358939725 5.8113485055481915 0.21779274947588945 -0.054824404039047515 -0.12807256200092137
P 6.990766974391721 3.8834179752886464 1.5779176993754567 -0.5849172274417928 0.26590914536714205 -0.43168642100768884
Ni 5.343462228912296 3.1040686285830543 0.25441616504557435 0.5787218972643581 -0.8792920843487952 0.41285643278537926
Ni 1.3364535906798085 1.216882282823684 6.820685170132822 0.2779251959914117 0.42183781034838314 0.2815771909217022
Ni 6.737241195630152 0.8167383610282848 9.196597157337141 -0.35921962129652973 -0.8171567484706314 0.5975197466971516
Ni 2.482249162893822 1.5630695167689033 9.18921091646294 1.3837983175316877 0.9413497729114885 -0.3016143120782354
Ni 6.536084189098907 1.9156732996433927 2.5857772960253858 -0.9019512165092078 0.5139678928164245 -0.21773387121349597
Ni 4.022121773842581 6.779759844293492 10.262835633634431 0.5405119618535401 0.7819511471037759 0.2642050181918418
Ni 8.241534403246384 7.035367396654304 0.44910164940531755 -0.5360115028800253 0.08637029716612868 -0.49650933102034495
Ni 7.60251101634089 3.9951398251147223 8.305310573840009 -0.16573202422490813 -0.8853825135172494 -0.8256100214443072
Ni 2.9683117562929837 8.332609745211563 12.198689520380794 0.691633435254125 -0.3826829945257926 1.0535411449057792
Ni 0.2499516168158544 4.920168263732754 10.191451526796296 -0.3344210741956112 0.06276731303520802 0.3087627501975586
Ni 8.488301176815602 2.44357864118666 5.753232776502986 0.01153088345773498 -0.22994352590581044 0.31549569804601796
Ni 3.7702361803410227 2.712983576146788 11.5011511725234 -0.5770704777038642 -0.49949823844533975 0.12441105398893412
Ni 1.3498183969468143 3.4553656704536895 12.685202714126113 -0.6396434153400791 -0.544118705368192 0.021848463333659147
Ni 3.0998149613153356 8.432949430293721 7.979425589091224 0.5592635314294304 -0.1860689360100473 -0.5601531331232352
Ni 5.667407829771224 7.5903087589669695 3.606391586073624 -0.5998296257772507 1.1860560589487703 -0.5190026270268546
Ni 2.976665886710727 8.511984731009596 3.6570940382238613 1.0532513815795024 -0.762534433140061 -0.48521113239870634
Ni 3.355891138036151 4.344183865254574 9.25778507954244 0.9185859968524115 -0.3244577923353122 -0.6422890804930422
Ni 7.289785364101263 6.145332580918796 11.320250453953282 0.1835381991683936 -0.5229551839166994 0.5264927647563126
Ni 0.4827434712493719 0.05662874790288888 0.32392577444369675 0.07280824221097783 -0.49933317362238516 -0.29993872414802536
Ni 4.644481959947202 0.5034170151310382 1.6438540480285568 -0.4512450598659067 -1.248514839604624 -0.21842858328767542
Ni 5.8852370491102635 5.614984985499362 0.2795830955791147 0.7692105596086559 -0.22841397663516147 1.0419135879691799
Ni 7.778533535563518 8.60491654640094 11.394258857207433 0.12646793651796281 0.8315006758971293 0.31122329592290915
Ni 0.1128384374838521 4.85474109347081 5.635591840529796 -0.13711924558422192 0.13737944122414406 0.6617176215312991
Ni 8.030635417231233 8.76926851665811 2.5542532958082673 -0.5037963516000614 -0.057318374105494826 -0.026226023576064506
P 8.42255858631135 1.6810547114065564 3.614569982356367 0.6501759394402867 -0.556955452121544 0.06386800229855452
P 1.9711241782414282 3.066434487672052 1.611381083482433 -1.0993481759375647 0.7271725087009993 -0.03667292994100136
P 4.552541465317401 1.3098140982150281 8.290550708901302 0.2689019094468788 -0.7371062228749434 -0.6158463129204813
P 8.579881191168477 1.5383405697718269 12.190275009516665 -0.80634885922185 0.405055962904354 0.9435678636087298
P 6.349878102053139 7.627996971919511 1.4392382332402136 -0.49230686290322306 0.38333888294223656 -0.2114272122691778
P 1.6761702036542183 3.2191429449845357 5.8631846681693585 -0.9071201623046571 0.013474894557983244 0.2243889146361684
P 6.91220029803585 4.066469859911318 6.085752400748582 -0.08817032648934492 -0.3884291529809504 0.08371074805609453
P 2.378818359437028 8.531459677970485 10.097723049992947 0.09208277416987366 -0.7914593437045272 0.2828311179334613
