# total energy = -340890.5474831242 ev
CRYSTAL
PRIMVEC
9.09898829094137 0.00000000000000 0.00000000000000

0.00000000000000 9.09898829094137 0.00000000000000

0.00000000000000 0.00000000000000 13.31728910362339

PRIMCOORD
 96 1
Ni 6.486959933858405 2.0539419281918323 11.518322861299511 0.7211471284425257 0.18074186737017903 -0.5317013055404456
Ni 4.577500841041809 0.2310032954178104 5.794898162186881 0.6355594750786925 0.5239489152885364 0.9752831924341396
Ni 2.780978391129515 1.7830104522718737 4.9571606777726736 -0.1464459223017865 -0.888655013620934 0.10485370068229684
Ni 3.3553429292129198 4.208491370127854 4.581120418591546 -0.34188807199661764 0.6497267677180101 0.245608486136577
Ni 5.065297604343426 4.784084271633114 2.6392334413367724 0.577216259253109 -1.1760935484194197 0.2081354288917835
Ni 7.453672847871035 6.004067525255903 2.672100806910324 0.10831234865485861 1.0925092986388603 0.3235964727762814
Ni 5.17631436071431 4.68048319073492 11.21230477655718 -1.030739059409599 0.10127935306747718 0.8272326446493946
Ni 5.6808441635181035 7.795157879147097 12.350493584665632 0.0698321903017894 0.22325891479678323 1.7815502905754605
Ni 2.0709661353199302 6.570188379930404 0.39362587388795583 -1.7289792013469643 0.3319690131106928 0.3521141206000001
Ni 2.6501440382193495 1.3323466602635574 0.21789711265601877 0.1912851901036641 1.2534446728060735 0.2434397606200324
Ni 0.7031388800401756 -0.004805175726535804 4.555605035572511 -0.9553638278023935 -0.4786926145538982 0.9162226388265575
Ni 8.544978208813138 2.0554523602512997 1.5748228700415061 0.979116450137301 1.5878199813654137 -0.8687227934733813
Ni 7.287106767867315 0.3024230744610311 5.001613785161408 -0.6274396741850357 1.1465297187193737 -0.9703003945075676
Ni 0.7270173550622318 7.612886945320237 2.3383162494410543 -0.4728644379078953 -0.9630887072504768 0.8296409969805711
Ni 7.518111883082788 3.906122889596683 3.9475105478237626 0.12031862908711535 -0.6133672552523695 -0.07472474250740034
Ni 7.597109299590616 4.0596501193521055 12.5176656572908 0.7399650324799772 -1.1393864228063733 1.4386026669660772
Ni 8.151601647204878 8.784891233584146 7.086622389140234 0.1866636321712527 0.81594215933724 1.1449754868583766
Ni 6.948779085534839 0.6940007660803954 0.27160480105490203 -1.121554793941591 -0.8431989381706639 0.7190565644620842
Ni 2.0145433088093285 6.736536084214683 9.396213132486468 0.5385517528033757 -0.19091983634444537 -0.7242774465413913
Ni 0.21358055260173248 4.883272343200937 1.5000728612768082 -0.11098783860449273 -1.0525026763389358 -0.5265557567837641
Ni 6.6935706614146415 1.8265764083003786 7.1868213583093015 0.015054580340277297 0.3749421742381091 -0.7220827528829177
Ni 3.1994499624968853 4.354157073983396 0.6022383788724026 0.518387619150675 -0.0058142926889319215 0.04318759113106755
Ni 6.161179756405483 6.002002054909522 4.978229385204587 -0.5629589780031465 -0.9478880882506386 -0.3434065655236731
Ni 5.426563836205531 3.3916569915583175 8.667557959528429 -0.2817651385627922 -0.3458043763318883 0.44529809825385247
P 0.2545232703004508 5.483396117190085 12.597342768225388 0.08686909117941813 1.559969791922365 -0.03721543270803268
P 4.0695407196451265 6.06951654817007 12.827572649636846 1.4262158632659503 0.6530254930739399 -0.5327235761573729
P 2.395827314953537 8.51046574615313 1.3684050410374424 0.6395146030716986 0.46325339718069247 -0.20909882124631732
P 6.518351443528067 7.78209173193387 6.1140469969594395 -1.0894980226163622 -0.1252793155265004 -0.33762184052109595
P 4.837759203674081 1.1616496395670763 12.595066201350214 0.023728968185823648 -0.8841771803552385 2.289447294607457
P 3.9580690138587413 6.1895322039795895 8.150420598522235 -0.5705465605424174 -0.7826548580390199 0.8137032427043922
P 4.641075472364107 0.8714865419550025 3.7634261856267095 -0.4173072694678813 1.2142554042011218 -1.1330892769437517
P 0.3821675179091137 5.578234872345704 3.6375380427618857 -0.9613840658545442 0.12115783715895907 0.1112089534763633
Ni 1.6973616753094014 1.0858550669443852 2.77741431740847 -0.27752564656014783 0.520151395919317 -1.8471021083343415
Ni 1.8589051137659756 6.224308537300589 5.076457513505699 0.2820764991556239 0.5872047379243887 -1.4735372740597332
Ni 6.0454497240899965 5.756838913883616 9.0274174877978 -0.5049397211758853 -0.8690986887555614 1.6463758274224356
Ni 8.602638497733906 2.4456806719042845 10.267323886224267 0.38776015193838376 0.08818189645357072 1.1337521073387313
Ni 2.1459327000064072 5.210262686099095 7.1261483943590775 0.675679740138346 0.3156430222571597 0.42762562067475385
Ni 0.6550079615765201 -0.045677831215266786 9.101515099100668 1.053228755871683 -0.07014612199778243 0.632885013570323
Ni 1.3191531272139894 1.0795221710805925 11.337154724855827 -0.13503073848630937 0.38056491974152523 0.8665067596586691
Ni 4.094626630415926 6.751694998739222 1.6872335914214884 0.7390620610497336 1.4849524578752102 -0.5038590865171968
Ni 5.413570480898785 7.742511132785166 8.017607215654634 0.9251569652017099 2.1188160333087187 0.42962696737549877
Ni 5.187242245674676 2.7175584426084876 4.799311428569978 0.7989906190845658 0.15092812644285622 0.7159285603560638
Ni 0.8806565023738678 7.385321247685963 6.907638009890962 -0.21801386434776002 -0.42905772513559015 1.4318157259512307
Ni 4.451707327655409 4.605161765504351 6.652438684759074 1.1898738900329635 -0.25905432722883776 0.2686309151736793
Ni 8.279406037007798 7.397049843617613 9.359496894857768 -0.3430322129033899 -1.060823023279173 0.8414464742559316
Ni 4.75811575899624 0.30849391946149446 10.629580088014503 -0.2547042777902581 -0.3268872277124112 -1.6681289028288109
Ni 8.407046645021136 6.981417156602977 5.085420016991096 0.1952706571139734 0.9065105537451162 -1.0211164487181705
Ni 7.533152510759295 6.334406295852157 7.442420129028 0.5853082922326243 -0.5216225811482049 -1.4953296873444764
Ni 2.3982021509024594 5.392233353311724 2.7082974923065217 -0.46809838397781967 0.013923552059627631 0.08188963568695573
Ni 2.408220137031821 5.456372121909245 11.676333162595295 -0.5604048441227252 -1.3523169590939548 -1.4413223798900854
Ni 1.1276558192407409 3.2157462505601795 3.778687918719151 -1.2863419377547265 0.7405049641438473 -1.0007854504703022
Ni 3.657756904685641 2.7759830465472994 2.614183926519213 0.16325013834331883 -0.7946909632679475 -0.1889657979418681
Ni 1.091642023509575 3.383440605114345 8.29264961449307 0.4643168054482003 -0.8589562010049206 0.14807780147825467
Ni 3.320257230289379 2.3622520480894638 7.351849709288623 0.8795067714627627 0.6119953146055074 -0.8543868364666835
Ni 3.963346427078568 7.090040879048318 6.092553366773447 0.23937767473551677 -0.929038045423671 -0.7883210551858617
Ni 0.8902741330175875 7.532315403834771 11.372951964665214 -0.3018133154629189 -0.3285247633158342 0.6063208899285494
P 0.4689454793208626 5.627596883927708 8.408975630542866 -1.9452375164561984 0.12279537276238207 -1.00827096021407
P 8.643602143105737 1.609110587690256 8.333506801701676 -0.49236059895929396 0.592833911185708 -1.5796009358897312
P 2.0288105224794823 3.255144869942683 10.85742603448873 -0.10664884490950664 -0.4353214466571148 -1.2494792604004223
P 4.175916991977886 6.301285978403587 3.911594111267514 -0.7822506806220657 -0.3521112923865226 0.6764505568660996
P 6.980534554736903 3.9916715776877445 10.39371793283913 0.11998207168330305 0.3395349983834088 -1.3299920703445094
P 6.3078554479634406 7.806331436791835 10.32312343203563 0.4283673839367848 -1.29926558779493 -0.8889332069829852
P 2.282754187224583 8.592893481253846 5.880555128238831 1.155033899535643 0.48396234759326967 -0.5537911954609495
P 6.934575564782855 4.1155361055524144 1.5689230860212717 0.20366170939114603 -1.5256357945271855 0.32818074971285416
Ni 5.222273350668357 3.2041541394531796 0.12113392147282429 0.7504854723953269 -0.18762805296705107 0.6154570479018626
Ni 1.198973689614889 1.1519956129701165 7.008250073129306 0.966611889912387 -0.2294421607893597 -0.4291217456043061
Ni 6.98779554740832 0.5466044346482825 9.366981722641613 -0.8496624344078205 0.5082800984030278 -0.8846294374013087
Ni 2.578334822476459 1.5748801936678591 9.369671383586063 0.7856738473710018 0.1495137625938328 0.33925551946977706
Ni 6.315862557676281 1.8972846464577537 2.600933069843292 -0.2437377514764254 0.6534001028045392 0.19166237093742478
Ni 4.162650667021837 6.8583624386979025 10.543591008889237 0.31975498754300413 0.42783722246492767 -0.4052601084953601
Ni 8.371369511857441 7.138720466507069 0.392299241392351 -0.6440153191555296 -0.5446475812884685 -0.20003079750677807
Ni 7.9437261602735445 3.9209451415537493 8.331042795667313 -1.5018916568327103 0.3344897226500175 -0.3711765365480898
Ni 3.2911222697206086 8.372306707653376 12.503749664569416 -0.08901673365004023 -0.17228293796954847 -0.1543132408650052
Ni 0.21256237580983822 4.897848922473632 10.431299484256115 0.04183750486107633 -0.5174049435224315 0.3681961137635272
Ni 8.662728216533456 2.503941494053515 5.8984137125949605 -0.5575905146023816 -0.9205495483366855 -0.8639698521694282
Ni 4.080495901570424 2.584039888146859 11.246091139950048 -1.1455455004292334 0.7802351928539336 -0.6727412263353123
Ni 1.0803774759817368 3.379528040141025 12.765634016412694 -0.9817081221238769 -0.21033860719068936 -0.03910545064189394
Ni 3.075057693310233 8.552248300472865 7.938782679924696 0.05833678806768018 0.6828508039654885 0.6244710784750149
Ni 5.665430477320884 8.055489033685852 3.445782323520632 -0.4876117714203989 -0.30765923272073464 0.6981825492265523
Ni 2.8723049367974562 8.188689123556628 3.5496035999359297 1.2726919510714598 -0.1543842033122567 0.8478726894972494
Ni 3.1091788994729095 4.32775180990764 9.329240029030368 0.990175793275256 0.28477461481307725 0.09320248959661367
Ni 7.256306692437806 6.065749567009711 11.394365523754079 0.5914272606461686 1.040034368668596 -0.24066014099236613
Ni 0.5821159662247338 8.975151079147228 0.06912410429259581 0.5791111622829769 0.24353360588541925 0.6959539170063498
Ni 4.573752057858068 0.32246086651741646 1.436309880896492 0.26852909948849235 -0.4416437893307168 0.13776382114675628
Ni 6.186884398381366 5.839776192329694 0.5119827841285538 -0.8554852117371847 -0.5258109081979396 -1.234690532127022
Ni 7.924199731360184 8.976060977978234 11.403195182010148 0.81198728845455 -0.5114762367428224 0.42703940915398064
Ni -0.24287929496008373 4.822008854909391 5.975667762942583 -0.027783854981487634 0.5220342147643268 0.03282655961171766
Ni 7.822946189445981 8.934405809494839 2.561087690134765 0.7426932300444177 -0.4124031472980446 -0.020727976575970752
P 8.491312375760481 1.5788837485242802 3.6536250540940487 0.16000334927124704 1.189680543075235 1.1423519331926004
P 1.7750306395239626 3.0135303343576956 1.4781388400566091 -0.3659479411592988 -0.38474424793019546 1.4836555934406577
P 5.010276022032573 1.1699570158941492 8.369849980809663 -1.114570135093642 -0.03319448447409767 -0.014248539499214171
P 8.630727074647021 1.6125318072948336 12.59986045829078 -0.32730040399042987 0.8377674827424474 -0.5646232530794469
P 6.465622806271345 7.744540207178306 1.445565371805472 -0.6943325793528429 0.3485073770853482 -1.0013390089809269
P 1.5571189684866478 3.5554296821508524 5.864002248705194 1.4785401265909632 -1.134443219868485 0.8155408101337633
P 6.559597157537509 4.05856733974321 6.105124529022608 0.8845582178437411 -0.6341232568527982 0.5600418043563515
P 2.642064136600028 8.687595751584816 10.354378456880642 -0.7837352355873922 -0.5829652459217444 -0.12106296345230765
