# total energy = -381170.2301096191 ev
CRYSTAL
PRIMVEC
9.25330881851746 0.00000000000000 0.00000000000000
0.00000000000000 9.25330881851746 0.00000000000000
0.00000000000000 0.00000000000000 13.54315279468838
PRIMCOORD
 96 1
Ni 7.550116822505211 8.084541658103777 1.2980161855413577 0.13906839889079275 -0.7117548885943484 -0.7655372245221268
Ni 2.2731955395662866 3.0317632682945246 2.7359470230897815 0.5281745233341096 0.6268537197745785 -1.2831427140911384
Ni 0.8353350271628812 8.46780444514658 0.5094686624255205 -1.9238693351930674 -0.7430855803868299 -0.5942842704789894
Ni 4.738332458490571 5.666698399204501 11.743714409005145 0.8752551952752603 -0.407627323175956 -0.7885108025991646
Ni 3.0451620590822785 6.918948645963296 13.354373981358655 -1.030213268813116 -2.1948093581158976 -0.605400692107125
Ni 7.14534009307185 4.342078026236437 6.554317395696144 -0.7434437350571971 -0.7821977158969432 -0.20825087142372523
Ni 4.944718252503044 5.326093364600611 7.179469071015546 -0.4111114250698146 1.314231207965827 -0.3041141956819537
Ni 3.4528998472532644 7.122206821684153 10.59845091576017 0.44218732053901266 1.3140543160683305 -0.3232141497361982
Ni 4.079700462157182 1.366028928752041 12.875894649284092 -0.18816901307218561 -0.23548476743901378 2.1498441062591165
Ni 0.35034969384324344 7.486398539794938 6.914727286600469 -0.5294456767370495 0.08348757630169493 1.9102820834269356
Ni 6.188659028179377 0.7093484551929189 12.370884230920408 0.4008722638403096 -0.38692557185223037 0.8765317479948389
Ni 2.4597607466537825 4.742838819756893 10.801734075414124 0.21705998507492294 0.5962141405118506 -2.808563050173408
Ni 0.0632130520631643 0.9370825573728151 7.4162029410961114 -0.2923791666332126 -0.933556759229631 0.9305444547658684
Ni 5.800464227676718 5.899854014866818 9.311987485949826 -2.2395372971508913 0.904114542709114 0.7055019657061011
Ni 4.744985587341672 8.526960846739199 8.989403269756952 0.745630972516503 -0.6010570704264487 -0.8573497757497494
Ni 7.063281752805413 0.33163857861401885 8.35236016761342 0.263623691767075 -2.0918603306554813 1.7803074193072952
Ni 8.21591087966023 6.175315757242955 11.348998801963722 0.11372297814746865 -1.3649220494524752 0.5137208098026249
Ni 7.2169607012881585 0.4371374001121816 3.125962874716081 0.34045545331514915 0.3034099705260775 0.06194481713391267
Ni 2.164506177278333 1.9430837568638561 7.116804740149698 -0.6181402511609806 0.3937451658772251 -1.2582932591476266
Ni 3.258339781574181 4.303463969636094 12.821573101411504 0.2024157527991869 -1.267171792584179 0.9346157966217645
Ni 7.998550661701432 8.537722444588756 12.297209388204875 1.0306074189277414 -0.6132479560656858 0.26337378053979804
Ni 0.24440116154930389 1.1097307883934726 12.068817375786711 0.2084717291852797 -0.24087688498886256 1.596655834489489
Ni 1.3132480567538725 6.99542724117102 11.283585313126158 -1.5017340482089234 -1.2735869520819034 0.1105972880342934
Ni 8.069125646051017 4.18120000369784 12.846614405023258 -0.7127920716096111 0.2931044748350114 0.8337305936689124
P 0.3045088032613838 8.794733089706064 2.601450183241713 -0.5504806430304777 -1.1814548127313331 0.44656873743616
Ni 3.0897537530092025 2.1335075936188197 4.8165007078404525 0.6715060683766306 0.21877233978033936 0.3221342864084581
P 2.8989412772949255 4.286373108734864 5.799082708709445 0.22629513051994576 -1.509894986753161 0.7322758913658356
Ni 7.144572068461778 6.51303375957766 5.7247721636961755 0.19870847915092874 0.9357943903108981 1.6867151504714306
P 4.618150486977209 3.644674667057269 10.410756805028955 -0.4257913956794925 0.35106176807608575 -0.4422749951568125
P 1.5145075178268332 5.372452440461554 13.38471095345648 -0.4906317891936453 0.3284725699216601 -0.3078096422556699
P 6.774402713024412 6.62304634498899 13.109094680827475 -0.3039283049233927 0.391949507429383 0.20668609803976662
Ni 4.50303932855203 1.5695184371867756 2.400875467001829 -1.5922674756138062 2.533190445400521 -0.25772455267382066
Ni 1.69650159048812 1.2852938116089798 0.5837792074387905 0.7662604758413964 1.5070564888631013 -0.2863406737486165
Ni 5.617646610554029 3.158098689997013 12.34618159840177 -1.0940627591689094 -0.6970036984271029 -0.9622489849580007
Ni 2.9690073296739814 8.543478002510014 1.3038901858121215 1.0164943765651269 0.6701562392169556 -0.9639127458136689
Ni 5.6231430758357455 0.10877449272666058 1.2659275621340556 0.7396971235305712 -0.783171135553806 -1.7643719790239614
Ni 1.0771406356624855 7.480300609457141 4.889335350139188 -0.05604953469540025 -0.598874203842517 -2.4559653050687706
Ni 5.129932476541499 6.8881073685492185 1.4874582462586272 0.7090341472290757 2.0142181573909697 -1.7221858325742145
Ni 2.223338713071523 8.900933311992702 12.165055486082952 1.1088036649235098 0.37735721143750495 -0.12606504465258933
Ni 0.7966284374769873 3.157506478249488 4.6426199361202585 -0.17016949117097147 -0.26624673121221887 0.21062862762728243
Ni 5.152788148672543 7.646082885529931 6.2491081169771405 -0.45207398352510525 0.6050031995583903 1.321245434500131
Ni 5.555455123755346 2.9622061478859987 3.650326587922711 -0.5376449247183901 -0.23455197121209928 1.0264779701403999
Ni 4.805964890719641 2.9230368927723505 6.319031668404447 0.7048795016307539 0.6058529491531953 -0.24438489814212103
Ni 5.6936440337168905 1.3550174915714976 10.20041799760175 -0.5138205686052828 0.6498134138945454 -0.42233120504503396
Ni 2.8625480147478015 6.422962054102524 6.008933866775797 0.6846338640078402 0.47442689729900867 -0.9659757989902849
Ni 7.98714133225302 8.93307005260449 5.678508396913348 -0.5190705041503125 0.026580321591689708 -0.32537490483294285
Ni 3.261115774140704 5.0857109149567785 1.6767374487453277 -0.9534408997480677 -0.060270771865599426 -0.535959052375535
Ni 5.659258739126218 0.6953556019959289 5.059681357991342 -0.611668784504024 -0.4674676923723562 -0.30839662510739146
Ni 4.93246687197612 4.997600910895319 4.912101265177248 -0.3194706235333659 0.7635780439132269 -0.5010555556301306
Ni 8.0806645218192 2.713810333033467 9.2584237840479 -0.5863359621661902 -0.4694261016503077 -0.9793023408958618
Ni 7.373471162188759 2.2599818149496347 4.800831155133283 1.836099843686567 -0.3710688073256319 1.8237870877574849
Ni 1.312498538760911 5.138084641378524 7.3848647610126275 -0.7259070117250144 -0.3436940148571049 -0.1288006984161975
Ni 4.749094056340127 8.133417633891703 12.637995787656443 -0.6716600774559917 1.1918312708696506 0.8203297468819741
Ni 3.649615933825681 6.786385747603238 3.205352560795234 -0.477000828673772 0.30257719021213697 1.3165940517710488
Ni 4.2362756962176675 0.8201512731548527 6.9680198665617334 0.2008980306030798 -1.6614779731711966 0.26708876749754
Ni 8.063342328204092 1.1412475573320704 0.6338423827143326 -0.6890093673677167 -0.4738936505033581 0.06900223820132632
P 3.8036280014164103 0.24514605288798771 10.615867493122538 -0.07137125265413514 -0.6733678041757177 1.4855402120578802
Ni 3.1190219679689166 6.753786341563696 8.213922343651744 0.2246791921830776 0.0557685131198717 0.7214075811927639
P 3.9475262027564386 3.1426826779442525 0.9354539750671212 0.6272800086787197 -0.7581769275023136 0.4383952004864321
Ni 5.466910214191799 5.016764512912887 2.5818396464209354 -0.3862645412294638 -0.9990921219282792 1.0193483010741542
P 2.244630576056759 8.962782426374847 6.935366791332572 -0.39232745959409204 -0.4267375616428457 -0.24140807490198427
P 4.233046291531945 8.907817773557682 2.9072276151059984 1.3999857259248276 -2.6865238388507606 1.818298810949404
P 0.08578464762156766 2.798968531665856 0.3651873741113121 0.3431088317775962 0.21542502057466123 0.40858145955910924
Ni 0.927551649561084 3.301506465983622 11.761388228345343 -2.3823880459022515 2.425331125122681 0.9140793672313097
Ni 0.2617381604580992 1.5847956496112106 2.6630577862705715 -1.5437476736365479 1.780483282763527 0.15609321558356343
Ni 8.882759813990527 6.441144805413254 0.14218263793391653 0.8488327394176737 -0.3614189429406937 -0.04525835761716722
Ni 3.3713134257231356 1.754251489180366 9.149590995477343 0.7411415692865816 -0.051713883434523836 0.3620020691376733
Ni 6.216150607896517 7.470047943578114 11.165516797286777 0.5577265259596137 0.22784319173335602 -1.9469794388479695
Ni 0.533416224966064 4.6628347139896835 1.700139991411977 0.7587723949944675 -0.9428487260545181 0.0575896254890105
Ni 5.88416965686596 7.245905050448444 4.06160469194687 -1.2268584376771128 1.0230442618685027 -1.710747765940602
Ni 6.22656058002098 2.779925222659504 1.0620124015057875 -0.5966846523903659 -0.8253763081669462 0.20377766614372006
Ni 7.520524741746068 2.259195283722453 11.435377511994526 1.9673688011375987 -0.7210160021813002 0.40592242466970735
Ni 8.586431860822689 7.609587836588701 9.708408477757953 0.09488013440935272 2.43343087141168 -0.7700682796232609
Ni 9.04262922589662 3.1808248158082866 6.892326877250334 0.5581103916615937 -0.08799831968785489 -0.01178953643576034
Ni 6.846032574549276 4.278322730291945 10.74203542994018 -0.13805229892145257 0.9298543706773793 -1.0868580138903539
Ni 7.6029254544290445 5.423271611046047 1.971503443429069 -0.32578139624274216 1.9805351633162278 -0.5351568681892138
Ni 1.1563211969682936 2.784968275822022 9.092926509878607 0.08439697548984175 0.5431293448717291 0.8392648932235804
Ni 8.117566716336853 7.341177115331534 3.4535309228967206 1.171863569498472 -0.17766168578295854 1.024532416378255
Ni 1.063667818406291 0.6019638094112311 5.095543480627404 -0.5268321503736024 0.601407768897648 0.5353381309620845
Ni 8.963365384813818 5.328415945047936 5.252495324346082 1.1785409815186478 -0.5844737121464709 -0.6270311258927072
Ni 7.938718768584293 5.638975486773485 8.748064028008525 0.6746405002405542 -1.7923067577610166 -1.142277114090607
Ni 1.5492629447597084 8.397220207488441 9.045241434901719 0.728969452700422 0.3884471507030794 -0.11877699563160835
Ni 1.3790298272719266 6.867222651140406 2.321418231770224 -0.3967425579426522 -0.184238824779844 -0.028404776394938176
Ni 7.79714314769159 3.3351514958898885 2.688613573837988 1.5008393043087958 -1.9466783626677828 -0.9165612531128989
Ni 5.776886797478378 3.6498750264652235 8.442841794657545 0.38345226859164927 -1.7187004451287755 1.1446371296823512
Ni 2.302621060771437 0.7581911190700461 3.043267906821054 0.2735507210727998 -1.2997445843138777 0.4218182699643574
Ni 2.4680702177362432 1.9243365537312667 11.500344066028877 0.9970527229007475 -0.705084161442392 -1.757944478231063
Ni 3.2519920119053967 8.578298202602774 4.80941730014154 0.42707231927444506 0.5107288170538365 1.3685660739629655
P 6.902385223649704 1.8126398661629124 7.0653952084793925 -0.05097109173122835 2.607680446189296 -2.4761507788777095
Ni 5.631683879632083 4.901884687201585 0.22097641094212228 0.2832962304953379 0.9550794637927551 0.7988597499336565
P 0.6555367646217145 5.3851572331076785 9.448610736103852 1.0642371911670445 -0.09936825208769338 1.1947602715909875
Ni 2.1468045980124675 5.1022558306532595 3.972152032814069 -0.5802398765707814 0.30222957706473114 -0.24399383335128944
P 7.067251422175541 4.447612010307109 4.250450839593193 0.1773302705854688 1.7954620155605465 1.2159590171557897
P 6.772181918971193 7.356250754967757 8.00365108537699 -0.3503811970692933 0.5671722447535458 -0.8005574493510536
P 0.21169071580710083 0.4376796439935092 10.171015609667988 -0.8294111403579524 -0.12437145900025032 -1.7785043046602855
Ni 3.2381953288497742 3.825123437189858 8.051295445796235 0.2913892919161175 1.0136003428467832 0.283652328283176
