# total energy = -381173.0645313096 ev
CRYSTAL
PRIMVEC
9.15905740740810 0.00000000000000 0.00000000000000
0.00000000000000 9.15905740740810 0.00000000000000
0.00000000000000 0.00000000000000 13.40520632744931
PRIMCOORD
 96 1
Ni 5.508449419473918 6.595308957737252 6.664746519085888 0.1620059815235726 -1.743908568963287 -0.574470835297488
Ni 6.236942521520765 0.7384663995753087 8.437169741776769 -0.6508315707464146 -0.7595478397079112 1.3418217159895858
Ni 9.226193221917198 1.6901116903568427 0.47324940823343264 -0.26896978657033677 -0.8297430697760743 -1.600444869218276
Ni 6.7544292607604595 3.707604725977113 5.166916414727319 -1.5685559909294793 -0.6601721314210501 0.2718157406595641
Ni 7.7254358828354235 7.182450327984343 4.818929938184819 -0.6569579953591267 0.07635173658786205 -0.8778597227776431
Ni 7.859918321636423 2.040253293089485 9.4709928426553 1.8661539827594698 0.6670364626410512 -0.6317413868841829
Ni 4.151846483735395 6.743374278561127 12.937538506908565 -0.28896834117945075 0.8892569088709911 0.41011409415355177
Ni 6.3473366395394555 0.510903208829686 5.148283228491757 0.5932170055567397 0.48578088885924725 -0.2240294744142206
Ni 8.778608408232854 1.465760581017439 11.520474801912183 0.5550389518251214 3.1117984427948344 -0.659749956281967
Ni 8.74416119360842 4.860235454939212 4.768674190605913 -1.170181553810359 0.6798541832310098 0.34059197889301346
Ni 3.799845592364422 4.7400319865182965 4.074271099947565 -0.9585972471380265 -0.42082839524726234 1.4398547942056235
Ni 1.3928270074853029 6.0502168196998865 4.2843441548126195 1.661268171153236 1.8240354563228651 0.6723902707537969
Ni 4.789628281969322 6.3330943053887 1.8601468420022083 -0.9032784199610637 -1.372427870911217 -1.1886153350355142
Ni 3.153664938557348 8.035030338760736 10.400134329572907 0.3375434218746768 -0.02328982376587602 0.17545156550551722
Ni 0.15552903664345719 5.388383336912978 10.523556290740173 -0.21724356184063878 1.4937471733487049 0.4975542273450915
Ni 4.3256395966039465 4.2114536288499425 0.4162287809093505 -1.2977751192923328 0.22287222088132586 0.4559918305222727
Ni 0.29334537231318614 6.21811149964684 1.9729781851768582 -1.5542639997868393 -1.6510585776100855 1.0865949900369545
Ni 2.0611908981496962 1.0403956404197414 10.872479738847703 -0.9006679789214102 -0.4990318403318825 -0.5051618644890202
Ni 3.6387011376709144 7.435478445829225 3.534081805299845 -0.289708818889901 -1.5768359715500844 0.9529009680841977
Ni 4.526360338027627 1.0597029332749146 10.722341723349672 -3.2557699354141993 -1.5145908495669336 -2.124932430619102
Ni 2.4602418670334885 3.3466645946504245 12.310201697655684 1.092634254252499 -1.3986649502308752 -0.6665626083284262
Ni 8.863393801952178 3.904561094837474 1.0185357182862305 0.1917330762743601 0.48682115719830343 0.07529424185762516
Ni 8.917148309431784 0.08178946606613362 5.635079798424472 -0.45804639905845634 0.5979144110324088 0.00563251569542901
Ni 2.280724343332639 6.897109055873308 1.5340386057078839 1.1324372451820497 -0.36542934965166746 -0.1075019369384213
P 1.0960369137096733 1.6140457192172735 8.904167177475601 0.23936790454350385 0.6162052389217968 0.4431843943449593
Ni 2.917113964852151 5.491523481524982 11.379853962887495 -0.21007095535159948 0.11843272491831217 -1.7261743849083175
P 5.491303664149021 7.754277754372872 4.585505866652658 0.13822224884041356 -0.2812457757242124 0.5862063785668614
Ni 4.687349088746496 2.2596401933551205 5.0380118418413105 -0.466761410333951 0.25868794502835446 -1.5614852001256267
P 2.9305411429003883 4.928516227346857 2.198266266081293 -0.47714121090637823 -0.5216822307415467 -1.1173669811124887
P 1.4531668771863844 1.1725333605438313 4.884240428299802 0.2306415804140996 1.0932832006904074 -0.46846425195767066
P 0.4014717077365541 3.875636791784041 12.14811935549141 -1.8379731494498797 -0.010921274898194094 1.5646278595196665
Ni 8.814182186909084 0.1533409378469198 8.143609131616289 -0.033438996384735964 1.0722142958352503 -0.32063224794163486
Ni 7.0743368152412405 4.875100604988523 9.386311862189558 0.6555624005631807 0.7694992944936683 -1.2069686407317213
Ni 8.531616109169546 8.75519785769309 12.425500490875486 -0.17898297569754337 -2.636042285161441 0.7124873958849988
Ni 7.070224398499318 5.557221399765093 1.4568781272171794 0.40683439496101553 -1.6355116310144222 1.5759885359481247
Ni 2.073812079152746 8.230099941810773 5.680603976985834 -2.064023768059187 0.09449729714863725 0.015931583628591917
Ni 7.079154479397701 3.470366822972041 11.195920857647042 0.5557825148593655 0.43605395394776514 1.6317899591884606
Ni 2.04377953016218 3.0907147375167385 1.2063330298149153 0.6191293545471273 0.4067683176097705 -0.10496991454518695
Ni 8.689298440191681 8.15560016947492 1.2615319206357272 -0.7208049146117587 0.1170597558301855 0.18087942138930782
Ni 3.3604672940492604 2.8543469449581753 9.97029610537442 0.8010852968300655 0.8188953284282928 -0.1831569045695749
Ni 9.223170732997742 4.2173429027142095 8.26893434489708 -0.6485903401207217 0.21022702131348955 0.4757625853912967
Ni 3.304047500886136 8.835275495943932 1.5577523210453263 2.9037404041082056 1.1639486855267696 1.1661086692925657
Ni 0.9336559862763893 4.157689962313004 3.177154256990164 0.7982128603782769 -1.2109559075142435 -1.985772243345451
Ni 1.0065895598085253 1.3912516496242546 2.5105406621818536 -0.5129232536019941 0.044563645542987765 1.3693515459787384
Ni 7.669648064628186 5.571243916539889 6.798236116072133 0.627922527358725 0.6449506864856054 0.7413619128275039
Ni 3.3327794637356036 6.3947713974602065 5.931335003251931 1.278794978645404 -1.6760178186585846 -0.9293236949848899
Ni 7.728348463066897 8.75180900648037 10.181991229292914 -0.7817452017405568 1.1507054473636182 0.09227894934107979
Ni 4.218533580167327 8.558424669979361 6.367165082756801 1.1691636540688057 1.2478712924833542 -1.2836785319899504
Ni 6.181685928638764 1.2614128528904154 11.844799769744029 4.062066087021243 1.3526864266182315 1.9602946678996367
Ni 8.481699246711912 2.4640795120554606 4.053935244954045 1.6183474605303096 -0.9841956644324211 1.3728585306907322
Ni 2.787403394920956 1.1712510925173967 13.169878146052657 -1.34727656845657 -1.0808046086074226 -0.5585294814768832
Ni 8.711399245533014 6.996045193170073 8.884005344571381 -0.3640396683929924 -0.6234714335659068 -0.578481756229094
Ni 2.437985357717516 3.497752404393752 7.8491903177838305 -1.0391771628746231 -0.6483594550568382 -0.7826885394904326
Ni 6.702488246632525 3.49883317315889 7.41951329299438 0.15686248964942018 -0.29444941889868004 1.1837034995561937
Ni 4.488075478381221 4.650163315979892 8.503605880037815 0.6146108978514835 0.3447502240357611 -1.0795367976385923
Ni 4.514874880133705 2.282253905907029 7.313237087152011 -0.28267710885410025 -1.6076383016429217 1.7468504252004302
P 4.581287204845688 3.732499043804608 11.579376699612192 0.8000470853735383 0.14990302761245153 0.11612927359611613
Ni 6.376563191484834 7.751813967950651 2.5655151560980394 0.6284961404740078 0.9357943903108981 0.9074803738575532
P 4.73940001156241 4.073738042810861 6.35199035656968 0.05886052178163412 2.2521822396084117 -1.5381989759041765
Ni 1.8120095843841189 7.4287373796331115 12.379976312314124 -0.7243160130888107 0.7893757217026212 0.6310921833359583
P 0.19010264625906778 7.092490066872621 6.141729541029327 -0.29597793972806447 0.2772623655964322 0.4657887620080365
P 1.3699018869841177 9.066505057339425 0.9794228798570411 -0.7901539946295423 0.18938591619842224 -1.3295441841738136
P 4.195168824914222 0.28136440941762075 8.28488667505166 -1.3518197077425622 -0.9204629021601503 2.055270961567222
Ni 1.17935685825593 8.300991045557945 3.3443977279608346 0.17976716216173558 -0.430913033176774 -0.23383771875389406
Ni 6.712783027073329 3.1571362212860525 0.2517495134413795 0.09296209145103344 0.05555459733685271 -0.4513031667973518
Ni 1.6207409901267287 8.207815955322804 8.3010533271478 0.3303566743182504 -0.844214781029688 0.592845995370566
Ni 5.977182496537102 5.214608542159089 12.682183072595706 1.2669918153628887 0.38415520819594484 -0.7117569454768774
Ni 2.7728496528209226 2.5144085320930207 3.3624410709042367 1.5510521777177608 0.9443085984294962 0.3479769585031749
Ni 2.3588511023718355 0.9714187796548895 7.238904925565328 -0.12165406006908726 1.0936272142933876 -0.8964878794017915
Ni 3.723431577046249 7.131361106188255 8.216359524001792 -0.13568071336548243 -0.9119340387535327 0.5445750761793202
Ni 8.166105608234352 9.154963233048752 3.286862361614712 -0.8718765086110145 0.8671094262396744 0.3177022187790335
Ni 5.288100818188457 3.4631952810813385 2.6347667885828416 -0.6226911037564566 -0.33429766124386945 -0.48191420681498937
Ni 5.173328670765225 5.626921826059148 10.477040186269791 -0.953909354744054 0.24152814541961629 1.1319970723208375
Ni 7.048966226432497 8.177178908548347 7.126677164268835 0.906596171480387 -0.39322863125212276 -0.9476389483543098
Ni 7.502092269802504 2.085938671059885 2.1628628458714325 -0.5918291240702774 -0.4875842606165731 -0.655549030826742
Ni 1.4623259345180604 5.659363207127944 6.934205069878063 -0.34174717554337913 -0.5945161839841375 0.9851302604315484
Ni 1.125052807336423 3.392395767907483 10.225812739096318 -0.04440526558825256 -1.6263086243589153 -0.9556947287792508
Ni 8.722390114331025 5.872723447669337 12.967083794049087 -1.104934925996723 0.49015382111596223 -0.35845677498857614
Ni 3.2817543553408366 0.3876653447147857 4.0522060149298245 0.80313780848372 0.7579663541534043 0.3551382521383045
Ni 5.608338098733177 8.19872101139245 11.521935671556584 -0.9066365378000191 -0.57709798850769 -0.7513560479257382
Ni 5.934904287894085 5.562652720762777 3.9685709988113578 0.5818465589362689 1.3237702578045136 -0.07710738380696397
Ni 6.850123091761811 0.46925880695402145 0.6633254932262386 -0.7574125385324634 0.2689175931761627 -0.06715464346962627
Ni 7.180142245536762 6.705620644239958 11.115610579339977 1.8163951661687878 -1.3553860849375818 0.10283307070784226
Ni 4.738264288453283 1.9174486523863732 0.5899211441472544 0.7242910733881461 -0.35123968841484665 0.5409719322090941
Ni 5.737077808587215 2.756473258311886 9.472279690210401 -1.398763166371636 0.7259602335604529 0.8343170623000019
Ni 1.851237826935687 3.451114484460858 5.32653222275217 0.21522807407250674 -0.28442803010693596 0.5674373254894743
Ni 8.851844230656935 3.070354153068423 6.283596927756856 0.19955925718699824 -0.8812839179678434 0.9865659644368104
Ni 5.945647862144142 7.323289152573525 9.070498406336036 0.48152802712016424 0.2021956663685808 -0.15656578434460777
P 2.471031236570203 5.190309563058153 9.18627988187722 -0.5866637778192542 0.7326175909759705 0.0678275011669348
Ni 1.7737155656803814 5.277906787378302 -0.020780069274106538 0.12244004630549234 -0.5068073705122432 1.17950977318982
P 7.267199085474342 4.033786234730091 3.1118575054611792 1.5391569689420719 0.8832832077860595 -1.069652705755661
Ni 6.667170921561583 7.337000261399044 0.28789848091803844 -0.9146162135713861 0.7519582002861115 -2.2836995934904025
P 0.6010649692027046 7.98111096824916 10.684780429232466 0.3475056752937112 -0.33221866722765364 -0.8234744631585431
P 7.486787485001274 1.4540003514035669 6.944299266963303 0.544324650731411 0.20486652833252458 -1.351355366511634
P 4.695115969363757 8.984897856514193 13.239530945248587 0.31183367581339844 0.23719686503411405 0.2419950577537058
Ni 5.332742063623046 1.0158585258281814 2.720828038988469 -0.0502252147041393 -0.3970955704066968 0.6707882163739995
