# total energy = -340873.4521309422 ev
CRYSTAL
PRIMVEC
9.21309289198884 0.00000000000000 0.00000000000000
0.00000000000000 9.21309289198884 0.00000000000000
0.00000000000000 0.00000000000000 13.48429272112514
PRIMCOORD
 96 1
Ni 3.0219681020677323 2.420141249273378 9.764164600024426 0.5720514272227181 -0.12156998499571321 0.6871399182591457
Ni 7.789273693537592 8.470047537462097 0.6206796043347469 -0.3043579362616436 -1.2891328702363025 -1.2406395506216055
Ni 9.200949818630054 2.486235976122217 3.5575740086436034 -1.000898579009399 -0.4262799052801369 0.09588543574541551
Ni 2.522489495797458 5.569213177882313 1.6469582432023413 -0.05792078357618412 -2.2392382778532336 -0.7327302052944348
Ni 2.919721199563075 7.484200555797754 2.543205134676691 1.058264261413061 1.7754115246675746 1.4329963765228932
Ni 0.20811178650269926 4.824905846872556 1.7612374447402555 0.715533124689858 0.6007799055056621 -0.5036847657228616
Ni 6.047556949556651 0.7915189031123748 5.668648244502628 0.4831732760330711 0.45988139538466605 -0.6739211055760265
Ni 8.495171641186209 1.1019411624591875 11.433048161174197 -0.22485222742583214 -0.010954442128974683 0.7013501483212566
Ni 8.87892459036863 6.360921870703787 13.225501406515127 -0.4152254472381881 -0.8477433630082368 1.3607239522107275
Ni 6.199241307354154 3.2352880498594816 6.880913427814448 -2.4725417213702126 0.16530856353424433 -1.0728632422731588
Ni 4.520431560156578 8.368731157317592 6.164748409689062 -1.967295267587186 -0.0011343707147593366 -0.2234293789363765
Ni 8.703304617802061 6.286268180760082 5.198599020163389 0.7836431900942182 0.18552566191206757 -0.6893526096397482
Ni 6.473625633394315 7.271359688825093 4.722725278635157 -0.40970374608901056 0.4221396578595181 1.08244317265211
Ni 4.216850943430054 -0.23780558419350042 12.609148270500455 1.4098255948333849 2.816866942053413 0.42657146837862664
Ni 1.4636379677781954 2.2964462670218437 5.369405151807388 1.8653240306590069 0.8017309008338644 -0.8627172107092497
Ni 4.474485866987473 2.455639295349288 4.7747073901247745 -3.1292960853589658 -0.6370008355109094 1.7632468642805827
Ni 0.9572126896311407 4.4479613731767955 4.647037879693342 0.8418650498505889 1.2855544088564248 -1.1244490847702504
Ni 0.7152731907544685 8.458991826252367 11.996786246232494 -0.8455347853926922 -2.8532984454075696 0.9756207782792164
Ni 1.0753061115364118 8.719372251426869 3.934163778271385 1.4746122522914669 -0.9742951174892576 0.8543662676413931
Ni 5.7581644955492814 4.689298335792538 4.76729085052158 1.0996217413139255 0.21189129638978993 -0.7304702056156646
Ni 0.6430305671637521 5.8948222991942245 11.050983971879063 -0.09146056720484248 0.2896010896674432 -0.20778524464121634
Ni 5.094121627922169 5.274661391977067 1.8254628350853825 -0.2548215200944127 0.1746421822303444 0.8037795558327769
Ni 5.924783276572594 1.919151695804441 12.271191762385808 -0.2856986692892434 1.2542391436829108 1.7687158578149538
Ni 6.61923856311914 3.9829489466028556 13.363432459567724 -0.41721856640881694 1.1664012608323202 -0.08892545948781459
P 6.442909182416614 7.594702389339011 6.8135187335891985 0.07652451472030047 1.1624823853938884 2.0979186210344194
P 4.191459660018373 8.849037317731659 1.5462840156172681 0.12582027563163495 0.6353059643069898 -1.677312883320924
P 7.295092615555315 6.105571794129712 1.3897185613206697 -0.251938799229979 0.6325566836966267 -0.6754789369814496
P 3.704814891844061 2.2685950878659975 12.331412221345209 -0.9239452042817959 -1.2002194949333458 -1.685226738851362
P 0.25012164648114016 0.8538998323040116 13.653924956840461 -1.6533941677217976 0.4592802714655574 -0.2607867365389121
P 5.8096380443232505 4.518487597602201 8.625119549436114 0.9372496347001859 1.7454244913871813 -0.6383594064213328
P 6.46746207439489 -0.09307526874691857 12.429847667410312 0.2806418235916263 -1.6327420386890847 0.09920035905126141
P 3.237996699105866 3.7729641383593746 6.343469509249959 0.37019771757458825 -0.7264374303071875 0.19300114435350632
Ni 8.345090361514117 2.5967562358488228 1.2818802328716912 0.07884467821304486 -0.18718196656856795 -1.0333590135309494
Ni 6.893245152359635 7.394520311701491 9.200561947428447 0.17397600940125524 0.5999162719537863 -0.9512559762816069
Ni 6.25555172978238 0.8363498120678319 10.361046785980227 1.3513085724340985 -2.152879550651331 -0.9186284200545727
Ni 4.352016226061684 1.6829464258085491 0.919393865510455 -0.029767461070419703 -0.39866908554140373 -0.9961803475981232
Ni 3.9058445740076606 1.2847657734974307 7.0868177573122715 -0.4394737782625915 1.0669980417416334 -0.2733221500017616
Ni -0.3336972953710978 0.34581343354769495 2.366142391797252 -1.1123463879694455 2.0401323061535703 0.3330007968093168
Ni 6.551301217735346 1.0038217254728294 1.5669287136829049 -0.34015206314211743 0.25956083455161105 1.055904245821317
Ni 0.7642822372379363 7.80599545674231 1.4485773251827399 0.5397812543351026 -1.7526526337045043 -0.002162811979273695
Ni 0.6858428875141659 0.8197045175323152 6.703244463437009 2.297434940798624 -1.4854623076320932 2.247645785190639
Ni 1.8986894169737647 6.957137950059203 9.067485272906188 -0.6169292615720149 -0.07065545753403316 1.644337713946484
Ni 1.8739061976786189 0.9281822346129234 11.439196979225342 2.1357590889209606 2.6750220088587477 0.32191188598500686
Ni 7.409242833795782 4.390278199940027 2.7768335026514483 -0.22955323244592726 0.6140791937177296 1.0199411974631467
Ni 2.1828119819711636 0.33636448570044525 0.6539508459111634 1.279226152645552 -0.32500055221265967 -0.8947837522264912
Ni 1.9535994493154263 3.7965957210701737 11.80788467926597 1.0395296611180356 -0.37375355324664666 -1.8531930517234279
Ni 1.74649833907915 2.9927441721033445 7.7394170425280455 0.20393090389213264 -0.5776970555442695 -0.06777813598623811
Ni 3.6741445063297338 8.996677127844935 9.086215490314007 -1.6242298874530154 -1.767160854623008 1.0061438865687382
Ni 4.599221928711258 6.015900763126123 6.376613610147465 -0.2527764646399259 -1.4034736844734281 0.040292528971459636
Ni 4.7848473199226325 9.346406125779408 3.591999650732169 -0.605790471346376 1.2340274446217265 1.0940864133179933
Ni 4.500264100291496 7.003120495599007 8.534222255797513 0.5705776708906689 -1.5588259081259088 -0.038900790830255584
Ni 5.422964544762927 3.1614727513491814 10.205680876349884 0.2581068757139039 0.5904414996941314 0.5346364769093696
Ni 3.404265382607538 4.50907181688858 4.392306001637745 -0.27879345752897794 0.9465842818375503 -0.7959328060948485
Ni 1.4656003565179223 0.5846379857910254 9.108302037383245 -0.8247196484195539 -1.7492423224713747 -0.4908637026987933
Ni 2.5054268481637743 1.1598638761055005 2.8257550247545056 -0.3791646969598889 -0.11991805121458703 0.975747533665068
Ni 8.628945746823948 8.884544576900241 5.47649721974971 -3.06635393730879 -1.2770219459053813 -1.5320638095407164
P 7.098199612002689 9.573969514846361 3.8470825476186756 0.5141321863084307 -0.7253166864391831 -1.013891134614325
P 2.855340107951744 0.6130483996722305 5.11344608980751 0.20899726267144653 -0.32505685937189177 -1.0315558988839395
P 1.6408333791921508 5.457707117239504 13.10670502563877 -0.13467721180163256 -0.19825365100169728 0.3762830045367197
P 8.70334147017276 1.2811634542615935 8.386380678954659 -0.9857594093751152 0.43780230409743953 -0.08652559179707034
P 4.810238603334314 1.3772928632302 9.034003972816787 1.1555540337051713 2.8660408326749023 -0.9671217396692698
P -0.20728813601757434 7.807211584975381 9.836562003572077 0.33524177032469354 -0.28588661693033346 0.26212550995499373
P 5.837093060494082 3.2772076215297097 1.8412393349816678 0.06656020441873699 -2.085270336142789 -0.5059025993097869
P 7.738675388567725 3.124242643850414 11.011920458938015 -1.0968999715073884 0.02267687277222546 -0.6515954454956326
Ni 0.2125156448012419 7.393764838102159 7.229670444471735 0.6593882020671741 0.582378777290655 0.16676457925448054
Ni 8.05205873590021 2.1164500754347566 6.255727699852469 0.5215050817337341 -0.24346161499690328 -0.39928589318979624
Ni 7.077507005855144 5.618226830912118 6.724859300161301 -0.05675324563064419 -0.9812689777039294 1.295966605328684
Ni 6.593230002498249 0.38214894974774166 7.800514587910086 0.6726941751474608 0.20327064460031444 1.5906337966651252
Ni 3.141802798488536 5.452400375858834 10.476729141532509 1.4916614944642697 1.2088434891569309 1.7023004065041973
Ni 3.660886865970732 3.1568754181044683 2.450527871533322 1.6327170989884203 1.6427050634390676 0.5530766858924282
Ni 6.921934722948886 5.35168284673819 10.700042530948586 -0.149937994615445 -1.397471701253722 -0.5302090372656353
Ni 2.993628629000123 7.258949652992171 -0.34825029656017303 -1.46812021680922 -1.8931472235188622 0.9167926523974146
Ni 8.632686262449907 5.792216086075251 8.827424323625904 0.8088145471535232 -0.7084091120505671 0.35234166322977384
Ni 1.8851738100198692 5.453865257594123 6.9192352867951765 1.35517036938235 1.1728629572972642 0.37363091162585327
Ni 1.5218370742047516 2.814774860904708 0.3254552626642437 0.2977252614364744 -0.743023616800643 1.685734531725716
Ni 8.015952625707767 7.3306090878165735 3.11179667695606 2.093261581878382 0.08902676095236926 -1.0220569582545687
Ni 9.851375735283849 2.5873680944132262 9.811966731367498 -1.8452725113247703 0.6923746842955236 1.42391601148818
Ni 7.674773377775484 7.3821563413319415 11.63647232612397 -0.46840794479843845 1.3597998977345611 -0.7276121673415791
Ni 6.411962404122042 2.485443650152186 3.9919307906514945 3.077546977811132 0.06519957662578449 -1.7638284478156656
Ni 2.7141310365254614 6.752229555879523 4.983524899526362 -1.3237031520120042 1.0434122840018933 0.14815416324214487
Ni 8.94286345353157 3.8559648902664265 12.565553758581952 -0.45469753719088146 0.4560365677172791 0.42500720921530033
Ni 5.538229547217043 6.86084270542245 13.46490177705063 0.718812052551446 0.2181699303096501 -0.4726566927724634
Ni 3.8284638086322222 3.972786905382579 13.498990219947299 0.49907554908562435 1.526639296091035 0.024461475476474002
Ni 5.195732827032266 7.493828237642895 10.89530850233485 -0.7593228681812988 -0.17200860126223927 0.27649103464804636
Ni 7.816811627542497 3.435700454813871 8.484775587411994 -0.38629565157771534 -0.4224965269783046 1.9916173892723186
Ni -0.013288043564828572 4.348773217440163 6.918952444850062 -1.151545169656094 -0.3729174304985965 -1.1808066376243729
Ni 3.6698512051432886 4.446993998445944 8.484653974588687 0.48293544899065216 -0.08049301244974523 -1.355574289688988
Ni 5.69337802786026 7.586898899843476 2.4435830422750766 0.6384306259789004 -0.4766871540880952 -1.4216112746144034
P 2.6037950386523514 7.851176463219409 7.366293238364514 0.08099926266220243 0.0004759111951540191 -1.9148442488763215
P 1.0609613262417865 6.4182641595115895 3.4099885557771086 -0.5850828064853796 0.5194245450556215 -0.12570406176874482
P 1.5179122967252974 4.540294987963394 9.417065940048598 -0.7140889360441637 0.17770436609543588 -0.49963245003035883
P 8.108534993996585 3.909106008814531 4.977632205451576 -1.263696946661701 0.34928025069563073 0.32112204309385983
P 2.848061764738672 8.12519226555258 11.089832819760788 0.018852871040444953 -0.1326069595361652 -0.8520435330454874
P 4.603266476395484 6.570178844625961 3.9955036279907725 -0.7811607899919967 -1.3994311389729384 -0.1099776521724235
P 5.0173489266632645 5.43435192730895 11.806428089314085 -0.0748988061914194 -0.2519624533790628 0.6294088820962643
P 1.6511704691732487 3.3209698117348934 2.52455599248441 -1.1464240463794448 0.14890081160018226 0.43655557617453206
