# total energy = -381172.42840493855 ev
CRYSTAL
PRIMVEC
9.16402779056945 0.00000000000000 0.00000000000000

0.00000000000000 9.16402779056945 0.00000000000000

0.00000000000000 0.00000000000000 13.41248098562291

PRIMCOORD
 96 1
Ni 0.38761088779842984 3.3225832651795897 10.540104736455625 0.9128318679774537 0.2356341485326845 -1.2958174813453296
Ni 6.8639027121418295 7.655720542253263 9.265167603440101 0.30482484859573306 -1.5959338687217999 0.8860689980613128
Ni 5.525835507372882 7.6345333097641985 4.509074699386739 -0.45647082704122033 0.10679128402464189 -0.3708924296487677
Ni 3.7118345139709015 8.053411860734206 6.217824999629807 0.25661743565257095 0.2539627716385433 0.5839170683120525
Ni 6.414113895088077 7.419288622608856 6.560004302744937 0.6086155994999969 -0.7472916480483776 0.5149032601465003
Ni 3.169993036730015 2.7291849670115935 11.005624523790832 0.8518542998528168 1.2681644955147515 -1.2088638008719053
Ni 3.025164739905976 0.3720292911716319 0.5367526925517955 -0.9414847558274559 -0.541583340540848 0.22752488916198882
Ni 2.514316004999872 4.983599976932589 10.136482459122204 0.3090291164850678 -0.8907306652030401 -0.2676742076873648
Ni 2.0545109054588595 5.983422912163742 7.302358375900067 0.2920544363039422 0.07145789883067047 -1.5047733492558795
Ni 7.366412181665126 0.8474828847430629 9.337460786683932 0.4892449361484477 1.2823567278547334 0.8826594581591315
Ni 8.766758119996219 6.790260583992121 7.54480189784241 0.27069293990903054 -2.580342163385659 1.1503964007636316
Ni 7.542178236656588 1.9747746987601777 3.8655977379908046 0.631775582556228 -0.399665388016402 -0.04883321945261912
Ni 0.7398073898036112 8.034552291330012 11.898278734825029 0.4895483263214794 -0.2612839878903049 -1.1231882157799558
Ni 5.272065246954552 1.8787540144952903 9.38220506927524 -0.6178440600768005 -0.08694571005362445 0.2229976907155966
Ni 0.46476375503402007 6.096378719975252 10.512984712308507 0.5141337289703274 0.36882012050077123 1.1536537313586648
Ni 7.02856196532674 1.3013652730567042 13.706214058164504 -0.33607197953547285 -0.8557443789358423 -0.47582609163938044
Ni 3.695522544321016 0.31209288313898537 8.253652285020022 -2.1387803922457875 0.5907495178528536 -0.34182302308663715
Ni 8.224375965109635 6.628524655705139 5.334989128080379 0.8907712886329885 -0.5059812750665221 -0.9342391300086362
Ni 2.522178740932233 1.1920567483466855 6.267035829416259 -0.3692250692486738 0.18081514381027572 -0.3368124572459232
Ni 8.664414256485028 7.190224581390577 2.925195276021911 -0.7878793396627528 -1.4677934295974204 -0.20669406845956662
Ni 4.367621514035762 5.811624881250033 3.2672939356915816 0.36366608710365755 -0.6031887720574709 -0.47315985766112706
Ni 6.846335270670576 9.005985068148052 11.647089981064209 1.356786050608902 0.7483871951054014 -0.8814415265916303
Ni 1.3528304537048823 3.3152153867534615 6.852893049030945 -0.21004421587872213 1.0851896250489956 2.084647614957126
Ni 0.9701039927735249 1.0809062540301344 3.4967813549985265 0.0065447430970532435 -0.6902514673049338 -0.35908926636625255
P 7.751118072621414 5.6118215810947225 1.607405315772235 -1.0643068680627155 0.3886572098313565 0.5995989978236835
Ni 4.452920285665613 5.834589935150377 5.96330970374376 2.0266278439092322 0.24206370620811213 0.6026100167358655
P 5.2645599081100265 2.952164093708792 12.35848796799613 1.2070689137550115 -1.1310843306985812 -1.5046152264114603
Ni 7.822679966439366 8.838155061312094 4.74085587487535 0.5510614552346123 0.5833115735175696 0.12961136724295097
P 0.7375457077195708 5.074974499055627 8.63574642802675 -0.8928870494244107 -1.4565235131105558 0.8340717790584152
P 2.5422937821577936 0.2270607847208269 10.081866685684348 -0.35629190612677347 1.3646214874929208 0.37159202681895354
P 1.5467871040643348 8.646782666818522 1.9917400635988478 -0.3325487968735628 -0.4123401552705931 0.3968729128729294
Ni 4.246839626403465 4.703675580907082 12.414565403882953 -3.817410708826555 1.4938039947285693 -0.1318579971852826
Ni 4.855926740324609 8.723338955838265 10.12451882070764 0.6120369664767202 -0.11947993523590392 -0.5669583289705267
Ni 3.9358949959594964 4.668971407275556 7.9523133886137005 1.1764115938804707 0.8352107777588648 -0.2937721903259973
Ni 8.414309607223975 8.904465967147246 7.550060217047525 -1.142099193751846 1.271098895552727 -2.5562694387071714
Ni 3.1285533025969916 4.8706258410652925 1.304956655588047 0.6618896283327892 -0.52149274043856 -1.2983762432114414
Ni 8.221150227291231 0.0965906867998442 2.2067822257377507 -0.6536659548714162 0.031090550757217426 -0.2370405419619079
Ni 8.69187884808093 2.2418786197631055 1.6805571684296567 0.17673068932825692 1.6946554883644296 0.4627386623278031
Ni 0.699195167389343 3.0129215986406686 4.7355315746694036 -0.5908299933818019 -0.6511089927775174 -0.9454383411585652
Ni 6.430251748207992 5.190038033282572 4.536972749501989 -0.14796390160820969 1.5225584411534425 1.0920457287388805
Ni -0.11992413462149495 8.324236377061771 9.603765604454573 1.5458657484208151 0.36098314095485573 1.2255173502681862
Ni 0.10875226821690206 0.5036494745932105 -0.09822738218156866 -0.8184019337316422 -0.16133646626037376 1.8972555892602807
Ni 8.186931747138043 4.332944832487916 6.086932440022948 -0.022533405215825707 -0.28717293984192477 0.024504927119899732
Ni 6.219048397353548 5.2471757471966365 11.821827832126056 1.6093498850173897 0.10196455205995988 -0.12119974614048803
Ni 4.551726834410031 1.005797881417516 11.874351457995896 0.7928634231409055 0.26891296519047236 1.0142217784808663
Ni 0.5460550972661767 4.626056264651728 1.3718018242493726 1.1939274912770472 -0.5683996894027437 0.3265833233187472
Ni 3.6159971102638777 0.3873423817811592 4.294542057198697 0.5748449308074551 1.5093481131107556 2.26182079113944
Ni 6.554259373658694 3.879215483440091 2.7047344241897626 1.6120127765615335 1.3691139760466355 -0.6900614627813147
Ni 1.8390187895504007 1.3348964511179013 12.096488410529712 -0.18075446577566934 -0.46069180710110336 -1.0669800440195045
Ni 6.908705644511654 3.5694805046780247 0.06254632317662821 0.26985681716098037 0.7000077753607492 1.0498377279122628
Ni 0.3963845281033738 7.273663055358108 0.6002502418237372 3.0820530932116017 0.2466796077135687 1.785037734903429
Ni 2.635913491114664 6.400541969778257 4.7800201808824925 -0.10397901138682737 -0.6943045543283849 -0.26016530090482937
Ni 8.591990944045115 5.457856748461169 13.002622906594794 -1.143310697561444 -0.6647610363433132 -2.1785273331264223
Ni 5.242016399492768 9.065477937230666 0.8518458784230125 0.39286919103017504 0.45437383530287556 0.22034868312852374
Ni 5.183128356251103 4.11731525616106 9.933940947432408 -0.32449250222798953 0.4368466250523896 0.40665570329130607
Ni 2.2164759344431717 4.130016598821027 3.2461690185921905 -1.0265437903813288 -0.37174963544274037 -0.04274073340163607
P 4.442904003178351 6.922717443160348 8.141053874296347 0.25156341816843125 0.09851464583814647 0.05857127267598945
Ni 2.234629873699589 7.394344138683582 9.202893451891901 1.126611639639208 -0.5787272965809969 2.047693920550912
P 9.437757406363783 1.3174206499255803 6.113904923320986 0.6726664072333189 -0.6158861650194812 -0.07115348021637423
Ni 8.706211387705887 4.780772547572524 3.570858774473161 -0.0279427491568551 0.07283729567670037 0.2208644464226777
P 4.36778646653784 3.5925371988573005 3.053860976850724 -2.046018846841334 3.041124987538672 3.4186742603823252
P 7.592873638961738 6.784753003228312 11.430934389536283 0.5370132046716622 1.7517838579463056 -0.14385605008742322
P 2.284912894749545 6.387116668914727 12.200717314578533 -0.20115591225015678 -0.7312546491901728 -0.0937475634668063
Ni 6.346904914519392 5.558633563202624 8.191498182237224 -0.9737374452135745 -0.31391549804309166 -1.2428589268704273
Ni 6.056414394333033 7.465823556250495 2.2838232918330443 0.8574078826811943 -0.6072408306396574 -0.07726344976885403
Ni 4.394600412153326 6.457010709656119 10.627540559390166 -0.34305483861120917 -1.077468345145338 -1.648930218413173
Ni 7.659102068545852 5.127071997628436 9.994604979279774 -0.1491916033677237 0.38099866484483413 0.10537537751372175
Ni 3.1887151457158107 1.715826762582193 2.5298215401951567 -1.825462418577379 0.17843327384166047 0.012279845808617561
Ni 3.6768279274189 8.09551140487554 2.8161250160371156 -0.4378642676836265 -0.587961156474439 -1.0330566517991824
Ni 1.6203192638793242 8.408288840898146 7.398270924635815 -1.408580152462058 1.1730354783193864 -1.547093193070013
Ni 7.169962915718724 2.928484245632778 10.788061337578512 -0.8893589816664942 -0.7415917694501228 1.0939390891068514
Ni 5.781007864058871 0.6122505363498748 5.700948167175559 -0.16973137519228831 -1.7068191203101575 -2.9959692169376404
Ni 3.04399681722649 2.73973276311666 8.359208140307778 -0.7451098099057103 -1.3730657616055322 1.3982255487006114
Ni 1.1547041706540264 7.954880232826584 4.348715208089314 -0.20267594843910902 1.7371437394356275 0.27009618686529613
Ni 4.822890419769644 2.0807658453728606 6.90639539307978 -1.151134821591553 1.563994596811042 1.6019857313428345
Ni 5.1939785652766455 2.3848007987853603 1.848641935241044 3.421320696866237 -4.3681924280372195 -3.297913915772101
Ni 0.39446283145417105 1.6025043936549548 8.482012528896105 0.9300466891938434 -0.020658813900932164 -0.056727277488715214
Ni 1.9009859461641792 6.4579362764733315 2.4411522391061897 -0.4506452214983787 0.5938785504001385 0.48494116656677133
Ni 7.428012777163176 1.7806897520102205 6.762532984795683 0.3141049883460784 0.548495751389965 0.20228771186175484
Ni 8.911897993768628 2.828312256732274 12.67982460607098 0.8359653965367023 -0.19862594673945147 1.0651095664696688
Ni 7.8814397132905265 3.4227827461637736 8.551878161151027 0.5158872213263245 -0.24666289554302037 -1.044357678634298
Ni 1.6285760530110922 4.367090000417957 12.489206411073017 0.5644628162421828 -0.18263702751036287 0.16112229336703865
Ni 5.639836014364216 5.50887289174258 0.7635761289501887 0.30138342701435195 0.5427719615323103 0.9173734646015491
Ni 5.7949738425680986 -0.0730904536705373 7.858601122975108 0.6508734797279435 0.8459039958066529 0.1811514441037719
Ni 3.776715831454715 7.082684714063944 0.8163545147954612 -0.36534244636481594 -0.3516567213476073 -1.6493310533960173
Ni 3.2661878375248734 8.212270284262726 11.756281206217196 -1.9733286182654597 0.08022741749318442 1.0059705942156674
Ni 5.712625887919857 3.007038292733238 4.920985839949551 -0.5390094091660846 -0.01688237757763544 -0.28753315139482094
Ni 7.4870199527674535 7.664224760138147 0.2103932507886855 -1.9573324999475192 0.31903893531258604 -0.17288971831561192
P 1.595273975647225 2.6544064994031302 1.2919006650486136 -0.1389041053987866 0.5139378109094375 -0.06750765593367083
Ni 5.39391016182246 7.6047777111949975 12.331864634160823 -0.6953178260842477 -1.4540488263178184 1.4589040975275909
P 8.518898657569 1.0908675523500364 11.347736929502343 0.9612711944257638 0.9432554745746335 -0.8268510929402599
Ni 3.589228984787858 2.7739878993814195 0.2498251464103103 -1.5904610185326866 -0.8185163478223193 -0.48362604729977354
P 1.0980979703577665 5.0804545877357565 5.4337846799913265 -0.3682665619901464 0.03788751907439281 -0.5125743549030075
P 6.067062994744924 0.396089446405213 3.2720683942239357 -0.062478835260511754 -0.37440429945676806 0.014861490492864728
P 6.297648264593474 3.710551550065854 6.95785874092238 -0.8758550336427884 0.6602145546232114 0.3198310921965782
Ni 3.3175705419220125 3.9802947111020215 5.279193027849878 0.08874085428083427 -1.0577114742333849 0.5294191943744881
