# total energy = -340887.4731963502 ev
CRYSTAL
PRIMVEC
9.08288965875827 0.00000000000000 0.00000000000000

0.00000000000000 9.08288965875827 0.00000000000000

0.00000000000000 0.00000000000000 13.29372712815439

PRIMCOORD
 96 1
Ni 6.787970442650605 2.469129062445688 11.43309737715557 0.4571822512859481 -1.519404726015809 0.5471330667144836
Ni 4.878992269722757 0.777534413120464 5.796504004006303 -0.30935127571117693 -1.6481627441195292 0.9446765232918763
Ni 2.7000433668061183 1.7785297113291179 4.297264067478698 1.13567683516527 0.7282192047979587 1.5223972329852298
Ni 3.9907855707060365 5.106010014410033 4.876365498027008 -0.17504970208140821 -1.805816105101361 0.6820717597076189
Ni 3.9519562173197 2.8611465810782715 2.408118384169346 2.211066443404708 -0.6595465820219093 1.0171214686261645
Ni 5.156056736552422 4.920464744006269 2.7505787484133464 1.1641199209973112 -0.029981891074070947 -0.3178513427623881
Ni 5.872451494363073 2.8546704807357077 0.38743792565541557 -1.4182346448326866 -0.3256029616833489 -0.3460661146337073
Ni 5.842259969063381 7.9387725652351335 12.515592536182998 -0.35689868647283696 0.13745965964277615 -0.5070565104085719
Ni 2.1640983782881804 6.593169707661888 0.08741463857905103 -0.42941228026153144 -0.5500803222682655 0.9751258409206691
Ni 0.5082321838121947 0.1661051616194877 0.4965661203058997 1.3115914563501347 -0.6435892873617045 -1.3199390569838816
Ni 8.29680191068136 -0.01551720873104506 6.9127112163737845 0.30541311699903534 0.5664289388296181 -0.3864383478031667
Ni 8.689346236915442 2.330787569714157 1.231000405312014 -0.8055078513777933 0.3486616432750253 -0.1950361725056641
Ni 6.940481243284518 1.0315982784108955 4.808553551957523 -0.0677529391752575 -0.5500078171591172 -0.4631207282575701
Ni 0.7568962711872631 7.276321089240026 2.1612672415746084 0.5917000546915809 0.21355711412798706 0.6175226721816397
Ni 7.620099380776742 3.92635155130892 3.918087029988165 0.9254158752900515 -0.41899674135516224 -0.22046232588825257
Ni 7.758286464383695 4.059588460039721 13.01768286999289 1.4034500303243442 0.2876066849452337 -0.9551861645739486
Ni 8.298736566183416 7.441357194744059 8.947595497770886 -0.6399383208726785 1.1453421261691756 0.9568874635357715
Ni 7.195646863093256 0.7580924877582527 -0.10376293171590892 -0.6502808404492672 -0.6597080473004381 0.880721360596154
Ni 2.260004610430012 6.682808745923819 9.175197272264649 -0.8659076926220893 0.24813382366159203 -0.20356323614006877
Ni 0.48919989677459697 4.571145889764135 1.3896330735909312 0.2861151880013718 1.0560466849364523 0.04462560912917476
Ni 6.720629898555563 2.448038592606373 6.907513986898308 -2.026583363824542 -0.7922137053720486 1.4756319518052328
Ni 3.98222040573684 4.490780481866519 0.2890002921594854 -0.4091095641484373 -0.3921791069416859 0.6383774041434618
Ni 6.16816313370786 6.334870490913199 4.728193593793715 0.013800910438834297 -0.7184865508912271 0.07738763405154413
Ni 5.5289366066271075 3.100353563717467 9.548738376708112 -1.4655018053497664 -1.1530245824150982 -1.953838627861648
P 0.47128934661260463 5.41166741795553 12.383292981667278 0.25890700301769604 0.4016438518990115 0.1647686318703743
P 4.289948708129609 6.197927763192545 12.378959535000465 -0.1963608048543586 0.689182145500155 0.48645914587319444
P 2.4990753497239933 8.65556697019175 1.3162687570594414 -0.3105936327587102 -0.05896388012871781 -1.0834433317818501
P 6.603724025471227 8.27109733288409 5.897788215128263 -1.0820960737253364 -0.9357087725756272 -0.22808076166545885
P 4.8865492339373615 1.2383248475507842 12.317422957411594 0.4778027557497771 -0.5208900738575546 -0.02465507954451883
P 4.176176431985223 6.569572360270612 8.040830638557916 0.7212751693799578 -0.40764943466314313 0.5571426284316856
P 4.772940449807233 1.1684410943450592 3.680355108633166 0.24133582690315208 0.5126939112000074 -0.7679232082558001
P 0.3470481318218806 5.765019075216035 3.7463586513671614 -0.2596629073471141 -0.37272536909244836 -1.2267558506609777
Ni 1.0156850556897583 0.1345239541986005 4.463009546666817 -2.2201264967244474 -0.7476572589179123 0.7103778057411637
Ni 2.239459113971557 6.565257987672131 4.408612120367223 -1.4972783264304148 1.1762483288297292 1.5854147143580308
Ni 6.141277780252057 5.862160580354484 8.834093891738993 0.37084897800534194 0.16032473716640777 1.5443616530714628
Ni 9.000026478454542 2.8776320258493127 10.018697988271418 1.0183887653743624 -0.9636772327640952 0.8598982532032158
Ni 2.6144825460109624 5.689503930408081 6.799129680912699 0.038090893334450523 -0.40632403098350023 -0.05584024689807157
Ni 1.0285191788090318 0.2086512334632955 8.615079989438629 -1.0609438651277534 0.02095654764700907 1.0042047605644964
Ni 1.8835551647106876 1.2175795275193473 11.360486940467606 -1.0808313480803 0.7352097771831789 -0.9327031529800839
Ni 4.196049794607283 7.16721741839168 1.4170316103137113 0.6178792841901101 -0.541787229021538 0.13880100416201901
Ni 5.816691634611326 8.260915413551672 8.099442525669502 -0.16878726611146416 -0.12941879161617065 0.02630572777406437
Ni 5.434574465731048 3.1640246203813787 4.993057014914873 0.1841056416360894 0.15980948809288606 -1.435085140731122
Ni 0.9336029816424308 7.457252251685834 6.269614469999951 0.24016237542034125 0.5395071747381095 0.3958591268964344
Ni 4.990729978578597 4.6245169495297755 7.133294642011029 0.7502784985908434 -0.25250752724925546 -0.8966449738049461
Ni 0.8621669625902203 7.573613151389311 11.481100449119731 0.49306199590169275 -0.15660615066423994 -0.7379156061501162
Ni 4.574079663131102 0.33174527928730746 10.090949650816983 -0.0869621651138567 1.1159947833553103 1.2843629596514847
Ni 8.282323784529824 7.456434791614543 4.617389605997084 0.1935091943381764 0.8671176537697906 -0.7728977786522561
Ni 7.440494320224363 6.464683150234258 6.9092688011846795 0.6122238856765456 -0.4806232559177078 -0.5977382904658609
Ni 2.7970486285993528 5.404719007349554 2.5445125053532673 -0.4965324709487965 -1.0267075696527028 -1.5487273862393263
Ni 2.484515477565327 5.388969276642675 11.198197500803111 -0.007365182115819573 0.48280715094290405 1.1286836916768883
Ni 1.2468809296302998 3.7414784147415525 3.6285099743339355 -0.03316723078058804 -0.5139825481044439 0.25005160950959515
Ni 1.3319331086033188 1.3118871710773201 2.449635364612295 0.9117268078387329 0.6451987979406695 -0.7253328843890992
Ni 1.3152387573696143 4.164722908097463 8.16793205530919 0.9410785215279727 -1.6228438057387662 0.46021229636152355
Ni 3.8198546697990263 2.5408748080360213 6.532285281552111 -0.1906547556085168 1.1116005109423566 1.916352200880416
Ni 4.311593234239466 7.452847050190542 6.011064565496067 0.3449751955623736 -0.35431292802353176 -0.8018890236782835
Ni 8.576563995746286 7.147861780481439 0.016955030167549647 -0.23647592770768952 0.40636671129597757 2.2985330589588093
P 0.5463167402446881 6.1518775125098015 7.878673809082765 -0.6730811261732343 -0.6303069684305015 -0.09398976138459943
P 8.706467483964154 2.0798364107174097 7.986073529826952 2.9435009718355953 0.5902334974483835 -1.861545537453181
P 2.1363138187539574 3.4876752283849664 10.378293223898652 -1.275349443298965 -0.3185828216117739 -1.441927360463936
P 4.281029310462853 6.827944240136749 3.6718998466291093 1.0512700894834153 -0.4841071007012502 -0.9926152559546843
P 7.231705935126883 4.067790309421677 10.134765510638196 2.147122850673212 2.5080396571665067 -0.6020847403600147
P 6.541351822031701 8.072372789553174 10.412683769097876 0.42075460458653346 -0.6497074844443004 -0.9338838035517465
P 2.6015121795464733 8.901295467621914 5.832849187064882 0.12046723884983768 0.5005405636669251 -0.49262927923964833
P 7.005587396518028 4.038434409972639 1.7953712053756548 0.00806400795505708 0.012910023193448734 -0.6257571442762901
Ni 2.8286207531305587 1.516379349355679 0.14467408341713414 0.03532412922259078 0.33713230247918713 1.0270053033987796
Ni 1.5823029626604819 1.5953459922424185 6.803424071153882 0.3054987347343061 0.23382666301030056 0.021094615886770123
Ni 7.338511634885933 1.0338780837208301 8.919465788428784 -2.591438016188505 -1.176332146792787 1.5163222304357433
Ni 3.1168935058265945 2.2466709283782826 8.956050759774941 0.22101279907508387 -1.078946472352761 -0.43270509208019026
Ni 6.490196987348226 1.9748927033429688 2.5515844432589057 -0.11746316191619124 -0.08456718251911886 0.1967500698729773
Ni 4.346716768635949 7.130295471838357 10.375168709848381 0.6410981455087346 -1.1143798734597066 -0.4153645439192137
Ni 7.570897367374687 6.186310747290527 11.5993351489644 -1.1922781285990822 -0.12441671041588896 -2.065212131940333
Ni 8.010291238583441 4.209001995292408 8.006771618832047 -0.301149713736991 0.6800693845656094 0.28442160234903274
Ni 3.401260615959795 8.347520766660145 12.339343603367753 -0.27282695553289793 0.9735268718646654 -0.26602715900224505
Ni 0.12491334862711913 5.503577178637715 10.086482685671859 0.2864494314123389 -1.1391156856434896 -0.17536543354961412
Ni 8.652769440169997 2.4089185867502434 5.756210488803387 1.7026400492318032 1.2162608646669246 -0.8009564845616851
Ni 3.7875468312036573 3.0137391277193135 11.570395245862752 1.2718702265011126 -0.35426870504915764 0.10941278080788898
Ni 1.3572834537030303 3.36038761239523 12.515512606753806 -0.6878055768676026 0.14634847749197374 0.1962924135102684
Ni 3.1857054780499605 8.637428439498764 7.847154365311709 0.8364783316173787 0.5889708286858759 0.9749756884960498
Ni 6.163549025749905 8.367748361979764 3.1564358660528913 -2.3236424524319275 -0.3957506263430281 0.9518349887135285
Ni 3.0026398365291143 8.59861725189179 3.4331715322761025 1.9083442429742747 0.31823520846436804 -0.574108823972379
Ni 3.7405247113250457 4.673609968255659 9.205267995131583 -0.003588745792522851 0.13941909736199215 0.09514110138022323
Ni 5.618284992419246 4.741559065959328 11.198356451372529 -1.6523022202091993 0.9568059595655587 1.8248001024030316
Ni 8.12157480295523 0.07127434361588837 2.296730366566226 1.007183383576846 -0.1631933169634544 0.20580061011101974
Ni 4.711594612901662 0.39139988213427407 1.049804022487521 1.1278059170576253 0.34522999188565706 0.9609400363385903
Ni 6.239400237476056 5.763338740625047 0.2729453763593243 -0.8230031799490795 -0.04746667812239567 1.0823495844970392
Ni 8.386168462252861 9.280079215989257 10.75203324362613 0.36197275856163463 -0.6209666648661821 0.2708502914225013
Ni 0.4323301079038294 4.962409528553194 5.777812325331743 -0.43196667125226895 -0.08019862113777801 0.35158678734162035
Ni 7.604631219649974 5.967104287728925 2.5221395314909927 -0.21538979646135165 1.0494412638047927 -0.1318795944518374
P 8.593730657243404 1.676665103556541 3.6856322675378355 0.9983580719757323 1.0485169522183104 -0.952144035313515
P 2.3334216077216516 3.2973160264502654 1.3808590021590714 -3.0960602061239713 0.9711367743659339 -0.760533086439316
P 5.216176383351056 1.3551580575176727 8.317951419303602 -1.078485987776575 0.5399614886667088 -1.8089505369652845
P 8.905482679764862 1.5685605505731068 12.234283635005395 0.6023912158568399 1.8815232661266887 0.6539171516502739
P 6.830333040122856 7.722545293488904 1.2493460258897269 -0.5834897509666468 0.11185430036984606 -0.9479927321493029
P 2.164389030757973 3.5158957666238777 5.716489195650374 -0.6061799934753108 0.7662872153142738 -0.20151226714831103
P 7.131576159283381 4.394692591931068 5.9751054052489305 -1.0856369969990594 0.9210336870619558 -0.006518774955124257
P 2.295255305282029 8.613331533175032 10.224870501140764 1.3397149540592281 -0.7719261587676061 -0.6270694353298104
