# total energy = -381168.4997875159 ev
CRYSTAL
PRIMVEC
9.22383106971400 0.00000000000000 0.00000000000000

0.00000000000000 9.22383106971400 0.00000000000000

0.00000000000000 0.00000000000000 13.50000912965698

PRIMCOORD
 96 1
Ni 7.113335659295712 4.168461498067141 2.9562591361624975 0.8552278443107401 0.11814578980551264 -1.4901633126521883
Ni 6.335674445102054 2.872614667076121 6.355548111951795 -0.4814087279334805 -0.24734115255696756 -1.5859165936951138
Ni 0.8828313383098497 0.34917827885940633 1.4143822866143467 -0.0683304089452823 0.3135612000274664 3.1500762553291106
Ni 3.019310479560239 8.394092302332506 12.031829307376752 -0.994272846162765 -1.1703967551449586 2.528112259546665
Ni 3.539857397162173 1.2821494415582406 1.7766823878354172 0.7912742242769147 -0.567080713481004 0.8401452389460048
Ni 8.507711455890062 6.375447605529086 2.3844258719449822 0.31479610087583204 -0.3580929638912543 -0.5272293858120211
Ni 2.7929392125843076 7.212039877693131 4.745603999562439 0.4369551256057958 1.0631316168076916 -4.351719884303493
Ni 0.8520993772915786 8.199303433617743 10.320864872558616 1.1043032059499949 0.020143050606778214 -1.197558660271731
Ni 3.7500223926004663 8.928106013585523 10.086990941229402 0.5604560090756348 1.7063149269802291 -1.5825512767673067
Ni 2.8165153253049695 3.9259669740349823 12.158459597320755 1.2568554982598354 0.9725372542578864 1.210051136311787
Ni 5.054244462382707 4.984429283516241 4.076949100909276 0.04618549741712691 0.034846161144907725 1.5358613289099354
Ni 8.755140729650527 8.029105299063106 5.483312188619341 -2.0527875330237357 -0.8140498274105336 -1.5820249719501913
Ni 7.182661975104983 8.334386442535619 2.602234656354955 1.597607142659165 1.1593654370314617 1.1696521636694501
Ni 1.2646518336431019 2.6036846426302627 5.741689227711636 0.040204597243343666 0.4432561281231592 -2.4051014283393672
Ni 8.92608599453786 0.6290459224226983 3.817815707653017 1.2002953424766039 -0.6191892612507852 -0.71514514522282
Ni 5.730203713016891 7.360589680262089 4.602018462981845 -0.07619952728071393 0.5789419836949642 -0.9587628261816135
Ni 9.16071259049853 4.143658615787853 1.4496717426620696 -0.9614074628933119 0.4254226994861642 0.1818798376293642
Ni 9.23379300563382 5.931882783688749 9.839252669121462 -0.1633316423135316 -0.5105812357323788 -1.2729770864120464
Ni 4.74479414717712 5.276492676781903 8.601544568994921 -0.3170185624484476 0.2713951081823777 -0.33262875818187876
Ni 5.895891394081542 1.3815915664570884 1.6443148748428005 -0.5681783174205569 1.233776762063501 0.7919303698036748
Ni 3.004653811675602 2.263749565084384 4.002333840251013 0.2426702294438595 -0.6427233398169834 -1.501371265552866
Ni 5.80363463374036 5.049678665905113 0.5560937185420309 -0.412619891294541 -0.5822378808374167 2.546599005496943
Ni 8.089060202304227 1.5299845638944927 7.189618588647206 -0.7758949136073671 -0.059503040461639456 -1.1462348131867743
Ni 8.287547827357402 2.0105830682753063 2.043968725549342 -0.8053181039644904 0.09687402491092993 -0.07459824423186508
P 3.7891222133449447 8.346239065714824 0.8794729413452201 0.015714068301147133 0.07294296801662921 -0.21613464504717617
Ni 1.526350374374954 9.16101697693037 5.33045208969891 0.19303096915017723 0.20588391385344543 3.4010776303464842
P 8.224170882715907 7.35574716884646 0.29274134486385045 0.15945339030504796 0.4659756812078619 -0.09430035064648276
Ni 4.890244742440076 8.74644265676493 2.9034065829976337 -1.1866942067534014 1.1358622117031987 0.3160844806699524
P 1.9539671919531536 4.618639806926537 0.9315091854428779 1.4133199811398887 0.17352478079644953 -0.7920519829832037
P 4.872313614455347 0.9765177924975497 4.755242903237357 -1.3409827650280584 -0.5068960735713076 0.3636277776665544
P 0.3474783267567389 4.189058313288283 4.144678771526078 -0.8102181123692691 -1.085940130061775 -0.21844323857569475
Ni 3.6372887268446266 6.171822306459709 0.20151211932590954 -0.2500009587773178 -0.6542565372675636 -1.5326687901145668
Ni 8.329534707288722 6.053489775124275 7.070697576876882 0.16994451964435894 1.5132849862713165 1.420492330518612
Ni 1.713732506581622 5.5713139955966575 2.8915668731822026 -0.26628401220805753 -0.3473735205912211 0.4495226778581613
Ni 6.062418443791567 7.486900825644227 0.9205734110916978 -1.0288225591131765 -0.5497543063874145 -0.5462450076825753
Ni 0.20476167508157822 0.9956664662096364 9.072613933292903 1.094136035609006 0.8981166732544662 1.3406960870255749
Ni 8.25330896569109 0.13657450243388972 11.282390249713378 -0.7555158357303827 0.18206495705697676 -0.20711007295106265
Ni 2.1611252183981233 0.10496904459455189 3.3976148504141808 1.7364181741235127 0.22411432081854304 -3.261444102980841
Ni 2.5992940989467597 1.7883533015386461 13.376686965809569 1.0888909851599826 -0.8214959992759335 -1.3048237986089979
Ni 5.373555053213641 0.6825994867639197 7.556319379766174 0.411256178177795 0.260478461269874 0.15883452577412643
Ni 0.32127895642349646 8.224982579867477 7.508989134381381 0.7788768790538264 -0.45095452520868146 1.5708303887859525
Ni 7.539033919970197 5.667758375333449 4.953018448516655 0.3822906441833803 -0.505690997519613 -1.5847061183267805
Ni 7.587403691138878 8.763313044153854 8.817274301837116 -0.8839457810707227 -0.46689202237454425 -0.32949638320048413
Ni 4.362789175218511 6.854035314693506 10.65169602864311 -1.1037599318520153 -2.359018775048692 -0.35671228149364376
Ni 5.799336328369536 6.120233418178543 6.460213692497635 0.5581484439883806 0.2701278114341799 2.189325966403823
Ni 3.6304538678751386 2.292675499940407 6.090178486375333 0.1704584831663 -0.6404977929205743 0.8734567086139409
Ni 1.7294314673995275 0.9945872779512962 11.256726783976799 -0.5868301281937894 0.7033023869516211 -0.27123441423479744
Ni 3.8633556073887183 4.076739719939496 2.304937661227906 -1.1359935950747402 -0.53311361250694 -0.8993240632990059
Ni 7.321904931924666 6.9847738990842165 11.099815578363522 0.5876811633401751 -0.2372277182720495 0.3738013757654466
Ni 6.896363476381736 0.24336617608697164 4.844964032363002 -0.735669747538733 0.609941260289956 0.6775849275808589
Ni 0.5225982976759077 1.9757538814078497 13.546584403464873 -3.3318823022977457 1.4245202207310823 -1.55819624496171
Ni 5.595139151761551 7.7662814509165745 12.163400803730951 -0.32856281564262124 0.2529541278683708 1.1785795480660668
Ni 8.713670384270207 3.388106925143266 8.741350179521943 1.2370744589781661 -0.2338947972440746 0.3266193187630052
Ni 2.9495414198501115 6.4723992959856105 6.622807700555043 0.27856231535477827 -2.4932570995406933 2.793184767945125
Ni 5.503103763370799 5.150688842119498 11.85319690151078 -0.578865364820758 -0.6849362257396074 -1.2879735598208786
Ni 7.728325385249312 2.547271690596004 4.413936241981946 1.3003207685323217 0.2641433117159709 0.832287947685115
P 1.0880062410322282 5.550588046737765 8.022717795910111 -0.5375945310964291 -1.0359442577596223 -1.3172738514468927
Ni 4.943973559575387 7.503586736407793 8.56886084528037 -0.0926242484956405 2.3305620623698964 -1.5997815246026643
P 8.64325565637133 2.2241424336201736 11.522690424286912 1.1638201303687052 1.2045518037601126 -0.4588465263622485
Ni 2.566097530213715 6.73799951734377 8.869721928809321 0.472391869146851 0.7925662036154608 1.4888394516344423
P 5.476861963413724 3.57956599077033 9.947401168354048 -0.0067275485318206716 0.12944475975809966 0.5442320910176046
P 0.6984534079471253 7.746579347328416 3.3126458391577396 -0.08098769269797665 -0.012195256514611256 0.8078113026999895
P 6.0998210795827585 9.106900758881808 10.492761114449666 -0.2795005108983315 0.42304288640007787 -0.4147107123852987
Ni 2.0247232016089427 5.933275582210197 11.13718408597902 1.9311697255092224 -0.4506925297965464 -0.37566131179232076
Ni 1.7664559261087358 7.437064465303954 1.3200741461991927 0.3880799971716478 -0.48294059119697463 -0.1997970842294172
Ni 2.857450688471752 4.526281584441409 4.810863528165707 -0.40494052037241224 -0.06161828703242937 0.6596095740493608
Ni 6.330011012703586 2.1845353021559633 11.552821913889645 1.5761669705075176 -0.0979250918832636 0.9027528864748968
Ni 4.065375959817487 2.2052981463399264 11.459267360489074 -0.9535663695823385 -0.665486344545112 -1.9168096001328088
Ni 8.721298492728732 3.9470249808195175 6.390985149299804 -0.417414741580023 -0.6035561826992187 -0.41300529965841776
Ni 0.6215128194262334 8.734645376573331 12.985388983848587 -0.06658951499477564 0.02368474521144953 -1.2948330059448734
Ni 7.7642614318689125 5.213069612984066 12.9325770155413 0.4047466591940514 0.4550654620532615 0.6087323275835194
Ni 5.437098026817961 2.685398563832275 3.6536019948249714 -0.26188665447131027 -0.5159296445284857 0.04901422511517365
Ni 2.8737123029969975 1.7717135099314185 9.218751703985314 0.037870035572896074 -0.6299043336754442 -0.1555957071218546
Ni 4.915056848550631 0.5531808326276393 12.927527890305273 -0.4323376814384425 0.6348943306908679 1.196582926622023
Ni 4.040942030788914 6.5435796018797205 2.4400999950946853 0.08632735974333519 0.1443443025777514 0.7573549458216505
Ni 6.833189456028132 4.32620746041016 8.083833057124727 -0.6397323755094595 0.1703697801072356 0.16033605002031742
Ni 6.958965619196732 6.507007110902638 9.036569045464342 -0.10151846566147678 -1.2044062793211838 -1.1723009141462069
Ni 0.21743337447737052 6.776702713343729 11.924301571988492 -1.1462217005606519 -0.8569700238128273 2.656107174232116
Ni 1.2132566458185607 3.324877561802055 10.44555170125448 -1.9469627266774212 -0.7168662416789847 0.5147991304684681
Ni 4.633121222017085 2.9799985106966 7.933361930502673 -0.10235098886510116 0.553176444695086 2.047908350554563
Ni 3.1432511003065344 4.056364276668783 9.763072124297043 1.7596956565942146 1.0543160753985907 0.19638985832008116
Ni 2.6368627637007718 8.997423105563525 7.780177152721613 -0.7220130759872468 0.4183578222195827 1.1539717768197157
Ni 7.598749003598352 4.423011569566398 10.744009054355027 -0.22082587987525842 -0.9634013533948891 -0.7060012739400228
Ni 1.5446412317791296 2.5853568899010164 2.241460176825589 0.036237899286111784 0.3581721538686219 -0.014603351735471625
Ni 4.50934663023361 2.983697267035014 0.1688044136500619 1.4660080555622237 0.5219210862252303 0.1785813693837505
Ni 0.6806929208408521 4.205107779694367 12.630743740196715 -1.1658299617098824 0.5845541876754191 -0.4357528777675786
Ni 7.3886301273163975 0.49252030629452825 0.38256209136718844 1.5818447376185854 -1.4090568349881605 -1.739764464887926
Ni 0.7928058227523651 5.96721005744467 5.2271765405251385 0.21478738699066233 0.3259135509452322 0.5777495060487599
P 4.603374366178222 4.499191192007691 6.199609098154151 -1.4036706309755824 -1.7986604678931863 0.6483723105726447
Ni 6.688430648110265 1.778815860007674 9.1055540795167 -0.11982703416267751 0.9535784537671964 0.9920519272520465
P 6.28861445797341 6.101924113111831 2.817924726722699 0.22495789976576097 1.7869012704747291 -0.9248656592135363
Ni 4.173608395914609 8.473094417141766 6.312010705984348 0.6612072575537838 -0.14760163317278452 -2.4742484196486743
P 6.528074341518441 8.189212562210699 6.672893104339548 0.7877636400204949 0.06134806409017821 0.5633690689573716
P 0.8992405341353806 1.0858017453592086 7.033558742659953 1.1606175642710077 -0.8587715957979403 1.3842811707053773
P 7.10099417305931 3.1375876679080656 0.29967858836041134 -0.4595859756314343 0.01535308541730259 0.82248047467639
Ni 1.8756015215013766 3.405558413902066 7.879671853458687 -0.4125959800351411 0.6172542490116015 -0.33294166143660725
