# total energy = -340894.04814289504 ev
CRYSTAL
PRIMVEC
9.05844366426095 0.00000000000000 0.00000000000000

0.00000000000000 9.05844366426095 0.00000000000000

0.00000000000000 0.00000000000000 13.25794794416859

PRIMCOORD
 96 1
Ni 6.3767005789842015 2.072653469881847 11.49648410519376 1.149405240494956 -0.5101035247650118 -0.06384794769389648
Ni 4.568517434599474 0.49470245092294624 6.016655518684795 0.14527607036340143 -1.7820426568308472 -0.5211137598325865
Ni 2.6471218594686508 1.3922646968165593 4.636914120436526 -0.1866471771110205 0.02493738667162802 0.7015036431799854
Ni 3.618558432171644 4.429678666312915 5.102361421228443 -0.6590940678655229 -0.017400969085266806 -0.005006194965339765
Ni 4.728870006936438 4.604053709668839 2.3195712488069784 0.18044053407967633 -1.0353523898118941 1.0742120429915696
Ni 7.333408122051001 6.335457484314096 2.8383410790905663 -0.12318643755321365 -0.9572183645126288 -0.7375515379424782
Ni 5.415346054242514 4.372864106732222 11.66896955717077 -0.8420288291219628 0.3061116857279567 -0.37334011985831184
Ni 5.785211373477098 7.891435436121388 12.608228725769404 -1.8504460851059101 0.1768661864648567 -0.0014740134423652034
Ni 1.8258561682593981 6.573866666967839 0.2620979190630978 -0.07065160087929123 -0.1081521689279105 0.43041192517063936
Ni 2.955272001020953 1.813591035339714 0.18247148043392503 -1.0483531729469362 -1.2471043324103426 0.5679872844556735
Ni 0.4511494530811134 8.997389899413237 4.760279255005649 0.3671818135663999 -0.050179963288500676 0.5942901840162603
Ni 8.420484788441355 2.227752144808607 1.3195996722559076 0.828935229162798 0.715179340894865 0.3654782006117318
Ni 6.693302248611883 1.0274539892283454 4.971200589915832 1.221753769460696 -2.147326739153902 -1.3801144409221973
Ni 0.8789118159317684 7.422932722232122 2.7696780750054804 0.4019721817727077 -0.25251652611031994 -0.7083345500588898
Ni 7.637183035242735 4.007355898970584 3.9276542752577828 -0.0931981187212395 -0.6142355167899356 -1.291993479613549
Ni 7.634175631897584 3.969545954504734 12.846885203939179 -1.1154533090295435 -0.6949103062331838 -1.161895659652483
Ni 7.998859521272449 8.846920089273743 6.941344180413923 -0.1604023844818786 0.1598490830815699 0.33569017071602186
Ni 6.681435687219871 0.8514312149432559 0.5310367748920343 0.08689531643166325 -1.1031305257981323 -1.3468214831970224
Ni 1.9346299615382518 6.496407913942567 9.215228262017268 0.7383138700297993 0.6887237178064978 0.1418953268166266
Ni -0.07014405964813483 4.912276318771626 1.2392313470786387 0.1944535605293167 -0.1785597721171957 2.5968756422643082
Ni 6.237879927585264 2.087255681304691 6.837216462965576 1.0512307516050476 1.3156358016228376 1.7391283739658243
Ni 3.2179396961997435 4.185943118698482 0.29528081043044435 0.12910383147891313 0.9857933479368443 0.8667790394834491
Ni 5.999253342280064 5.620112176583327 4.783732471875926 -0.5968535738680625 0.4706412050043314 -0.1802821541249411
Ni 5.4960114963767746 2.9123893280211117 9.273935130510017 0.30948445885493153 -0.4895056460090021 -0.3619167085127186
P 0.08719748596615363 5.643473903171116 12.53562892200419 0.3208834447204925 0.14314925382838573 -1.2621216317547812
P 4.160226196719912 6.139414643362985 12.474536059411705 0.0101856822837502 -0.09064578461303098 0.78736614747176
P 2.4415223602972533 8.52421302851765 1.4467077558076125 -0.7960047969833646 -0.46229334726026833 -0.5450563866911129
P 6.453534299386536 7.87494906838592 5.82091522975696 -0.354239394473119 -0.5669470161166171 0.4063209456597067
P 4.756362383901904 0.8824627259055617 12.524598454975903 0.47654934295865026 1.2728433890476594 0.3752324517850183
P 4.159601164096975 6.202244009633981 8.211667730028399 -1.3805911234482997 -1.2506578540895559 -0.1726115249535608
P 4.706930456026929 0.8869421263699515 3.7250993190511608 -0.7611632638241472 0.4417342921619941 1.32901376559164
P 0.1653075411014157 5.5663050203477855 3.6311659742673723 1.1621250020544696 -0.9555885422186898 -0.11749272960254604
Ni 1.210008807345329 0.9735381316670749 2.5944080574010595 0.9028264200253096 0.10764617582576945 -0.6437641223766719
Ni 1.9466052242559937 6.421603284953828 4.8929120834374995 0.06674223852255604 0.2508309108777809 -0.0582830520116093
Ni 6.0788317711570405 5.634207115152773 9.219377935126948 -0.021810925227504375 -0.25046812822172343 0.9034653391608892
Ni 8.890165100026014 2.384091826537432 10.175395224775372 -0.8634049808048936 0.8500594127359232 -0.16182086209596003
Ni 2.356200878044295 5.245146953483323 7.179590311079074 0.9009029777503518 0.05366560784425596 -0.5907644302511891
Ni 0.6199010145193562 0.230157846186579 9.21110576423902 -0.4069845473856346 -0.8356316673463673 -0.01678390432655819
Ni 1.5959981565629533 1.1588195413710785 11.4503195580013 -0.20632820047971562 0.31995553358958445 -0.389512101632484
Ni 3.935386562894594 6.683265492869631 1.4776649875306707 0.0951819819204877 1.0634311503259815 -0.019309241851573195
Ni 5.573062619430565 7.815108988572454 8.11072224389075 0.46460811143637404 1.3305240315885796 -0.2976985219635969
Ni 5.311083365981387 2.9335045605438475 4.561290608127299 -0.4101868563730161 0.3996065097540086 0.2184671498350947
Ni 0.9386540645520796 7.507040373014447 7.092750633643442 -0.31987634361221684 0.1817029457318677 0.02760824863557181
Ni 5.130756925041836 4.426680321411575 7.132788955286724 -0.8380289639339502 0.09514290115243615 0.5042833185388089
Ni 8.216271231172994 7.339459162516547 9.329034926677345 0.44203074035649037 -0.3737774645060466 -0.9233834182410549
Ni 4.739106048442526 0.33335797898871056 10.319284075486395 -0.2560605347078364 0.009849124879937877 -0.12804196587330208
Ni 8.427242387524137 6.941639485682152 5.071642426577606 -1.2285455955715485 0.8398482765308761 0.15326783031962637
Ni 7.088812022274551 6.049908160069484 7.007051414283578 0.7286848315804677 0.6106187459729548 0.17169261268371722
Ni 2.1559549191650196 5.207509119449875 2.5991809514449162 0.18944273757828664 -0.3304327789718245 -0.05219030885031012
Ni 2.573168724198118 5.072348079350459 11.473720235897478 -1.1115043516841245 0.23134811956282095 -0.8894924219205649
Ni 0.9106815900646461 3.1656543585243986 3.6754608586573014 0.09445127440205024 0.40185262547570794 0.44895317850793653
Ni 3.4707427460686846 2.3259003834975123 2.5827942265913646 0.09777108280390258 0.9862299212536306 -0.3679261479315922
Ni 1.1311912877484513 3.338299239112479 7.98706542743092 0.20691081245606302 0.10018894821677585 0.22421150851803964
Ni 3.573048810466701 2.404880955082983 6.877719482776346 0.6721300751138747 1.0927669231756212 0.6412392990722892
Ni 4.152444993486523 6.849243358813039 6.025127881180941 0.3338831994142701 0.6491282149020627 0.19388637517193708
Ni 0.8544440533546939 7.376952061449023 11.3317671746288 0.08847603065522182 0.3475416707379692 -0.01666589069145517
P 0.23297683390046803 5.696221221480807 7.985129637988575 0.0338143774462837 0.07268611481081674 0.10434822180078802
P 8.46559583861863 1.7646935556495698 7.757569753486903 -0.3020403438720604 -0.505634947470697 1.9726580745609963
P 1.8050760981576583 3.3160335842257846 10.25620288447746 0.4354888254729145 -0.18941522677446088 0.43554538974246276
P 4.086273061449379 6.1002187569940975 3.7796420209241313 -1.0488391114444195 0.35484797459139533 -0.32134290085541434
P 7.136676839370276 3.917604837694195 10.295247494834708 -0.003934816278031933 0.693099221166374 0.6238367873251256
P 6.362505997532838 7.800751355132498 10.234247934213473 -0.42508562786171955 -0.04364627593504096 0.13967260813369495
P 2.405768682576431 8.492100845208729 5.843189037243085 0.34208064762339796 -0.09817371755895996 -0.9620839201350462
P 6.689044780020856 3.851768068078047 1.7481401554299014 0.8481567963965715 0.05040133527068739 -0.31771250319167865
Ni 5.1067520489434886 2.7770833528207257 0.5639913934753512 0.8521618037909066 0.3203900500238418 -0.24373029527725762
Ni 1.3609315396753574 1.0682803954831583 7.0148471110270645 -0.20359666048116545 -0.21599503414551832 -1.412155271407826
Ni 7.08282439091568 0.7682756066054355 9.293848307539072 -0.4066719012412222 -0.25190897443330806 -0.4582281760519592
Ni 2.590551877870846 1.5830989325765201 8.948081166374088 1.1708762658845382 0.7182577227098728 2.107509350046648
Ni 6.296035136849942 1.7898579125556868 2.6553550790481935 1.255841198062708 0.6066114245857746 -0.3706085798597617
Ni 4.043517206662888 7.01267580204564 10.35897817626487 0.9151705434129594 -0.3774855094852531 0.23336694976506261
Ni 8.20295531877127 7.298524054936005 0.4631573261965738 -0.3037766098368768 -0.6716958157899335 -0.28781751540445916
Ni 7.9197611899174385 4.0180267457795855 8.096668974162833 -1.331462998463081 -0.7917755893933653 0.13849915665088405
Ni 3.09670148423737 8.478078374189769 12.424553378153039 0.41845500991907936 -0.777126472021623 0.22558859137122442
Ni 0.17713424534066213 5.222192856867015 10.186824263331328 -0.7218570100253568 -1.6303660822577406 0.8093930453648125
Ni 8.678161281080452 2.5304943954059222 5.77525523788476 -0.06477637304543683 -0.21726233089371613 -0.5968564020815398
Ni 3.7501957376286974 2.5649798909932473 11.178597948233719 0.04775875544151775 0.1610564731261097 0.3796262099773397
Ni 0.9295684454099501 3.3757196704944694 12.74420230827864 0.4838391917518442 -0.2215447603191539 -0.8731000966054705
Ni 3.1283063946928933 8.621600357926459 7.882314489048398 0.7611342103584247 -1.147002030370102 0.7895125043908016
Ni 5.60546467294143 7.8694053007737725 3.8341457714887164 -0.49790004072028443 0.6957448863193373 -0.6184719234687864
Ni 3.0206558484465664 8.219160874748608 3.626950174517874 0.9656027319215822 -0.00735669747538733 -0.2061677636424514
Ni 3.5757301098346668 4.181069675928327 9.320430310901564 -0.4089272729343022 1.1212490897757141 -0.9905141504512812
Ni 7.158634507167406 6.268017370143455 11.576137719154364 0.8745113751307004 -1.606045246124189 -0.5178515441415469
Ni 0.6390822692885079 9.134444154269087 0.2952916805630172 0.1549796708044105 0.008598283191972287 -0.18664152068406567
Ni 4.522120085401082 0.14078814539462017 1.6679557166619896 0.031199051310623685 -0.15852753605666892 -0.6983908085826166
Ni 5.997840225045596 5.634152764489909 0.4986963187990826 0.40932090882829514 0.5481615079789979 0.21156965138431305
Ni 7.840173702596652 8.65590468463757 11.636474201688657 0.6096504685224146 1.180187515983135 -0.3109828977773289
Ni 0.26063135701014595 4.913010052720293 5.855094549943484 -0.06621979036018272 -1.2158366326453125 0.3006889720504886
Ni 8.06643551210025 8.660216503891462 2.407020559511069 -0.4578767062498114 1.697225048863819 0.5939649394663578
P 8.407639915117787 1.4296579528671178 3.6352893778900017 -0.45532257236939 1.157898879788264 0.04242243083026887
P 1.5927914674539663 3.221445313954483 1.6036018142976525 0.6489212410975792 -0.27414156057926337 -0.6340160418509726
P 4.943518891474722 1.0459422730459786 8.207929310267724 -0.7402311416571703 -0.1061719052730881 0.13257276386412006
P 8.566525019557417 1.5694931499728528 12.271795405106964 -0.5287393946986443 0.3761228248097716 0.8728157325958323
P 6.290591012119712 7.7989215494827375 1.5728565501597647 -0.4000934766927561 -0.45441471584313997 -0.6626023381290975
P 1.9267038232038916 3.1364408772348997 5.808227973355698 -1.3413769151426833 0.9698658780733104 -0.23910565202105277
P 6.8659290123123435 4.058037892091436 5.959937884452876 0.6039796433898824 -0.4574810134732895 0.19584015646419822
P 2.4589417477452242 8.541886052392321 10.221361392048376 -0.5114021889717774 0.3673831309439286 -0.4137005259532294
