# total energy = -340861.70815808245 ev
CRYSTAL
PRIMVEC
9.27394116349488 0.00000000000000 0.00000000000000

0.00000000000000 9.27394116349488 0.00000000000000

0.00000000000000 0.00000000000000 13.57335031711689

PRIMCOORD
 96 1
Ni 7.1920433941252115 8.869152190050734 3.2650282447882932 0.7395467139956361 0.06084387076025006 0.8124210335578589
Ni 8.812173095475021 1.2703073663090465 1.7833890891786341 -1.0525206740610646 1.0861370765639293 -0.10509846970325125
Ni 1.7431485310286547 8.612699894754156 7.831334182437649 -1.6843245387520671 -0.5629211827866757 1.138350525342691
Ni 1.5435176733078237 2.966214440995143 6.748302929416855 2.0753553910219225 -3.8243616862230905 -0.1780506936912611
Ni 5.093702916115798 6.805941401210069 2.1293599564496555 -0.6643162354964107 -0.15719827572228412 0.08673436537376675
Ni 3.6392336259648737 8.770607291131215 1.4834447919563207 0.5947730371899498 -0.2971912433098753 -1.6940903598895793
Ni 3.969525040892282 4.668520535091598 0.8717578895495811 -0.9517658260384897 0.025793821134652353 -1.382753164096625
Ni 0.6660896961241947 6.7530242928687585 12.137126765950143 -0.3456961328887982 0.5943683455523634 -1.9672271333534121
Ni 6.935516907299238 7.251136947288694 8.579769057037865 -0.7912752527181792 1.057328122752037 1.2569629703719771
Ni 8.47369279049059 5.712998159862042 3.890895930644857 -1.588647619473032 -1.810334561797005 3.3743091040033883
Ni 6.414154482355 7.131354723079726 10.873000481433857 -0.22841371952484532 -1.0264028939280903 0.17268634405555422
Ni 4.11887258956534 1.061031609766806 10.201798061540197 0.13321502543380928 1.3447466029458648 -0.6304308956028756
Ni 7.553040828281166 4.182380538727854 1.5716993257486889 0.9028246202530967 0.0016629895247197166 0.018766996194858002
Ni 4.730730132489689 5.751837425500564 9.657615249548032 -0.0024664592626215585 -0.1355506155455214 -1.383676704352159
Ni 4.903401643216446 8.184698235612927 4.017698528322871 3.906719519795717 0.2597431257657462 -0.906718041770232
Ni 1.9624494179804566 5.73197264350493 10.508718217313918 0.2802070500470529 -0.1645328617104844 -1.8184001124139588
Ni 6.032401967850667 5.5321655809017845 0.28405803599051077 1.0246049214874031 0.24001170877508987 1.927447282352313
Ni 3.520323152226302 -0.10108132183072548 11.966400928081782 -0.6555845120503677 -1.4939086386272336 2.003375044028879
Ni 2.969988935053137 3.624441689791654 3.957079411836194 -0.2757330734360993 -0.0009654492370628535 0.0025423068058794927
Ni 8.211268077077676 8.430355663382466 11.024383660194703 0.8496107552342788 0.13653843338008745 0.46207634615345583
Ni -0.011997697697363141 1.1150337692255257 4.014155882794237 0.4602770881611879 -0.8316559705280709 0.8178414332424818
Ni 2.843436733786833 8.293305360706706 3.451920416911924 -2.3509110583398933 -1.2300044395052623 1.0691721665748168
Ni 7.609342925151145 0.25388805056184743 7.744125749209757 3.0300049663661106 0.5433923687251286 -1.3823988660809998
Ni 0.9361116221472021 6.193527421815255 7.733185280806279 -0.0287359344821118 0.22681037959346745 1.0327550613983634
P 7.443376473893503 7.230409688763839 12.787914459136525 -0.41043908159313824 -0.3510095746819116 0.5778765185449274
P 9.042482150600874 2.712674163227337 7.762639317976277 -3.9081259132249397 -2.707030700554861 0.18929875580125463
P 5.824878986190393 4.949020159853479 7.694704916691207 0.24638650195318212 -0.16599864762273345 1.2882034164434975
P 4.3912389679172446 7.177103074893202 11.304428861839037 -0.6957060626616017 0.8651605300434198 -0.5421687807306727
P 5.711709082038795 3.3167415955651625 1.0810892897388684 -0.6928264271209617 -0.9209640101662848 -0.9826887408695915
P 9.298517118544604 4.426136808556634 11.20704042338397 0.2573692262169309 0.04982283705939806 0.12922621598939035
P 7.579443738804775 1.4035089833974186 11.650916287633475 3.7323619586853267 -1.929024654141762 -0.2830694591965125
P 0.995993460310512 7.467980239829272 9.731698273831752 -1.1199720228355035 0.08537733712524007 -0.8330798474587909
Ni 2.3121882875506494 6.652698797243749 1.149133123529796 -0.38557368581002627 -0.9119188692448811 2.772700274838528
Ni 4.455052957138514 1.3617669741712983 0.5543136653311139 1.6457214816678885 -0.2199015682887761 -2.6798271435568752
Ni 3.8865510892046355 2.9545570969388817 5.856493851654033 2.3431095600176035 -0.9404645420930577 0.02364257911960444
Ni 1.6538497514600454 7.831722760572858 5.4178160314328 0.8224863882136608 2.6559022573101614 1.4348573409910321
Ni 7.034200915336373 1.5168087227254587 0.24167890700570724 0.5341747067816026 0.671350773745689 1.2049474965366345
Ni 9.12482547428866 4.333453040459356 6.467361865055071 -2.087545762440527 1.6698201744883048 -0.6867079729280496
Ni 0.44778761263687916 0.654787544014914 13.344205328726028 0.19403472782434325 -0.669039352003693 -1.562756867749199
Ni 3.1818150254183464 3.709585743714117 10.081401902425482 1.1893537558634355 -0.23073953944454456 1.7518872162933892
Ni 7.575465218040943 6.786716521155472 2.0431688745685985 -0.32746135504832635 -0.0022612852303509445 -0.7595434688325371
Ni 5.314394894243765 4.461693099019407 2.9530723389568547 1.6388710344049582 -1.1667388466773971 1.102033950299844
Ni 3.1135773662568726 6.218771089692059 12.648977836825885 -0.27071942227159185 -0.09491767251550749 -0.20829946527347354
Ni 1.1657807753320195 4.0035418571201 2.133242028225273 1.0770672530521772 -0.3704658836343103 -0.9998775939440523
Ni 7.4602828686544935 6.091384233720056 6.838580109779366 1.2970492968699017 -0.8130779504155674 -1.2487490671026171
Ni 4.240203561950439 6.021551456676581 4.883202999338532 -0.7108560309291628 -0.5238846377095042 -0.33431900140010806
Ni 5.02717166213042 4.904384680980936 11.951687820408546 -1.358731347260731 0.789015510149725 -1.2551981651620705
Ni 6.367191244247675 0.9969579501926529 9.7969998032174 1.1845851308301987 -0.2650239145487113 0.16463082074092936
Ni 7.9339215923151025 3.058147019857291 9.833145916338866 0.6955253141093635 -0.11501058661064063 -0.3662114792333306
Ni 7.569279499277597 2.2179372233948937 5.605657855132692 1.4266650349882268 -0.5205974823178002 0.5034505382248684
Ni 0.7393297191551569 3.4008005983702176 4.440222997806479 0.3609923969262363 0.21929941592840296 1.797788092590562
Ni 5.580566279891148 3.26760825522302 9.617600975562711 0.0814772307398855 1.6605384920760626 -0.10845915864536805
Ni 5.60674661582657 7.634911180969055 6.417778738565969 0.3632796502985163 0.2831396503128156 0.20187659246626521
Ni 3.4400942871262874 6.882942934781381 7.212919035708858 0.14812331000420942 0.21235563762071816 0.08784533904975839
Ni 8.887607332987855 2.9573763750559086 13.175216500039639 -0.6137367227766463 0.6759376217854229 -0.6736765936653881
Ni 5.399538948166229 1.3040459643016313 2.8519372282673174 -0.7370584003561435 0.5272265575985435 1.090791544616805
P 8.223129447839776 8.991985540906091 5.587863016807191 -0.04298807352575177 0.6827605582445274 -0.6904640975363722
P 5.884501154000819 2.7617054902165603 4.419727587810984 -1.5565142292735967 -2.00095357907158 0.022198647584226284
P 2.303572796199602 1.4367931582724562 9.25458182223073 -1.1024031607138045 -0.46347476916287916 -0.4695633985591203
P 0.7422166970427577 6.121654377713404 5.537289433400659 -1.7712977596095172 -2.7267348638520077 -0.2221975634118044
P 2.8929132099524293 5.192312732623537 8.417811730549928 -0.4458796817889353 -0.9045156348022745 -0.07977438911616584
P 3.411409987073768 5.305927785951508 2.808991461476756 -1.7000370643913174 1.745781617616284 0.13734807376557637
P 5.723171673330394 9.03701052530796 8.16173688465915 -2.726334800200111 -0.04015934582770503 -0.012468821890972075
P 2.0098670792053293 8.14072120656377 13.283667822921686 -0.20428725879028686 1.9390236743360028 -0.7372628030574658
Ni 6.336559416548525 2.9778717850514047 11.771637034689295 0.2060320093955355 2.529016773638806 0.585799630046746
Ni 2.2739425541472906 1.1905051025030562 5.23411502246729 2.7737102041602815 -0.010519668584401239 -2.655337643055943
Ni 3.203043076766622 8.050244636466008 9.636046844558656 0.8125891837046069 -0.5591360047126306 0.020318914063010167
Ni 8.22640314907435 5.315906546655197 9.448056637799972 0.2762264681327501 1.1217190874335974 -0.19056039612249762
Ni 3.9109415544933928 2.7802811943889485 8.171753668521657 -1.3585853086011699 0.7041945597485872 -0.7671469922114078
Ni 5.129435411460886 7.622382086442396 13.386553853704957 0.7424376623901858 1.3232205559486308 -0.3058466049920281
Ni 2.4591709812242284 4.689906243439839 6.091570639937663 0.3404387411446008 3.944131641895588 -0.1629698880987387
Ni 1.3954592024580112 9.211935603740102 10.85576207957882 1.5596466042549915 -1.2005866484647776 0.8431400599082705
Ni 0.28960107063046897 7.787671539994304 3.555796904612623 -1.0075700774923033 0.6319861559051374 0.7836305916887278
Ni 7.373367491967713 5.112519742758721 12.178063797082322 2.4974186871175506 -0.39969367015117613 -1.4135670641536882
Ni 3.553013794866176 2.5693639502588335 2.0148824265924623 -1.924412095070415 1.8170618532185094 0.728051568871843
Ni 1.9876467161513893 4.172689270200571 12.215608420532895 0.18848140210628186 0.13200069341073395 1.7617257996503661
Ni 9.124250489935845 7.663354358551038 0.44079969796194435 -0.6079694812755659 0.10327015824526085 0.943966127488413
Ni 0.6482438511222346 0.8489745982663531 6.474949803723991 -3.7346450982925488 -0.38136658970721415 1.294828635069499
Ni 1.1424660872194965 8.921716888627417 1.8205395701292928 1.3382352841899081 0.2427195946245562 -0.15317167106139426
Ni 6.270297106857206 4.3454813421625955 5.628950285786396 -0.255881843038127 1.595748235073555 0.5025735349365538
Ni 5.624181625234503 0.9332088785596048 12.165888967108527 -2.174875081085816 -2.494713115260929 -0.9625348916295359
Ni 8.995630199787643 0.9912637503115513 9.983090706823559 -0.7959060666219712 1.4378218229359947 -1.617984420763936
Ni 5.307216863774754 0.8005164008417093 5.523878387068312 0.5892137979346175 0.6177921237929426 -0.15347377568284537
Ni 0.16675751843982053 5.259020191491229 0.2262990029620286 -0.19639294364387466 -0.3281740648446348 0.6732467052168212
Ni 6.019334984735892 2.1236397895332653 7.546768861864897 0.13577147330707584 0.19726377628460218 -0.6578635378925315
Ni 1.243635511491379 3.3687776794949027 8.980739032443855 -0.28069530253738106 0.9488437672956884 2.2093345483152658
Ni 3.5422652970450086 0.6098803386659601 7.431911100419552 1.3762122776543138 -0.13173201313037958 -0.08487057269215062
Ni 1.3564066361724765 2.0896044254230985 11.59473567939288 0.03546862522025504 0.1934081499839379 -0.9791023090699138
P 2.4464471339329066 0.9859590559597761 2.8546925161902412 -0.44908867564453625 0.7876206866847274 0.9142863410357932
P 1.6393916771691055 2.495821596745585 0.2336458191604139 0.5128916290331103 0.33829264133587544 0.44637101960305703
P 0.5232162857850073 6.029332293321929 2.4168437863100016 0.37538414687153415 0.5331827751819785 -3.118464284850784
P 3.6787591632503043 8.540428071181804 5.583234392767032 -0.6667279302616969 0.40264401102875175 1.5468540804760136
P 8.624440704280987 3.0881574934977536 3.021998124553471 -0.5365763742445597 -1.1274873573759423 -0.39358267215743187
P 6.225643080102314 6.272022059915649 4.06410532995973 1.1716062020720273 0.4456187148180648 -0.09267978432392426
P 6.099962629306407 9.221228092796883 1.4386664943896914 -0.43445884154650344 -1.9277061924406542 -1.261361356549989
P 4.116303707860022 2.9685329262887508 11.951212994620416 -0.2548665143997353 -1.2073957009668108 0.24555397874955776
