# total energy = -340888.4603690293 ev
CRYSTAL
PRIMVEC
9.12435220218332 0.00000000000000 0.00000000000000
0.00000000000000 9.12435220218332 0.00000000000000
0.00000000000000 0.00000000000000 13.35441175155250
PRIMCOORD
 96 1
Ni 6.6742538494102766 2.114158050325038 11.416192515279345 0.18960137464333798 -1.6600774932792441 1.8162239306982462
Ni 4.80020312993396 0.24384649042241893 6.052740380386581 0.6603209982940885 0.5843688111374904 -0.7938142170899489
Ni 2.6412353854497708 1.6739810465323686 4.6903094307987905 0.12111309996395273 0.4450666989693367 1.7667888159955702
Ni 3.6875613614234157 4.212950691372127 4.6454659765361175 -1.0292627319743886 0.3730359583543318 0.8051532962518521
Ni 3.8836071950018183 2.752123638985949 2.759154864870503 -0.2617557853204008 -0.10739600748817632 -1.0063243780106603
Ni 5.203900973219954 4.74973633734706 2.1359716393753914 0.1954516627765279 -0.5790936787814801 1.2702846271815478
Ni 5.165888921526403 4.664706498237076 11.296270240528145 -0.6533106284145265 0.06814708928988264 0.6518340438689999
Ni 5.611202935665561 8.279628890977737 12.343189299401475 0.31987994315664264 -1.082797470667735 -0.013655128889589386
Ni 1.9269993358895827 6.702676206833562 0.19521916725976704 0.22062944759373615 -0.17892821120020796 -0.7747937101233883
Ni 3.042141176931101 1.8923541701957731 0.38078385734791964 0.4308207305732838 -0.9999827520633489 -0.3188507305611799
Ni 7.916552664143901 8.951172096113027 6.886335732160886 -0.07093390800640041 -1.0359110905288416 1.073337610806416
Ni 9.132199245800988 2.3449402931202785 1.2552772934491572 -0.6136814440586786 0.5040550045780867 0.4066999262656802
Ni 7.5172710073724724 0.9348993856516004 4.973222748040966 -0.8582800008735024 -0.12137638092766838 -1.1594631389515904
Ni 0.9941620538584199 7.522508385594293 2.3865665007609764 -1.306199595910602 0.8620237841866508 0.3513250490398014
Ni 7.905293213402221 4.209483437497054 3.776787490157468 1.1727184612995996 -0.2758827116400861 -0.564471557992931
Ni 8.141915041671266 3.8003748532954895 12.519680733559701 -1.0706299820672658 0.5683786063568211 -0.00722377144194885
Ni 8.264883937656379 7.392787468905092 9.182894147195459 -0.8423995821978203 -0.3865923568825278 -0.0591338300476788
Ni 7.378498733198875 0.6253155866282805 0.4629440876586674 -1.5447452616631268 -0.006723948987394872 0.4020943091728688
Ni 1.9969831180522166 6.7128407352989035 8.929681509134195 -0.46296466229568006 -0.028527160905415388 -0.27142364742746805
Ni 0.14203605499231683 4.967388637178542 1.1641250139439796 0.21707644013515517 0.009028685861171547 0.461768842215366
Ni 6.474695140195287 2.1873079827367508 6.705196352939601 1.4325592889854748 -0.2057458456136844 0.743325721422094
Ni 3.475347175564415 4.6276707522399265 0.28408853381877874 0.2524036546815395 0.051517194042685475 -0.28881638898261874
Ni 6.117029654277024 5.87801724570464 4.658098642299373 1.5845053151698842 -1.9191197363232237 -0.06397855973448982
Ni 5.714508852438095 2.7009086495102173 9.382903599414206 -2.400252070666866 0.9218844650980252 -1.4946498876686323
P 0.22989535575140632 5.755969909302111 12.390010000808168 -0.05787784615339064 -0.751505429019409 0.13607100682536566
P 4.01566394588054 6.483591383690538 12.358346673446917 0.3929342399401555 0.17287943390296678 0.7268233528916966
P 2.6274302404156034 8.437945527783977 1.4502491907615176 0.10736181181613123 1.9355408579937243 -0.7176815384914286
P 6.444703394175916 7.707030162214233 5.610735768827656 0.225929776760727 2.8731717872927294 -0.3622689496458148
P 4.910908896424083 1.125862954997332 12.421125867031245 -0.6629283540099487 1.1478445808760553 1.16241785070454
P 4.139682142380478 6.35679025973824 8.023210867952491 -0.04920731496258622 0.570837609420275 0.06781541698207676
P 4.797000482275671 1.2465051411452255 4.042514177402051 1.4610432553577806 0.7904501857137226 -0.42325423107993554
P 0.41256123911295284 5.716945054502948 3.3755550468636972 -0.07976153360035941 -1.4680009176225362 0.28778100573956894
Ni 0.595238984132493 9.04518942224129 4.556030900134331 1.4408330989584928 0.8341689667579117 -0.08611472951189686
Ni 2.1324067549306793 6.5324431659198385 4.518585470718786 0.39531970945319655 0.7761371115251601 0.7878461724319722
Ni 6.249907596862999 5.667162588338759 9.306756317271017 -0.7933850999723304 0.78398308993214 -0.8925546057856564
Ni 8.905258355325234 2.7244312297468887 10.078827986337863 -0.4431075183604368 -0.7232065820747158 0.33098659459276547
Ni 2.629227737819259 5.444035677125585 6.741187360598077 0.43825096159908394 -0.9998984198796587 0.7575997148426049
Ni 0.20888744700939227 0.31247439383285347 9.19554049948717 3.25432677520977 -0.1479160790894098 0.35556196993928446
Ni 1.3558696278468327 1.3589719076297915 11.336279612940782 0.9664139149689678 0.2430818630599814 0.17955324637871656
Ni 4.109270676155177 6.891550299501947 1.4491542684851793 0.6198538914179776 1.3255018957836397 0.6370226898877803
Ni 5.769327961073441 7.957931601837193 7.953647718431018 -0.5778736903314499 0.35216939931796765 0.09210668542927364
Ni 5.830889966060572 3.2303765649382887 4.308640511277496 -1.1405369914710488 -0.40873444019720573 0.46228563395078454
Ni 0.7416109313391102 7.585612406120599 6.516912605865207 0.9181599650585864 -0.32620125738898015 0.8209498969644764
Ni 5.304104610209529 4.6497516848127525 7.287663068718606 0.05202215870356202 -0.3792302600905017 -0.6512298346260977
Ni 0.8333307455575231 7.25367759369629 10.992003201591679 -0.06168770681778408 1.7669371686479765 0.6497157119744166
Ni 4.591976286031293 0.5150377522611608 10.18359379947885 -0.3000467104807994 -0.5189239512701193 0.007713566594173813
Ni 8.503677361773496 7.153254972251446 4.575194777275945 -1.4288923816568488 -0.8486234516203449 0.38189700828938744
Ni 7.18914104985844 6.238839757519679 6.841238620904194 1.534898450776034 -1.4202925558029798 1.2750879621074622
Ni 2.447443266890165 5.543226511009547 2.3720642552108733 -0.03681973993151078 -1.762657824546332 0.3353646690558031
Ni 2.4838676812830247 5.418487490677688 11.376076387944764 -0.6685503281824163 -0.9580871402708273 -0.7113931343795554
Ni 1.3670104620085766 3.3404527511195163 3.7909165496983857 -0.8905450315547953 1.3889587786867048 -1.1158723988448331
Ni 1.6893190827534101 1.1224778202929855 2.465398167351655 0.16487764664441282 -0.20006602162008771 -0.21670542994898165
Ni 0.7815920182596093 3.706786371725459 8.12730786606968 2.0499222956607985 0.17204305404460046 -0.6321674186780081
Ni 4.222887111029898 2.6544748206411635 6.4692114044612925 -1.216721349243111 -0.26821722467502845 0.06117554306805593
Ni 4.182511852089918 7.056518589136942 5.9289311315543785 0.5232459756842408 0.13319651349104802 -0.5828989114601832
Ni 0.6603029155334459 -0.1355960871369861 13.62150010780387 0.6898110373334055 0.49432569310546476 -0.1065585991885455
P 0.11758552812644857 5.9489773335636755 7.913971384877433 0.09984467750347965 -0.5712201895706743 0.36421887428333405
P 8.44442381791898 1.7003686733921257 7.831080293947229 0.35070438473666693 1.4633050548087638 -0.3575540606686487
P 2.0221115842941844 3.4310393207819185 10.20847317090295 -1.0704029536581243 0.4050631619932056 0.5189193232844289
P 4.320581551136198 6.045941825485749 3.772915115040151 -2.751135918404191 0.8414675573018541 -1.736794069405693
P 7.0303590710847566 3.9157066664031412 10.415826814290238 1.7362058010023906 2.650517081738848 0.3370366574415873
P 6.244496855947427 7.866697203161289 10.103974701284436 1.131286162296742 -0.33990832256242753 1.1921670569425147
P 2.6204774839608542 8.724568806672478 5.761814056952068 -1.1840904505819672 -1.003444485359704 0.4287949583925067
P 7.16697799811489 4.063411681481201 1.3484880268338508 -0.24492380136472655 -0.21834347977303686 -0.055646642830026745
Ni 5.3442517603419395 3.1785776169151765 13.485551820667997 1.034613968983973 -0.7619255959114685 0.23167902053967843
Ni 1.294928078816294 0.9667068777792328 6.835041360820119 -0.6704498591979744 0.550159255135317 0.28381842154739506
Ni 7.177115153523323 0.7526331489209174 9.413658141286092 -2.228213901718272 -0.4481417383502347 -0.5771383548273221
Ni 2.6483797533028794 2.2973567958610692 8.503889046746922 1.4570575312371552 -0.9687885858487314 -0.10103818359094857
Ni 6.744146388049882 1.8020230823978496 2.751943889245583 0.5553814227662047 0.3209796039787246 -1.2369294487598699
Ni 4.116533660588222 7.0110884390212 10.155963435835448 0.4392030410997081 0.9816361312353612 0.28220119765894625
Ni 8.069458560034569 7.273824163580918 -0.00013595284931202636 0.20447340665916397 0.032728600581272665 0.7492896523150128
Ni 7.744585996292642 4.099799598464848 8.16667670895066 -1.7184525907840276 -0.18951652823901555 -0.40707196489311825
Ni 3.0142662806459835 8.73890316414021 12.223333632422083 0.6115093761080241 -0.27896340744793896 0.36271015094829145
Ni 9.35939561814122 5.1053853414064 10.141246768006228 -0.2121167821370347 -0.2178328586852055 0.023245343681185773
Ni 9.111970556745634 2.9216997265338693 5.787375017493189 -1.938480657348339 -1.9229920747944365 -0.0015557745228940948
Ni 3.735090112568808 2.6457154424304554 11.442193269601463 -0.42545201006220273 0.7820030833876338 -0.4447674225613631
Ni 1.4000862391063011 3.5886077606993267 12.81618933573308 0.08924170517665275 -0.2699596612874319 -1.0610420812685146
Ni 3.132034295818489 8.715398832608145 7.971983104383536 0.6301069366045535 0.33529962014582254 0.6463606794592546
Ni 5.632946267203183 7.9548658194634445 3.44443660726815 -0.06823990611400506 -0.09440422321419871 0.9447426006431213
Ni 3.301309279740416 8.863779049756612 3.7252266877294593 0.09297931784221407 -2.183376690798924 -1.0851472018468344
Ni 3.6426786724458418 4.640088995724065 9.167229459161975 -0.00783440844275425 -1.0877445302603654 0.6119912008404492
Ni 7.23795633467853 6.131418757858572 11.37305805220299 0.6014509634307577 0.15098134827829482 0.4641851649663425
Ni 7.919682316983768 8.689549542534253 2.755482313068617 0.43800439280591663 0.48829979862635897 -0.39255680199607873
Ni 4.858799720422675 0.4711222446276854 1.8205938766397802 -0.6400118544230914 -0.08226090298344543 -1.0428643819182233
Ni 5.801345313304038 5.976031038141539 0.20428603614307983 1.3926750511960273 -0.31102686364138693 -1.1699041317792562
Ni 7.961134249495482 -0.25917175255023633 11.52648677348061 0.369605335406228 -0.05095592222257676 -0.6566857155343465
Ni 0.5462822718517093 5.119902185920187 5.9558406713658565 -1.3469338404051705 0.8582308928031219 -1.183096204989498
Ni 7.450900468721756 6.171520286229468 2.2596202996070645 -0.352032102409155 0.1778223797305389 0.4990953465799663
P 8.906289407135453 1.7033705852997536 3.5452488385563234 -0.22561044574809536 0.4876269409290505 -0.41961714854798055
P 2.042468014281777 3.4294151860720166 1.5814966115909797 -0.08239717145099358 0.04526607092665107 0.18723390285242592
P 5.163981931895114 1.1056251415896758 8.083692549626969 -1.3543532727976935 -0.330553877930721 -0.31524115883305065
P 8.73440485845492 1.6289158705087379 12.53037812419953 0.01214486289265005 0.2757536422613896 -0.6184253865015671
P 6.343496078433031 7.931279368760653 1.3341235590035203 0.156992073248749 -0.45508628798886785 -0.30780218605650217
P 2.0337633821848864 3.2404407255283 6.326425327709684 1.5749950616866037 0.012060273598643744 -0.1416158479029948
P 7.005267102252 4.091167961186381 5.851529250969552 0.6477686155503748 1.3274405075672495 0.4988624046335537
P 2.2297727183540776 8.856351826982117 10.160570321313141 0.3849594492647951 -0.7792118937957419 -1.2633709307808498
