# total energy = -381166.41644219763 ev
CRYSTAL
PRIMVEC
9.22617053311008 0.00000000000000 0.00000000000000

0.00000000000000 9.22617053311008 0.00000000000000

0.00000000000000 0.00000000000000 13.50343317082131

PRIMCOORD
 96 1
Ni 6.873865868997705 1.4208025370826258 13.208274796730436 -2.2331193094396897 1.7886825307448677 0.2164609180383433
Ni 2.155094973437438 4.287290592361223 2.513528919065592 -1.346383110108023 -0.2614644793322271 0.6613720652664222
Ni 2.3825569743156048 2.0189443793367197 12.68720469011907 3.375296150507006 0.8632769398674618 -2.793472217278557
Ni 1.115619278177458 6.8550906125773645 5.390597546365243 -0.2728248986503688 1.4645857212934001 0.2534287535119442
Ni 0.7787247495708893 5.368892980896521 7.391468780836212 1.783703846583354 3.2128445968055828 1.4629718398390612
Ni 3.627665551686909 3.187955504641701 11.028793210138087 -1.6107503649093422 0.5488181677263902 -3.1498119459241303
Ni 9.19200572275959 2.7600457293221026 4.500491701913139 -0.14891598110883386 0.8506304547480446 0.5503865406547747
Ni 1.3591624937684768 3.9093774335240936 11.140534125658316 -0.10681699505625475 -2.5906700276742285 -1.090990805111805
Ni 5.2180174191069275 1.4215683092118092 3.814692938910145 -1.7392846970380307 -0.5851406563065085 -0.6552001321277555
Ni 7.199808010922904 2.3168112852486047 8.878358375284389 -0.5001839516584548 1.0587828529206926 -1.6363333555847692
Ni 2.680193225971712 -0.02530092662481532 11.769078966675037 2.385514250236059 -0.2877380683167754 -1.110125726169043
Ni 8.17119456987718 5.759196886354053 6.072723370999227 -1.096425602974131 -0.5841096439388328 -0.9852287336826258
Ni 4.052512238489773 0.7975655117998706 5.888320829206745 -1.1971531973031964 0.38142829618308505 0.4514119244610742
Ni 1.6047723714912674 7.256272172737392 11.94285480559531 -1.12154888040432 -0.2449459128519136 1.1111305132844735
Ni 1.4714818901621978 5.87353681402839 9.838034156364296 -0.30928288436708673 -0.1895106147017446 -0.7775602171249318
Ni 1.6879647484653255 8.287010684788497 9.501704269375871 -0.4839536058425214 0.4095399668176366 1.7077154068721816
Ni 5.546515210186149 2.445673204866734 6.855760432536144 2.3728160859431005 0.12485919726994628 0.0995626274866866
Ni 5.571001465979555 6.842967424893666 7.0766626263799814 1.7070304649900148 0.08282885967177347 1.2920965808503166
Ni 6.319428395128452 8.281936291161378 8.918990428982266 0.2687309310866533 1.394062161351541 0.13242698231487518
Ni 6.373502978853078 1.5703126256780136 10.79157914732562 -0.1329651142065323 0.03872981247003007 1.3126587212723844
Ni 8.621976021199737 4.229257981607444 9.165630869919873 1.9079475217564883 0.4786738455008208 1.2955747692069042
Ni 6.86161351493077 4.71879857407096 7.888813790698237 -1.4712207101114145 -0.22763441815665958 -0.894641570221672
Ni 1.0190950852194238 4.4265873105107545 0.34483826117556793 1.4125774465469092 1.0123631280055727 0.4370623406076215
Ni 0.01944876684721245 1.2846150383009831 2.75931870710789 0.8013238952034328 -0.2735476357490063 -1.3335198809921098
P 6.92596605229287 3.681103529665587 0.6123621384313276 -0.04149914768505111 -0.36016115927419257 0.2799789931966469
Ni 3.390045537384273 6.819855868464696 10.732041748207143 0.5199125404356336 0.7500311584667276 0.7075675899858782
P 6.9684617923774335 3.6808267445586536 5.350519062881235 2.065602425400217 0.26980848042154826 0.9219533706627476
Ni 0.11144014237069495 0.2507460866904581 5.134289001642441 1.5033612993997014 -0.2781429684291726 0.9850258736432002
P 0.6112033314502984 4.863935457976795 4.70689127877067 -0.1389025627368898 -0.20740806380745572 -0.33920409740655133
P 8.32261447571041 8.085363508217018 1.7029581977079273 0.15406718629247013 -0.2470878988955809 0.913977808656439
P 1.2378383552291772 2.0595948853750583 0.6630147356172296 -1.4393053494600565 -1.3948080383786303 7.0852296049854875
Ni 8.711451420101191 0.5566572904268615 9.510737612649168 0.3108258033741743 -1.0494651750641926 -1.5829788512230285
Ni 4.055907469134828 7.659354323965032 8.744903668125206 -0.5044350136253247 0.2030281895722052 -0.8314302276705101
Ni 5.09892601376356 8.282720515631024 11.38855203381143 3.3490328459351035 -0.629840056096412 -4.16438416576588
Ni 8.815476489457131 3.7330468680668236 2.0927482054835846 0.5056115504319293 -0.8144254655823974 -0.6853833405793551
Ni 4.3732508204046185 5.355182891933069 9.418090256422252 0.8741200532295526 -1.8866479889477636 -1.6343106687277853
Ni 3.9689784932171635 4.383399607658856 6.802003229067468 1.0580529167332036 0.4765100050802826 0.032368131918060386
Ni 2.7454776065271553 5.218524858469639 12.3486734389135 -0.3063135173261176 0.1708066105343381 0.4565433321503685
Ni 5.076275765846147 2.8646797259132963 12.462695986331887 1.5438497464320509 -0.2840757889738398 2.5324995899810836
Ni 3.7234701033669158 7.165615824046354 3.5580873115058993 -0.6882436928462856 0.7919434824297974 0.8253279714275141
Ni 2.7672790467833046 1.180174791284643 2.1613457037690256 -0.32148611130149796 0.1548968812826171 -0.9294854173737347
Ni 8.058349281780282 1.6193681727969078 6.656098727798405 -2.656880047842398 -0.02056805395933877 -0.4405459282808477
Ni 8.702363642423533 0.47737680963080054 0.1458020907794986 3.313767594974906 -1.514705777878243 1.9461751977791195
Ni 2.2333052184866884 3.0554215692715836 6.092140768867654 -0.7227736083023553 1.7816940152421765 1.4064427944040812
Ni 2.0821805501008535 3.7404831612731106 8.79583858612018 0.05099166055651864 0.0634720524117165 -0.525957718188449
Ni 4.601192582134804 0.5707142833910043 9.670645595095033 -1.4306533302120137 0.9444425529041992 -0.6464699513436093
Ni 5.512203083096593 4.881908037587027 2.619612347000096 0.20072113870558334 0.1640266114980272 -0.6460511186386357
Ni 5.724977020966809 5.721148160320891 5.103703324709237 -0.0928438207056143 0.4004624299964007 -0.43454960148809674
Ni 4.9420995721748895 5.0539945647379785 11.680739309329034 -0.6936556078904763 1.23778948276732 -0.29801502476275127
Ni 8.58929692624109 7.51735433793778 3.945460062681002 -2.7240868847061988 1.0179092546347825 0.337491999811451
Ni 9.08821130765943 5.238102791700087 11.924003894579073 -1.3368900830159234 0.8172966164826053 0.2941311163273128
Ni 0.050755007675467326 6.750493520667095 0.20950971884244293 0.482759328424104 1.1035640137911253 -0.31456958668732277
Ni 1.015137058190271 1.7357009532411685 7.4474670210540275 2.3296534345126974 0.9413163485703917 1.5823530447135716
Ni 0.5603468359022886 0.8588466570920289 11.543017498437955 1.2934821483439334 0.0010520954135981879 0.2403132991759087
Ni 6.936363946143349 6.19088016529818 9.84419170237655 -1.7231767357325742 -0.15637398004877587 -0.1557476593186866
Ni 5.020946422970087 3.5191473374284112 4.795582453202479 -2.292218943815323 -0.033606118090219544 -0.5068716480912754
P 2.831170275633849 5.7877242047086925 7.818771474154603 -0.016943569832874046 1.5661257842214318 0.9696277939205752
Ni 7.837502444957833 9.074491992525747 11.573090200306309 -2.046303467961289 -1.1493427626881365 -0.1321181928252047
P 8.793702727711675 2.485825497712592 10.507263640249212 -0.28574854869057237 1.059553155427814 0.25859101443917404
Ni 3.9073107713923214 4.342915172684678 0.7160707501483395 -0.1629837720558096 -0.17112439888507303 0.02395111149895875
P 7.010948306291766 6.876236994747104 11.838203279280677 0.12447044647195982 -0.5934700021078102 0.6863094519380503
P 4.980784903953998 2.901206133858322 9.30410830415288 0.6846346353387887 -0.002334047449815335 -0.22509185424046396
P 4.0211155811932535 3.4198829719117327 2.8621065470358356 -0.5478105523974823 -1.5287697121704766 -0.31066896608133593
Ni 7.571004517831775 8.023612750860096 6.130207024624254 0.30030459212787636 1.1272593005255358 0.59653295730385
Ni 8.191962679067442 6.994461140088745 8.258092176816056 1.7694465653333913 0.3982656794553979 -1.2637370558710173
Ni 7.3733891776512985 0.8006811894869217 4.438605319853819 -0.9037874983869982 -0.01820829547791058 -0.3479229653367879
Ni 2.0633407104888954 8.05929957731409 7.34083094552268 -1.1094145590346314 0.6740568598229424 -1.0443059994607562
Ni 7.700715245111167 5.091655791621433 3.6479520547911077 0.3863910395049991 -0.09660920128531748 2.40975743905414
Ni 4.940595706427216 9.084077983395886 2.029322898229713 -1.3511291094334408 -1.302440643088802 -0.3602637462903279
Ni 3.585474275219972 2.093316537569822 7.829803205899959 -1.1747804860349509 -0.3450633844008057 1.2358868664279685
Ni 4.947681405164721 2.145389042354294 1.3379755164497202 0.835005346616278 0.24826186459902408 -0.012524871939888107
Ni 6.956772234694598 2.7264255649998814 3.178775465261731 0.49806304866071 1.5081031849600608 -0.2972971727601203
Ni 6.142359736052692 7.105295123075256 3.1292318537376107 1.1063824570765268 0.8816778109721525 -0.45337444750408373
Ni 9.121231770916628 3.609102497181884 6.8162631977766965 -1.8042431041872864 -1.2329025869886636 -1.0716928761141413
Ni 2.016988431247721 8.659674152764115 0.4695308744662514 -0.5168709253958323 0.31798118347203297 0.48756472023254743
Ni 1.381692801472885 8.52583932739141 3.293798129533172 1.0294005431038336 -0.2590936651072054 -0.8974253036143963
Ni 6.932821096774597 4.350499084614663 11.059918618029812 1.2902014207101329 -2.3301797393298127 0.5207080397537355
Ni 9.124968369860234 2.744536537163581 12.916830227916437 -3.8837960782303242 1.129972842801957 -2.5825198877632682
Ni 5.703729150924526 5.915322139005157 0.1023523646930364 1.5127234573408914 -1.0085445255904308 0.8291198343697785
Ni 7.050528576583295 0.6460109038812653 2.1032540455257673 0.20458550675699602 -0.5352841377956974 -0.6173439805119303
Ni 7.662768006950548 5.745357631007365 1.5294259296817583 -1.0470251981641323 0.1487709708905373 -1.4061738570134104
Ni 0.44867142619069994 6.263877624166845 2.6011664648570068 1.8739192285271855 -1.6959860342503952 -0.6562594266302053
Ni 8.920553342219419 7.196966350491718 10.696365993157428 -0.3273320285593137 0.6892132558484065 -0.785950498071156
Ni 3.6660925506995463 7.125795673328816 5.9949430654827465 -0.25229309724560417 -0.02858295384401529 -0.43040395475083937
Ni 2.4071539441517853 6.28465495952734 1.1719653450129877 0.3484983782242837 0.8549064564155793 -0.3934564309922127
Ni 6.750567330028944 8.201013552064175 0.05664314951697158 -0.6266925116063659 -0.5630484523931594 0.5951805570410137
Ni 4.1281483820445395 7.466656532517746 13.006803840010372 -2.770311462891377 -0.7712394171132265 3.116008110000808
Ni 5.56095416659786 8.634089982713204 4.9447410247120605 -0.04523496057839951 -2.0205682679787134 -0.5025524518906312
P 4.468815491658616 6.891580115841466 1.677747687551377 0.44289231702583726 -0.16538518240845065 -1.3901312017282508
Ni 2.1492640338513667 1.427362344116956 9.734354145775 -0.08326620431950821 0.33803655946101135 0.1499243677686902
P 2.1986701754390436 0.21054950822749077 5.0313111026077335 1.0804019738523651 -0.9051663810123959 0.032827330942666044
Ni 2.707548820706999 5.388655437531592 4.701476439462022 1.0614917672114237 -2.0885045268093707 -0.3841860614338803
P 5.84336723737261 0.13010468474826176 7.001530231719834 0.5948486276228917 -0.10405691581261434 0.45625948236136266
P 4.862247068824498 0.6463910220947876 12.544715717069568 -0.4028682112244158 2.18573387817719 1.4482005950671575
P 0.0238431917282975 9.269533231211739 7.376182861997283 -0.9349186725741641 -4.616138818278353 0.818119626604533
Ni 2.566296154468468 2.2164121007934976 4.229058696330451 0.4635349329768532 -0.47395381431733213 -2.0379674372917678
