# total energy = -340862.3429830691 ev
CRYSTAL
PRIMVEC
9.35649248972568 0.00000000000000 0.00000000000000

0.00000000000000 9.35649248972568 0.00000000000000

0.00000000000000 0.00000000000000 13.69417252747111

PRIMCOORD
 96 1
Ni 6.308586856892666 8.385222894635362 6.290239711161679 0.6812171250168074 -1.4132878423503723 0.1822739877439893
Ni 6.679543706704713 1.4750042270189476 0.24958162488161578 0.8896083786731388 0.4013638587647475 -0.27279867339812375
Ni 4.857535250135499 9.313143660979852 13.394160224757586 1.4994462806160112 -1.9814674453225098 1.4340842102704334
Ni 0.4014440442889959 5.3126163221247635 5.162168604351595 -1.2697326113328198 -0.12670190690563984 0.599125914842007
Ni 3.602960624970968 7.06020323902124 13.104432698408305 -0.15441222833671472 0.0679156900053669 -0.6128748889969832
Ni 0.5794943499661804 7.8921357509651 4.386407793869299 -0.127643959103935 0.5806813349835741 0.6702341436427425
Ni 4.3013759919399766 1.817573479223868 1.2843179785044443 -0.04910164262265737 1.1998703391240433 -1.3385021646980497
Ni 1.5782250499595611 2.137762001871687 10.010179880985351 0.23966615251021303 -1.9959399279070722 -0.45446125281035926
Ni 6.426394451313012 5.1333927123144445 5.231982071571626 0.892698073342056 -0.5800210756917559 -0.26211753953519373
Ni 8.668144508493073 7.104365882628899 12.492426409033671 -2.2949353143052216 -1.200039774822372 2.351390054858841
Ni 1.0178927962028057 3.812854816507116 0.56948196756691 -0.4920908902376751 1.3635364819588582 0.07488183691055492
Ni 2.448687597152645 8.423378670192998 1.0648549023035605 -0.6891165823695422 0.23957436412735514 -2.2191795594301458
Ni 4.681287004873322 1.9324712045421002 9.865336702093748 0.9961759767227488 0.5027121173969471 -0.250615195322549
Ni 2.264093360768004 5.053375990252431 10.03649969379644 0.20106695208077632 2.266673234135735 -2.6534993042956234
Ni 5.140934045099989 7.355915177839051 1.4194556679438817 -2.3592740855926078 -0.512023367495544 0.826493452490525
Ni 1.1048894615129783 2.9105053435905357 3.7939434742910567 -0.6571300021606167 -2.63028301408016 1.8781227250855719
Ni 1.272716863714373 1.7319241488034207 12.580411119929641 1.3550040190078148 0.29021069822698403 -0.7050684777131083
Ni 3.935892690117438 5.498352050568756 3.8183601765704096 -0.08275249790788329 -0.3463669337035777 -0.11067827778387389
Ni 1.8066825221985894 0.49574906572669875 8.095296075000308 -0.6704539729630324 0.10923614602070864 -0.033852686883386864
Ni 2.513874278935391 4.695752141953289 6.176975629397238 0.9925394084114262 0.23390559587735202 -0.28203664705662396
Ni 3.764528533830514 8.531782989862137 7.545639578946167 0.9949909552757122 -0.3376028143577025 -0.9258519343862054
Ni 6.958526237308437 3.6618223179658376 10.57249009721216 -2.1624849349515793 0.9995076121991431 0.341371023150883
Ni 4.298569044253049 5.229614879022318 0.6689283815178352 -0.33568862805412514 -0.8476230353802887 0.8028015081902239
Ni 3.092358127734278 2.9857970370462206 8.476583427949478 -0.6503947403193121 0.5202897212693942 -0.9497886477074611
P 1.2875375475013502 8.070470494007893 12.764200697977365 0.8003461046711958 -0.09542392272796468 0.25979300516707515
P 8.996005354818495 2.217086343504258 0.15442890524246075 -2.261018092732487 -0.5454317677526607 0.326774870504263
P 4.913066031875215 0.46339805798563044 5.602312972049489 -0.49352093781598233 -1.2166079635936984 -0.9416241096187976
P 0.10100707686485677 0.3972925686600301 9.540620572826912 -0.816024177528085 -0.2294323905973468 0.4506670758752497
P 0.478705279371675 9.1366895728873 6.213730738059096 0.6203565420860091 -0.7591937988026022 1.1607348065751621
P 9.281191239810326 5.847031092238888 0.6433645732837575 0.16156143778698628 -0.5557825148593655 0.0902449496301865
P 5.894824054854974 5.234770306273974 2.846717457405108 -0.5131705937261097 -0.0970185209085942 -1.1324251609971916
P 7.7962410614873665 8.11704711262631 3.511897628111666 0.07965920369454023 1.0338547222204453 0.0461790696592237
Ni 6.1970293993218775 2.6393635535256297 5.867829638949792 2.0601372885205875 -2.612027153193766 -1.959035598681555
Ni 8.303765272760726 4.275888906942675 12.91875310891805 0.00691369640069777 0.7015910606874691 0.30849766946163
Ni 3.65590901483871 1.5541227258211436 3.4456592765955514 -0.4064459012733452 -0.6433684296001502 1.5096275920243871
Ni 3.379050407984762 3.5092927806581975 11.397769207488771 0.7238948663909921 0.39569509051474433 0.5289659088871536
Ni 3.714059614419558 1.43541690814098 12.367645420909767 -0.9961623498759942 0.4653370191825986 -0.4079980762518135
Ni 7.829709234407832 5.997249575950958 3.3237675732907253 -0.020286261052861836 -0.0351354102505524 0.2314291093124014
Ni 2.6871097336802663 3.7092784468594915 2.468758208763406 1.2791436202340745 0.563567815231739 0.3510615109657696
Ni 8.367005804147203 2.5825790018190866 7.161914859755515 0.45533568499551264 0.8712352754825898 0.3566649731954761
Ni 4.3597792168126475 8.346533799017212 11.20843310081168 -0.8608611313371173 -1.0238981252283657 -0.042612178243571774
Ni 1.5463755502052239 7.058556496378243 6.771767844257174 -0.47688975701720454 0.4804054834799469 -0.35325903283772064
Ni 6.233472936790486 0.15358120704100867 10.693546265755511 0.40707350755501504 0.9549964171606455 1.6673128346854187
Ni 9.107151126728533 3.7704044109884824 9.205551484841463 0.014635233414671567 0.6429634808522475 0.8852195055768238
Ni 2.0562295280587333 7.672585659385921 9.1960883285396 1.267347913150727 -2.585452488029031 -2.8701988207073343
Ni 9.207012968937123 6.1764076903152505 8.740359787283886 -0.8010256472367236 -0.6275779995351127 -1.7954594444573853
Ni 9.00582967172274 0.03710129887657859 11.98472910265295 -0.4306914040842711 0.30427694651206305 -1.0718656542465799
Ni 8.761325815206776 2.5641092860391037 11.390100626408087 1.2711541742706947 -0.5844698554917289 1.501469224583311
Ni 7.739231953965869 7.881048307601735 9.980367289602492 3.0968965859823374 0.7071556992594402 0.4803352923636437
Ni 6.70249518229149 0.4489114009733977 4.46723104556669 0.32742047450806194 0.13057141716337511 -1.4991621737166891
Ni 7.731999385425886 1.8212692936783228 9.606242331501132 -0.854246197123761 -2.3851686939711825 -2.4674128847840797
Ni 4.943521414278379 4.043763689726061 6.826667998416561 -3.962632528913253 1.0463258581042625 0.8543328433002965
Ni 0.2069599955540798 4.629349116172874 2.817932208875667 0.014929367616322676 0.8465675975325808 -1.3453294720325282
Ni 5.805142076257641 7.188003567207049 4.174996914932982 -0.25336627570512493 0.5120043413321504 -0.8970622638480228
Ni 1.862222660430595 9.036724809263523 10.797292923562809 0.056226169482580586 2.226808536730313 2.217564649534542
Ni 1.5800589224483537 2.2972340564583273 6.387660444531871 -2.5679155075865325 0.4821216948401051 -0.607365786253296
P 6.211354189017498 2.4420444876269167 7.889445759431794 -0.14439932418540294 -0.8601697616970476 3.0454395557536262
P 1.8034638888509127 6.183200503717615 3.813306735084711 0.6596229437857996 -0.20736332661244933 0.31106774418165134
P 7.7291456552775095 5.586555703384308 10.49869169992592 1.2659929417847293 1.8858036386695973 -0.6595897765550189
P 1.679621356903672 0.34223428978094733 2.6405920609632747 -0.35676627466003075 -3.4780194351098617 5.056478029865033
P 5.750902490453912 2.0250162697800995 11.886103253075838 0.395948344176131 -0.5833151730619953 -0.4051930027028505
P 3.298846556076954 6.225351501482976 7.82364529175484 -1.6219943132542773 -0.21312722567942002 0.4518340996001573
P 3.743672912516643 0.05026775482672648 9.468109628879745 -0.4696166203945589 0.26063581278334463 -0.14210461461395527
P 4.1223862944369 3.3608520304811824 4.764585984430583 -0.8648034038143171 0.41543987724183934 0.46198841442533983
Ni 0.14635986629177322 7.511878547817032 2.1503960734105476 -0.12575291272880923 -0.6780803791600387 -0.7873337515719279
Ni 8.779935878371106 1.3529207156221812 5.290578975834697 -0.10187816299374068 0.37645886799295164 -1.4854306830632096
Ni 2.2842191756832735 0.19284011303960555 5.137039873008992 0.5085582917650789 0.07656410970898427 -0.49132932948130215
Ni 1.8011996177167913 5.521172535263476 12.403387221456644 -0.5758620592180598 0.08929055613671719 0.7501717978096499
Ni 0.5128227928570497 6.957936778294181 10.696503852968304 1.1276439375584644 -0.10082863868330376 0.4811426187562875
Ni 4.683934892191324 4.557650315756456 9.303806817323903 0.2593029529045341 0.6817449724958193 0.10433742316751064
Ni 6.550227626767963 5.68442461273518 0.25924033187233325 1.6570970704946817 1.6470003483803117 1.5756321810499703
Ni 5.9973431408738564 6.2714322260100355 11.763992607851431 0.1066709563966937 -1.6266778347728756 -0.9628002294757806
Ni 5.144227530385984 6.462529224536059 7.067041899235824 2.3100919674410023 -0.3364630443263044 0.04681104681626777
Ni 5.857229668834726 2.6717463733404836 3.648989888790434 0.6698353655424271 0.4251195664234485 -1.6824918564187024
Ni 3.5704281012794783 1.5729854142772963 6.6096020555403125 1.8664144355097083 1.0072304347646976 0.6713091218744761
Ni 5.8073689214226025 7.127719687384135 9.516860696306301 -2.5023755169021937 -1.7828378990386329 -0.7446660375000723
Ni 8.165878645886558 0.16698344659685846 7.592432332536477 2.5591182210098764 -0.008478726894972496 -0.46290784091581566
Ni 9.177287392932561 0.12308091347485457 0.8534075330473128 0.4796662913210772 -0.1825282698466405 -1.0109472214946527
Ni 7.11087800126257 8.307564008630369 1.2428471977285487 1.8186639075983067 1.4785421834734924 0.928319936310724
Ni 6.478977937981455 3.518630559963376 1.5056196054402657 0.21289865460838175 0.7131527973831396 0.26167530979145254
Ni 1.6559587879028732 1.5930363772542484 1.2585792038645482 0.9546554888814591 3.753263484724685 -2.497462138760976
Ni 8.18600446080183 1.6156323061340148 2.4486688841680655 -0.3484868082600579 0.7689580772782176 0.25930475267674696
Ni 2.0943104516780497 6.028996154290108 1.7049933570458093 0.3070174853716777 -0.14854188559886675 -0.8372062109223389
Ni 3.6882263392075356 7.314671759825797 5.3840830815323955 -0.4725993571719667 0.3439794073080076 0.3734825589734471
Ni 6.291483188986987 9.116320489172496 8.43810204646016 -2.7329931860568935 0.9535326881309256 0.7557032691508405
Ni 5.777718197356359 3.877124562045466 12.894323307549492 -0.6070929922078835 -0.8208069436287089 -0.622074038997748
Ni 6.934040296986139 4.536542069150761 7.6827318396249344 1.1618658348558122 0.9765090944214408 1.6583186016066087
Ni 3.117573874455177 8.15651279710451 3.2244568284780013 0.5157959471640987 -0.763324276031208 0.526681740838667
P 7.673942350767936 6.34983027490592 6.746543676693214 -0.06562098043391924 0.6259497199030704 -0.0938475793797803
P 4.081386145223179 6.059769657431123 10.845332897575343 -1.0123916672506628 0.19922012868002462 0.3353798385644547
P 1.1209639152667832 3.9672462957804178 7.627804551637908 -0.21038797237138607 -0.07626509041132673 0.09540901032962923
P 1.2246712758064642 3.73450355007268 11.188836863360013 -1.665988973667673 0.6262040020057215 2.242237212580558
P 3.1059156850621377 3.467506686092137 0.4192803255409621 0.747648517167164 -0.674418099817103 -1.780116900563044
P 5.276256993086763 0.1384985414699183 2.061315717267446 0.23475663102373762 -0.7179160230997378 0.4223790275638339
P 8.051589092567161 3.475094801339131 4.503177753294713 0.47067282957321527 -0.42921996174506727 -0.3732976966561507
P 6.478023575767899 7.836062292672578 12.976282437410857 -0.08690534373399228 1.2101730066016319 0.29817649004128
