# total energy = -381169.8992537497 ev
CRYSTAL
PRIMVEC
9.24248571167840 0.00000000000000 0.00000000000000

0.00000000000000 9.24248571167840 0.00000000000000

0.00000000000000 0.00000000000000 13.52731208381090

PRIMCOORD
 96 1
Ni 8.716653076896083 1.805695212717232 3.1453704265194786 -0.34088765575656127 -0.033352607318516754 -0.35691874107749505
Ni 2.357490101310838 6.478418770157005 13.606176700033007 -0.14203416638733604 -0.23862639839178904 0.11084977036473168
Ni 0.19769769599856102 8.9083699603187 10.10492897814901 -0.2464237829490208 1.490349974741698 0.5463761339438009
Ni 6.199730095141713 2.5185034468300707 7.37369770487532 1.7198013915024384 -0.8282171200498512 1.4719804710955746
Ni 5.241247345372671 5.245887073255724 7.885841405040474 1.0861473609765746 -0.29141166051362066 -0.08714368499704347
Ni 7.520462834250102 5.744260393793469 3.570696684605199 0.06930125749898387 -0.38289793875007605 0.25495136080405767
Ni 4.125910368704663 4.597175478324097 9.876277272881264 0.46518480987545047 -0.4525730346487109 0.3711685661282898
Ni 5.182289528308944 5.155190559876456 1.89609596655017 -2.2485418146423464 -0.03906302743973273 0.5570719230947503
Ni 4.642593053657402 7.201227373930127 6.281542731148092 -0.24244628635851148 0.053221064107669636 0.845954132318298
Ni 3.4055879936178783 8.251746797522745 4.103402142980366 1.6229386794454177 -0.8091871000015934 -2.675168047518309
Ni 4.875679303622933 6.949637667347324 13.303867928248932 -0.04469965690021979 -0.8219629116100231 0.11284057554251534
Ni 4.53536173314112 2.497421336668233 6.049210668025703 -1.8689001780460393 0.505087302497343 -1.9587504633409687
Ni 9.001552702384306 0.01451347548756389 0.9947521126349257 -0.10039257958714969 1.0117113533541866 1.4228135224526206
Ni 2.82681428890748 -0.12874320626887933 9.481076897335003 -2.5544079600184006 0.8875224426783876 0.34156642699114076
Ni 0.9854708083716565 6.474490713682309 1.965586520457575 -1.3377511454646378 -2.211374204453114 0.24195906230944778
Ni 0.7910421796086246 0.41125364917190527 7.987891388004486 0.45274606989146543 -0.38024970249395157 -0.7678273061078841
Ni 7.213658517361812 3.340964532744767 11.910297931116698 0.19588746476236585 -0.47461407360915037 -0.4938438683730398
Ni 5.336491161776763 1.109523453085458 3.7774612591959404 -0.0671135058190457 -0.9578156317769955 -0.773345664822952
Ni 9.192641096770974 3.9805907641125686 10.290781504317053 -1.5461208018544146 -1.0580950828250486 1.333505997035039
Ni 4.507726700530908 5.971431452832399 4.079918835001762 -1.060684955039412 0.496133435738165 -0.8140554838374883
Ni 1.5548079350569624 3.9987245212969285 8.756743283401118 0.5420862483191955 -0.5865961578061123 -1.8096439634878834
Ni 3.646142172128243 7.014418250479424 8.952361420089545 -0.9025857647694132 -1.2457388195213837 -0.37629226050810033
Ni 2.1839716724733393 3.942927634384604 11.274486997896553 0.07242180540583658 -0.6298883928358443 0.1662138489573331
Ni 7.966366562771735 5.908887551269421 0.9507735923442328 1.052077415876059 -0.18701304509087147 0.3837152924450488
P 3.1453473203049214 6.6002809457308 2.2749020207439243 1.0452732484700322 -0.37264386512223563 0.0558315051473232
Ni 0.3240979321113572 7.389764842229699 4.132742414224888 0.23021220618616478 -0.021034966293428287 -0.3111695598668383
P 8.611926470037783 6.939738965031091 10.612988423829064 0.17820933075631246 -0.9824203176995531 0.9084303964756484
Ni 6.68129133396776 3.7345003365943388 9.486352508242666 0.0832806024972114 0.07312860166487406 -0.06899143956804893
P 5.614126193408255 7.32745200281229 8.5157537838085 1.701569441875444 0.012721818442042605 -0.2774785953722963
P 1.5090668727198588 0.1409248025833474 4.173419518579672 -0.4676520404690204 0.4766051358972501 -0.1797355375928517
P 2.397620974753494 8.112453293687125 7.499325269173329 -0.1444170647972158 0.495833902219875 -0.2745081998900627
Ni 4.433176809884095 8.691827759976006 1.7587942184093657 0.25281168875323556 0.06453108980385015 -0.3562003748542317
Ni 8.996164333149606 7.647962926175813 12.949222656244595 0.11846974880383467 -0.8797775086256462 -0.906399996309181
Ni 1.0962327584722524 4.328893842345291 6.400028626650813 -1.1596150911484222 0.5369972638320623 -1.234330577684442
Ni 3.132685114727667 1.359569664535852 2.8658832007290944 0.14991074092193538 -1.6406934323256777 -0.6494449748115331
Ni 4.346131078404839 8.20474875711374 10.788396941017327 1.4134184543909658 0.9230316913285909 0.7295199258872532
Ni 0.7701643283834715 6.461477293643789 7.5189803395241235 -0.017252873543176738 0.16186919883539222 0.4202108162679215
Ni 2.2581056512581257 2.743613431530514 4.229598120156479 -0.8861548729068996 1.0756328345984958 2.802590891750373
Ni 1.9730396610250918 2.3255295853355493 6.817643878814561 2.124906976697805 -0.25262914042878426 1.6360945001010854
Ni 1.6649044261783155 5.8960312534898875 9.75565451465631 -0.8033198425875392 1.5356726099378972 1.354334503744616
Ni 6.126243090364523 0.19049964803975394 8.784745242698495 -0.28261745926075843 0.42767704273797963 -0.6274823544975128
Ni 2.0726089607942604 8.383526160384418 1.5656512194242869 -0.011614187200160645 2.426447755225628 -0.11595161036767125
Ni 4.559614015940182 3.505083353500465 3.528301402135954 0.9489746364465981 -0.39754345657739276 1.9334636637497218
Ni 0.3790657680453753 2.5029113732469845 12.414081802855117 1.1128855483023672 -0.15403581883390247 -0.8369395875245135
Ni 6.732984557174754 8.290907209954005 -0.05027172888744667 0.2273567390152407 -0.281320851936522 0.8935822757192223
Ni 1.5655846735263628 7.864200124486357 11.393325032109122 0.1288138110423201 -1.9024294201517367 -0.4271296548749418
Ni 7.121418508850134 6.794955424616719 6.911969916376448 -0.6625660855745233 -0.47077310259650534 -0.9421642983929839
Ni 3.492670695040426 4.312294337807519 13.410638972971238 -0.19918310479450213 1.556246834544823 1.6233551981575463
Ni 4.772718011556791 2.589485737949277 1.3498974031222777 0.19453172206541983 -0.01327152029792553 0.010713015542129938
Ni 8.162408929559431 2.2883563073561937 0.6518651310943713 -0.8090215209580068 1.457327239958774 2.272369513189564
Ni 1.2794557974237053 4.2443158545807265 0.40479684857608783 -0.5994951252559675 -0.30215527218336996 0.3940066470687279
Ni 7.932603762060999 1.5026803150162948 9.699921400896162 -0.09835857987625642 0.8445451677859133 0.2815021147093926
Ni 9.017375838112962 2.57503973260822 7.715789832635113 -0.8927975750343979 0.041432813223489934 0.14120627116940196
Ni 1.2554807891993272 2.172021138304441 1.539813850306612 -1.472460753166103 0.04258312477784924 0.5272872356331499
Ni 4.122962015727186 0.8037311883947651 7.951367856778474 -0.27616476165687925 1.772837079072179 -0.9620502386836335
Ni 9.166272284718486 4.002597122856687 2.322802127769237 -0.9522697622581019 0.5151187185914161 -0.2036838208783331
P 1.2546212380178057 0.22740951517315927 12.901809628222145 -1.0299839264111292 1.296905572203186 0.22813269794931676
Ni 8.327757000929562 5.266239027037559 8.61072956812373 0.0006723434766762614 0.9924864436863037 0.9423504462618609
P 8.698352954966913 5.971135693286069 5.6133886430395945 0.7001468720417747 -0.3096752347094989 -0.11613415869212257
Ni 6.9190265543021665 2.529862461906308 4.826219989239311 -1.2836505069654927 -1.2929203623031926 0.9659295191333817
P 5.350382617968452 5.0242799906821265 12.204922500187683 -1.299153487697098 -0.9403629835181868 -0.48947376432980216
P 8.329134131317161 7.589744507977913 2.311980101119305 -0.1290979179416422 0.6259427779245349 -0.04715840285335749
P 6.033393077788539 0.8121575627194241 1.183925463959106 0.5135716858192704 0.11403331029903588 -0.5329544612212564
Ni 3.115891517987615 0.5019261320880339 5.722634825465249 -0.26509744809912406 0.28353662864091816 0.9542045173869694
Ni 8.63592920571963 3.8639043805995494 4.736588210226832 1.035206094042017 0.3875112691523713 -1.7879945035389075
Ni 6.022422247116861 0.18855872601696314 5.913491233457764 0.03881851552909444 0.566778865969869 0.9077873635750109
Ni 6.196412042731323 7.082470673592798 2.0414340561139106 0.04999715785373325 1.9871706663548747 0.9900870902161916
Ni 4.604227495006904 2.889894254648181 12.315319372098278 0.9310666458179255 -0.4352795376755858 -0.4954883459549983
Ni 5.375023085172073 1.875152493675675 10.482057521165924 0.058169152141564325 -0.3358719477095248 -1.5438132367671606
Ni 5.1300694834100495 0.5613303612170025 12.488022613686207 0.0401788862117308 0.4597559255503953 1.1100033416585655
Ni 2.9412639908513785 1.3800972255483206 0.49330751405826045 1.2960452810854195 -0.5507020150126646 -1.4608529937238455
Ni 7.889284231009472 7.930551930208334 8.778035197991132 0.161808777911102 -0.7546737994450615 -0.2385631492540214
Ni 6.0754833582256325 6.602739446959668 10.70072641749645 -1.2303854769937648 0.2869189148495897 -2.8021034105909934
Ni 6.7696310134622095 8.94480383943223 10.992470103736464 0.18668574365843976 -0.9101579206897165 -0.5452541045242157
Ni 3.1384524258811024 8.563292509638138 12.694151305252337 1.8929374215009012 -0.3427681606087258 1.935928066129814
Ni 1.273965760844954 1.9576786495875758 9.589051313711439 0.6340582079428176 -0.45056963106543696 1.6410482445619352
Ni 7.90892451338295 9.149672780180714 4.34429644496901 -0.6255673968629872 -0.19523826121414117 -0.3695125185821056
Ni 7.729195134072521 4.208260917385932 6.719638407646612 -0.3241163498354934 0.2609021790708539 1.4203825444136249
Ni 0.37033808868289264 1.662852594325651 5.362591941740389 -0.7628771611914603 -1.1193688420338659 0.07606840101948835
Ni 1.2627546255418816 5.002846666059022 3.993533017010254 1.0094238428715905 1.157213166575149 0.7995634608689003
Ni 5.95231799215082 4.843413785615491 5.5790962478912105 -1.0601205978955097 -0.17590716498569706 -0.6906489598536686
Ni 2.259963390908511 7.051184859082575 5.6188934675956625 -0.624327353808299 -0.8818693581576683 0.5888785260823859
Ni 3.3630355888896455 6.159645434128171 11.523200442891298 0.3716650461487341 -0.19085478743446488 -0.1525800602239824
Ni 6.454074062499714 4.137685295642928 0.5143868514743509 0.9581347056793111 -1.1657913951624632 -1.0733286119453513
Ni 2.7651022110685552 1.460368214919455 11.52022436245635 -0.12115038095979136 -0.2743678176574565 -0.21949019178297038
Ni 2.636908932706133 4.000101651684528 2.374314198254105 0.22887189010818648 1.0331055027592466 -1.7856116051290278
Ni 7.261867323413607 5.830058389686646 12.288656648996627 2.4735485653681724 -0.04448856933067822 1.2248007838171358
Ni 9.134829347949275 8.24181112526322 6.353440028363758 -0.8553700263155593 0.6446092439857866 -0.6086407963109777
P 7.823450004493572 0.648332653012892 7.35873596882535 0.00939275406880963 0.22054151586562018 -0.12315481298432986
Ni 0.4594624552237 5.390282429265538 12.239849854112096 -0.35829556682036356 0.7036034631318075 -1.3476568346141242
P 3.4323172626174547 4.537727809511761 5.340488536895131 -0.35488782669039526 -0.8153428351903441 0.48180030694494447
Ni 7.820316801799637 0.9016627196761314 12.59131663524197 0.02173713456677547 -0.11178179526069781 -1.664887770183694
P 5.760924595732001 7.713880335064119 4.490242690099892 0.6140807363796262 1.0652862012568491 -0.48311902575636795
P 3.4069281540621863 2.810778576004899 8.9650236256668 -0.04942045941465682 -1.521441811050496 -0.07452393935050391
P 6.75707971771483 3.5040112251450184 2.935480967472044 0.6420589667601072 0.6952923721629508 -0.7969165101643566
Ni 2.866150308569374 5.313810101567579 7.399291072367273 1.753960039662018 0.4529805544997747 -0.4759181371325546
