# total energy = -340868.41090452427 ev
CRYSTAL
PRIMVEC
9.26737106729413 0.00000000000000 0.00000000000000
0.00000000000000 9.26737106729413 0.00000000000000
0.00000000000000 0.00000000000000 13.56373431720708
PRIMCOORD
 96 1
Ni 4.265724493116695 5.737966838025932 12.124920246997384 -0.3339176521966314 -0.7419141857865481 -0.513608966815109
Ni 2.342856237698329 9.075184172277432 10.908104252378358 0.5802334488128781 1.1227457289258989 -0.49715724901698893
Ni 7.695356050084843 1.8772542557982954 0.25184914511886936 -0.4739057346882161 1.2464695270398212 -1.2815380886081797
Ni 8.959703463365262 8.584161791970685 11.344083083163893 0.313968205657898 -0.8533514532236336 1.0095439133892228
Ni 2.5636698843759844 9.13497724939013 5.737635992884438 1.1258230822996418 0.1858596482127186 0.7472327697859841
Ni 5.8163873306681575 2.701883454130907 12.213043676982602 0.2997777730901289 -1.7773401091488552 0.9412433292406113
Ni 3.4857918246840423 2.11278448748137 5.147152481020914 0.5422096612709372 -0.11019722438239732 0.30296208435538147
Ni 6.3840508684023725 7.683002644661529 8.956499733241602 0.03888433577002335 -0.02788078557066811 -0.6931989799690319
Ni 7.542629777484526 3.093680094102001 2.3233456417210565 0.8922563578189472 -0.06364945852984522 0.8146411811376292
Ni 5.5517019501015525 9.28488624123374 12.441294388815706 -1.7595511605965504 -0.6443125386809742 0.42507765744191955
Ni 3.075562383972534 4.115824768643993 6.85285936063734 -0.38198648267940016 0.6429051168104863 1.3725008902409974
Ni 6.932308531450599 4.175256418291191 13.616768641804267 0.691269624156803 0.13204208817163066 -0.9093688491295178
Ni 6.564912879086098 5.253097992003565 7.3608753189821465 -0.7991819091597656 -0.39633889474633033 0.12514124728673934
Ni 5.320657125939021 0.9645108948513739 6.797126318720407 0.14606617036486455 -1.4178080988182291 0.4670766275815247
Ni 9.037039673610993 6.229860351198241 12.499631561958406 -1.093832131215342 0.3674978021449219 -0.15118035166297833
Ni 0.8000215483547225 0.4361234017717354 13.41481780187726 0.22616297581745565 -0.10930350892353434 -0.46614280291334564
Ni 1.7310614796896786 3.2199850922373 0.17516721125939932 -0.041251550450619276 -0.03569616785002885 0.6775615305420911
Ni 9.23532434160592 1.2009122594000086 1.923608718354092 0.06947789228616422 0.08698581926294051 1.312739968132281
Ni 5.279241245341278 2.192196588810989 1.059744251798909 0.043063921069009706 -0.06516512384342325 0.09008528412387065
Ni 2.963325254878939 5.158385461301183 9.59046852962712 -1.6279685285598413 1.4460827773932063 -0.29371254073265546
Ni 3.7183008934503867 8.54536857734053 8.073107062704418 -0.8826280907005638 -0.07185744826193431 0.08321709624912764
Ni 8.28875507683672 7.992152870855339 5.10734263580191 -1.4597965274348732 -1.0695737728886097 0.49578710814233967
Ni 5.714557459106732 4.49041190083482 1.9575319295709284 -0.7941062944090711 0.7392289256449011 1.7286403299503066
Ni 1.9518102547709624 2.112089434663104 11.855679953628409 -0.5689907860195232 -1.29307128605876 -1.3859760419092968
P 4.397905004409068 4.034271904634114 13.74792974229652 0.483532973365335 0.026496246518315655 -0.6967033935778646
P 6.475732968817114 6.85765059139792 1.7588098416690394 -1.3902039639477155 0.565635239283729 0.8985013102873946
P 0.2095686188152026 7.70606913085705 0.5542193627547672 -0.003403883475226396 -0.8336802000469513 -0.13737712723129888
P 2.1792408042785105 0.9331593790621218 1.8043839915941962 -0.4559224107369181 -0.32537619038452353 -1.2156533129899127
P 3.947028874885365 7.727235806015977 13.002358631724757 -0.5527128747951062 1.2834211645635059 -0.6580396584590796
P 0.68311366432238 -0.015797160453549827 4.573107431677927 -0.8534681813071561 1.5056935470773036 -0.004646240522759739
P 4.144006843581951 3.2757561303749645 8.966496446242449 -1.0840244010963007 -0.8594812202704553 -0.9513814461158775
P 0.5437463068891352 6.367805167196768 9.308926728111926 0.43646995843926123 0.5515443084083017 -0.059982294090903145
Ni 2.0182851063099236 6.305954733742004 13.101943019314637 0.7138020009313641 -0.7139588382242027 1.103329529182816
Ni 5.1742790024122 5.202025510917379 9.512043403299439 1.4716642254067362 0.7106482857937308 -1.1697143843659532
Ni 6.680013625790949 6.6652229018182485 13.151138857791505 -0.4831822748941355 -0.6594859039873029 0.003043671922330242
Ni 6.407460247321572 4.924282404738282 11.383635295471594 0.7875363545010373 0.9157112464077779 0.8202060768199165
Ni 0.11232794932851504 4.67453602607894 3.5973737506542847 0.2161061058020859 -0.07039449056316263 1.4499854548817221
Ni 2.941065029952606 6.609349922600571 5.385955021372385 1.3548194138008345 0.8262327426299706 -0.2757577560264477
Ni 6.649384964932692 8.527853246320227 3.334792990021388 -0.7487471495479814 -0.9860921101241856 -0.03462607471430165
Ni 4.038395884689159 3.5534807018122407 11.186730539005197 -0.1449279429953633 -0.24651120045650451 -1.010358181760402
Ni 7.326199597247402 3.02155214630781 10.498031430235232 1.2292302803433992 -0.9275858863581766 -0.0036926183602388023
Ni 7.889368460090162 5.225907525752999 9.446720485964617 -0.5119745165354795 1.333168668300278 0.25716379507434417
Ni 8.18408938977677 5.597668109816211 1.5326072188070947 0.15500255362254595 0.22978077507570105 -0.5716446787026026
Ni 3.0839308199044564 3.908532216124338 1.9906544399411221 0.824434255968651 0.5501726248717558 0.003786206515309608
Ni 5.247917531664756 6.317603818976142 3.853551684725315 -1.9658544213756015 -0.2538956658460337 -2.4488394926572665
Ni 7.768707290839182 1.0632176624160572 8.306905222764373 -0.8756979392396338 0.9724441803234477 -0.5036431138516487
Ni 1.892517615687417 3.1362729308053425 9.614788891106793 -0.6568757200579655 -0.7714139950178779 -0.39667313815729743
Ni 1.8545491970682724 2.297844617187422 3.3498626618584866 0.41959066618541935 0.6946010025228812 0.05191288681920737
Ni 4.01062157407125 0.9781709995730284 2.8859695831542966 -0.31903867820226994 0.12529448503515198 1.0183792522926656
Ni 4.750463595946319 4.770694266643315 5.5944300904201825 1.7241010473190563 1.3997705245902279 -0.1348913846949677
Ni 0.7411626222297749 2.3788599736845075 7.204472680341748 0.404158133680433 -1.4590676196886485 0.8210941358518247
Ni 0.9920998580510791 4.75400373163402 7.834439825968236 -0.507504653689584 0.47836017091514393 0.3167383122038674
Ni 9.153558328065108 7.993839532360997 2.920909424959983 -0.2827303306895389 -0.12967564482198313 -1.1345686897027556
Ni 9.219365928898533 3.6051926314912315 12.01436236551272 -0.06555181775888066 0.1951449301693865 -0.08849634237019598
Ni 3.316977396183594 0.7335124075433936 13.505084774754012 0.38181910386360046 -0.04345575719078967 -0.27745211300973505
Ni 4.794650420446216 0.9750015587217354 9.387527934486902 0.07185924803414721 0.5268491196544669 0.5418121687222024
P 3.9340916250947067 1.3479020294069037 11.491290636387179 0.9302202386572302 -0.45939854221097653 -0.5026812641590117
P 1.5996316254410314 0.44102676772032934 8.329719636471136 1.292904678573909 -0.9215965015439612 -0.5642787252558346
P 7.00484424356484 8.70906741709854 6.97916528550973 0.3442468020367813 -0.307771847039199 -0.15799660325386336
P 4.44614166999673 8.219676094071989 4.385250409431173 -0.1878414545294378 1.9327337275622325 0.827019243087008
P 0.28264183844223556 6.195330127186787 5.2373777507285695 0.18983380236911823 0.34532306582009564 0.8749564330879189
P 6.919037656307173 0.9173603651343899 2.0174019258621803 -0.5424127784206788 0.22299717649496434 0.6823584377101022
P 0.5397863592992009 4.161142212394936 1.6086589714446702 0.2625296873719478 -0.8551036600280499 -0.4456218001418583
P 3.830621428882174 6.370344426826167 7.8807739003080295 0.37819821928156155 0.06927503224673875 -0.2276716991524982
Ni 2.2966769284527353 8.31955981774227 3.569242646256332 0.9693747973695048 0.04471122686444558 -0.9663912892611485
Ni 0.2493664164520232 8.988339639477822 6.719704848662302 2.1494712963007303 -0.5874327947747947 3.129604103517688
Ni 1.7017673202424937 7.13334560860586 7.075264214900279 -0.4388124905295088 -0.20748185446818462 2.0594554319622147
Ni 1.8248843427846793 6.9159979586486235 11.016207207308906 -0.8613139026038199 -1.0109204820217752 -1.4429568301697149
Ni 1.2185851357257855 6.216895299294853 1.9400073311797148 1.062274411013719 -0.4766473019890952 0.5261870605904359
Ni 5.016437141069445 8.875778152402368 1.354126922447294 1.2173389282224518 -1.363422067868181 -0.6214176363606717
Ni 4.513737873415827 7.449122005000472 10.530272613631865 -0.36572939739058946 0.7208977314358811 -0.11363658908124945
Ni 6.205894930024429 6.864934744933348 5.76984937416834 -0.024133659823410047 1.4045517480289553 1.8779399196508046
Ni 7.39258177507726 8.848559884039073 0.2775318101223439 1.5824252927124036 -0.8582486334149347 0.5869975070095891
Ni 8.239434128852563 3.6300013834178735 6.639393812354392 -1.24843873495105 0.6319190501126278 -0.5227397254717836
Ni 0.35723583363563455 1.1772804635789642 9.868687978671002 -0.4668105184043315 1.3742759798635493 0.9706246106162058
Ni 5.941274421054194 2.9860488483507823 6.115277650527271 1.2036904842010818 0.1858640190880928 -0.23931005472237496
Ni 5.969595506555806 1.4281667288602624 4.175311095779562 0.5947936060152401 0.5923492582398057 0.08063082357919016
Ni 8.800573437465987 8.35605472438669 9.053819175381026 0.43033119253137503 -0.7593925450769696 -0.26038153068069353
Ni 9.04771568489956 2.345849598502328 4.144995672058071 -0.7512305780914674 0.5751272379345643 0.4215069093715257
Ni 2.874441900479082 4.679596010595917 4.3066890527511115 -1.2745246334048244 -2.3500178571016628 -0.9162403794383704
Ni 6.912105662866334 0.6367740295600397 10.79328708722336 0.9282078362128918 -0.05556359619791721 -1.2879951570874333
Ni 8.228609839629435 1.0409389027479041 5.709884850693803 -3.307900337560851 1.8261995538537195 -0.10209156455612739
Ni 8.61092595915938 6.576608301174787 7.429304659046072 -1.0317029659847652 -0.05152439313153707 -1.3285741069510602
Ni 3.0640986461565998 1.798342592497828 7.3927912176598305 0.7733209822326037 -0.538704476331156 1.7543521328941143
Ni 7.413887460799841 6.118253403326541 3.8559528605281512 1.9228259815302173 -1.1396008528100245 -0.3858727051076838
Ni 6.1622826825209644 3.0550814942609623 8.522867400770531 0.4211631528788617 -0.15889186137462313 -0.9130072172130534
Ni 4.258681291224932 6.155387758563766 0.8435791183698167 0.08729563719387547 0.25282762959283556 2.658944386570595
Ni 2.4371424693388404 8.131673139908601 1.1957058504226505 0.3798491246214233 -0.4506843022664302 -0.45800063342218533
P 2.1306427112253514 4.313330977482461 11.647028804533315 -1.9302502990187467 1.4926467411956745 0.5391001691076779
P 3.200922110274991 6.37526540077949 3.0502800693923806 -0.6227163005674372 0.09117054676824943 -1.728373192331849
P 6.755116399647318 7.455618432008532 11.156116705940399 0.19861591943712245 0.674561824483819 -0.5362547292390829
P 8.658912405732465 1.4159986708551522 11.998832105341384 0.313338285383383 0.37027125112500103 -1.0118229392313864
P 1.624672061640428 3.2629856932606907 5.456540878647117 -1.1369739567101385 -0.4057401334555722 -0.09589237772395097
P 4.648420574853959 3.2352484521264215 3.7917689030781947 -0.00764671791198038 0.4685318719708125 -1.3964283475908725
P 8.813102922936595 3.4552465701639785 8.965085952389915 0.9947613557634094 -2.2089051740873313 -0.8898526334734611
P 7.003732159055614 3.8946867639844793 4.374493772015688 1.0470455098791065 -0.012436940211772128 0.21243482759808574
