# total energy = -381171.33822506247 ev
CRYSTAL
PRIMVEC
9.22048281182932 0.00000000000000 0.00000000000000
0.00000000000000 9.22048281182932 0.00000000000000
0.00000000000000 0.00000000000000 13.49510861579662
PRIMCOORD
 96 1
Ni 6.55833566777746 5.594149798688834 7.219208228314955 -2.0962530604065384 -0.781771684103118 -1.088155649655855
Ni 2.769233652029574 2.171488203800852 2.3022521664749265 0.7608166791180058 0.12486768191037852 0.3548888551316598
Ni 8.153543706922683 0.8792486271562306 12.327511433978973 2.243630750493975 0.07313245831961598 -3.0985760305672896
Ni 6.603709662821785 0.9686578031663539 5.246722935069511 -0.9366474823398127 -0.7440024357741444 -1.092995751356976
Ni 6.5777724451709645 3.399075600308956 1.9612040327421447 0.6434566184385822 -0.32587164196370333 -0.4356001542397982
Ni 3.8397132449286016 4.594409748561613 7.0915718533505 0.9556939574483024 1.4310253688394516 -0.4840649346094051
Ni 0.2715173962343559 6.73218786785077 5.3592985736987915 -0.7239984818483918 0.1307007436523878 0.7967254771994731
Ni 5.212135982659275 5.3699445429485735 5.035253931992272 -1.3846041012624348 0.4189316924451817 0.14460706932083484
Ni 5.4015154754890675 6.925661254970276 0.26178056657233434 -1.12033686237409 -3.3322201452531384 -2.4124491269536903
Ni 5.893953791549278 8.917884835391371 11.50991003166868 2.0141325396556993 -1.0124567161606435 0.2403323253393022
Ni 6.739278418996693 0.886052421292221 0.34387974394983395 -3.6028986869844664 0.7501018638036631 1.4822556277693375
Ni 9.197090270046365 5.096133090634756 3.3324142770063836 0.2757497856066477 -0.8807997792425734 -0.398775529212281
Ni 9.069294380732332 6.992380667313446 8.676437277124615 1.4326865585919581 0.37476271123745136 -2.6120811463601528
Ni 3.3455322576504725 9.248328492046227 7.97645880563772 0.44164738887514265 -0.4554709250217963 0.3102246794550657
Ni 8.14031231434219 5.784912363913799 11.574444189627478 0.9343021220360876 -0.8312127123430653 0.8449843122058608
Ni 2.6466104534734907 0.27758631790437727 0.819652037648204 -0.041982000858740605 -0.4984502567967996 0.4685804658205607
Ni 5.840013968137511 0.23879482541281408 7.384104573605384 -0.13500914121975457 -0.9199463675350479 0.25478269643667734
Ni 0.3768272945476573 1.7177390328749613 8.539272455405676 0.8214165521882499 1.5089681040635174 -0.7941006379821163
Ni 1.223318313048335 7.200634488096038 10.99137406155981 0.8295006147479651 -0.5613795493311687 -1.3539220987975458
Ni 6.978125801160524 5.580512704872423 3.0257244277145015 -1.0035013067395686 -0.005144520315416946 -0.5370967655244041
Ni 6.058622390918636 3.2465688175344902 8.661592300083086 0.48030135380191474 0.8434388220956119 0.06970414936435737
Ni 0.4555785146805735 3.0650636168745535 11.816586972284874 -0.12171396677274522 -0.8524183998864028 0.669507292779047
Ni 1.2237240142842527 5.437373932454599 7.498031012940617 0.6438469118984654 0.14326083970558554 -0.17746576772206857
Ni 2.2139300853674095 4.4768301540065965 2.8860507126707193 -0.004291942507134544 -0.45600468603807914 0.5883362804256707
P 3.3721056886030727 8.426313244698802 10.160331961713219 -0.12102902489057867 0.2952562310706915 0.37804600997441346
Ni 1.5766287666367256 5.381138208866844 12.5588717842436 -0.7744229570475308 -0.6188552749501341 0.34616330233320386
P 1.5545457107271217 8.066972595467456 2.376178308045214 -1.1254883246680423 0.5771751216025285 1.1650645442987677
Ni 1.9441940863780374 7.913949465665458 6.742520340690979 0.020275719529900565 -1.4461925634981934 1.3514278716207822
P -0.09833460320030966 2.91794159595863 2.53019817202 0.522224733508578 1.6053088821787966 -0.24083523311764973
P 3.7073993191236694 5.221928135217103 13.126476396788437 -0.3243688321659317 2.9879414615371576 -0.28362276059682123
P 5.708834161696621 3.645880258986352 3.9065912495730855 -0.3894570800248325 -1.010088473038783 -0.10834834409911663
Ni 8.348999497808602 4.262057452001419 7.41268714772404 1.1813403986406559 -1.6452908218883728 -1.04622507086034
Ni 1.6421495162374118 8.579723634771447 4.745932705838979 0.3890127933985623 1.133393952668364 -1.8451046182883384
Ni 4.916057064783165 0.8563633892574264 9.592903460386701 0.39367831719503166 0.042835607108287516 0.3917317349916221
Ni 3.5194766625501273 7.808559349153238 12.31112848043401 0.20658042569983778 -0.37903537047087626 -0.27502164919137156
Ni 3.2962395574864884 5.685782955110396 10.966948081012783 0.547877915300308 -0.6297762927380122 -0.3716146525267729
Ni 0.04533895721031456 4.361398931905415 0.5820577190744006 1.2637486258352428 0.1120990693908005 1.391750225388913
Ni 2.7587776247220623 6.833493310555912 1.3415119917468095 1.9562523795094633 -1.7089991586806117 -0.8082255074192726
Ni 7.406020738779304 1.2545573082139874 9.517100950600295 -0.42557516590362837 -1.4996314000436237 1.0994178528332357
Ni 2.8502079305256656 6.7818125053895955 8.822170693355783 0.0447896455108648 0.01675202264735825 -0.04876174278473538
Ni 8.742271523134873 0.13561393653981643 4.6240176403492255 -0.9694406176104338 0.9096113041576269 0.8801778293878584
Ni 1.6674228591385492 0.54732508303854 12.295933125052374 -1.157029075588801 0.6133857671951307 -1.1483184351886804
Ni 0.8412049158063246 2.074285875868058 0.5664262348641497 -0.09059950475612784 0.28806614108015555 0.03779187403679298
Ni 7.731706626394762 1.3259238438049405 2.410294093792827 -1.475286395540356 -0.4228235713004202 1.4650356643466254
Ni 4.938444396619707 6.868429719257995 2.977763165242938 -0.182405371115531 2.11425206808712 0.5076164966771
Ni 1.2511733910871297 7.655563880799143 13.169727836730301 -0.7945716640812639 0.3766141626238933 0.9501447454952991
Ni 7.349001274167618 1.979803590312438 7.347425493685384 1.671352037751799 -0.0466845485407325 -0.8887740556973015
Ni 1.9376752051554529 3.1823020535720947 6.685935160811377 -0.7951236799299919 -1.8708125645774039 0.4602328651868138
Ni 6.24073614343245 7.8173464691039065 9.26879150915695 -0.2457290708748413 0.24015543344180573 -0.5050127405056657
Ni 1.1682996931683327 2.211883138222553 4.378407034172996 0.6678576729907659 1.2163745074266537 0.3775269042461498
Ni 0.7126040783583013 0.8273760359511164 2.663057028348631 1.8933819652374877 -1.0516804375479565 0.013008753554842111
Ni 3.5374473832047486 3.116403264183394 4.7272151260909645 0.48627325511463343 -0.36685116969985854 -0.2690605465119302
Ni 4.462003617930336 8.454334291425017 5.3897031151860215 -0.536840940759856 0.6902540384080951 -0.6955497395893956
Ni 6.04526191158126 2.063175194293497 11.547952820970323 0.8572500169470914 1.1244735102502827 0.12901667108174555
Ni 8.419434764653474 3.3682238654139525 9.76923043799911 0.021101814975621722 1.0799008658462304 0.42315292961538087
Ni 3.408720225144633 0.1162619875865487 3.348082643147172 -0.21932307007748678 -0.785100491366035 -0.4431676821744109
P 6.394441588949399 8.682541236628646 3.5328435962253475 -0.7820221095510274 1.3319445660851899 1.534266730729306
Ni 8.596597117992564 7.501019371362456 3.3069224086668085 0.3492972199764952 0.3142492272334265 0.7399501200816417
P 3.2995404902696355 6.341875617450172 5.840453785159176 -0.36891447998679044 -0.10602843771668836 1.6067327591095166
Ni 5.0663417112427185 5.535018843553849 9.337454599239472 0.08279286422751547 0.45789444686162434 -0.8167104049618321
P 3.1065465682471243 1.2419160265221016 6.218586700047878 0.13279362162567454 -0.10925002997777959 -1.884853358941186
P 7.52253075734872 7.5748938782299895 13.099040850709512 0.1481269095486352 -0.16609660665317846 -0.8249729020809404
P 0.24644413780638702 0.8601530076202017 10.522756862385803 -0.4424493159511477 0.09491330164013331 0.6081885392649073
Ni 4.625436672626672 4.8255119253124725 2.166585673184094 -0.3254363541984976 -0.6223974837754377 -0.4751128676224398
Ni 2.8593269878511762 2.868169430697652 12.017177649949941 0.09284227804371753 1.3504598512805581 0.7674221002496655
Ni 8.927059215612688 9.18200556045634 7.116402613085181 -0.6758895421563069 -1.5563761610338358 -0.1509083289485143
Ni 5.509542650034753 4.352519607128401 12.744199797003796 0.49286890605428024 -1.1001899551125698 -0.545562379793254
Ni 7.563589566520105 3.210470628020462 13.202817382760697 -0.12085393276529507 -1.3032813938225425 -0.8914927401800452
Ni 5.299361748381552 1.4457347951575044 2.8049316725972657 -0.03986983961174424 0.3282648247862282 0.029182535101227165
Ni 7.547794879767224 5.181422555003789 5.190745384995522 2.214346656817877 -2.0922632225208546 0.4414393866293945
Ni 1.177501734837554 8.787239816943282 9.007256207422692 1.194724790367362 -0.3218218973743619 0.7605739669795805
Ni 4.814032424432532 8.689069338333866 1.1560991505463756 -1.3133475198092932 2.9461147553093583 1.279662468852022
Ni 4.803355105541793 7.139604113538348 7.286386820693322 -0.3207222365522799 -0.3458622261530172 0.467739200866188
Ni 8.335002805169447 7.9410945665413974 10.476441456064498 -1.3030587362887753 2.006292731896306 1.692914594413923
Ni 8.808170312523574 9.168654301601597 0.9003284945552019 0.44750204788370673 -1.9666468353699098 -1.0972676392594523
Ni 4.430128409462904 3.4654261933467465 10.249683048682746 0.3375326232413993 -1.30166442704441 1.6852493645591817
Ni 5.753083257859539 3.137084806732555 6.156657328433325 -0.6394865780472405 0.5712014205175968 -0.4757232475129291
Ni 2.7397649895297436 3.803255456591828 8.93233148758309 -2.892601613882567 1.247561474552419 0.8726447542356068
Ni 9.021006713175508 6.632496009606664 1.313365546456765 0.7223630031274979 -0.2928622769172182 -1.2607270654000997
Ni 1.477333389145902 4.774126175590459 5.128478543716547 0.2768967547268973 0.22632109866187475 0.09288958634188518
Ni 6.8049651372848 7.678605866902734 1.7843099954477162 2.0064374850042865 0.4336653991109306 -0.6386669103594227
Ni 4.018258670662867 2.3143319207743724 7.829416080872454 0.705865776803423 -0.5239481439575879 -0.22647022264522934
Ni 6.778299501505855 7.143891637963385 5.185562551706675 -0.5677707975694932 3.6541767684331514 -0.37374943948158856
Ni 5.9046403309226525 6.594562944048371 11.37315091118566 -0.3418698171641725 -0.863037827273462 0.002562618520853651
Ni 4.100164217905043 0.9107918982488211 11.889675894031951 -1.3065922033633304 -0.23592519741054208 1.0411692536039876
Ni 2.7754851392557582 6.530720322287162 3.8845128039047987 -0.5203799669903555 0.7203151194595336 -1.1748252232299574
Ni 7.17681798145115 5.320292243961844 0.566227994487508 -0.039617100170989836 0.9791105366000299 0.323549678698746
Ni 2.6847648106150106 3.904118316130515 0.7600185662096397 -0.7566532917689356 -1.1526376313893245 -0.18869300389645566
P 6.50744782411771 4.205923153722644 10.71703243149451 0.29398662032964856 0.5079512543086994 -0.09573862575490609
Ni 7.885965300869781 2.9617757704029954 4.911544560581845 0.35925638807173615 -0.2942825543035125 -1.341556378143341
P -0.015710780360907624 1.8553916181252634 6.128438963378732 0.524424055152742 0.05619094536927097 1.1367970648126422
Ni 7.603080893643626 5.541620709120144 9.104299021005911 -1.400779939691349 -0.7475235615535255 3.0190698075108457
P 4.319565602192734 1.9614179479392648 0.2659666656883929 -0.03854957813842393 -0.26347842443846237 1.1185201208803253
P 7.338655892651719 7.5297135133209885 7.23901935730342 0.17946145799585866 1.3569212906351855 1.0400881047246668
P 1.265253068069996 4.507875519036925 10.486697398898839 0.15796857822940535 0.6954643789644409 -0.24392544200719926
Ni 2.503379476229322 1.4168193616157434 10.215054604100654 -0.3248755965990211 0.002493198735498932 -1.6829644251797466
