# total energy = -381174.03571920545 ev
CRYSTAL
PRIMVEC
9.21602534381912 0.00000000000000 0.00000000000000
0.00000000000000 9.21602534381912 0.00000000000000
0.00000000000000 0.00000000000000 13.48858466079992
PRIMCOORD
 96 1
Ni 5.437362810916073 5.77694569790369 0.24991003848765242 0.07032327100559502 -0.1709991861611184 -0.17880582668973077
Ni 0.2936797078004945 5.214860310290729 3.8734761114020957 0.4537583132060637 -0.38347438007883633 0.0700029115516988
Ni 7.8460355548144305 5.833559741781481 12.866666287124824 -0.23336180755874003 -0.2895095583949014 -1.022811062811774
Ni 3.9181747560727245 2.4725121516700415 3.2833242401125227 0.28264651272648095 0.3635696707351093 0.3844575699277121
Ni 5.7262483423165635 5.481544436563171 11.338909171887927 0.7663049559260867 -1.6516841270092266 -0.597280634103152
Ni 3.5993279261785505 2.7504859090266924 10.016272211816842 2.240960916971295 -0.06990161008714413 -0.20743120373590726
Ni 0.8596192372252244 0.9757927666906114 13.281737637957953 -1.0110922317129492 0.22819903241087794 0.15536713605081628
Ni 2.354611539049405 1.2582362963540716 11.321009807404867 -0.5369237302816495 -0.8187258927299643 0.1938048712017243
Ni 4.265112031309483 0.3775971484538571 4.933018587084248 0.05655784179038646 0.9878618004300986 0.45034054577376637
Ni 5.910531985712346 6.432159021929654 2.6049556523322135 0.8261859485524352 0.5722769129699629 -0.35525780843530425
Ni 2.921277291273674 1.5533334288572203 1.0397943765088926 0.6500134457204935 -0.43318485993008615 -0.21864764127701697
Ni 1.3140946261511228 5.0582155269941635 11.992525358716426 -0.9890758753428578 1.3289931967663497 1.3064739326179111
Ni 3.952117377528349 7.3588580214483645 10.111649780023848 -0.043655531906421595 -1.53203501318531 1.5409870801722751
Ni 4.356194010089265 1.91480437611014 7.511387849415053 -1.3787455855991289 0.7377405140248326 -0.6237946212332804
Ni 7.302022792961577 6.433642802015007 4.520591313931166 1.0519190359213237 -0.8169371762606575 0.9929307303125737
Ni 8.047838862447831 0.3787454652155652 2.642508190927172 0.15783359531343785 -0.19389151737825963 -0.30650300762910443
Ni 0.42353811334501723 0.6661324708901025 4.660899770648248 -0.2470516463410068 -0.3243480062303253 0.17848392457393777
Ni 5.888929622233665 4.528367796142477 4.504674316506239 -0.29932037383773613 -1.1286358691580884 1.2614873406048919
Ni 3.6412884897103073 4.762620729120773 11.57365055421109 -0.8117129517472407 -0.36777959505139884 0.38978283879536746
Ni 7.503005874336614 1.8760417733834616 0.6482192823689791 1.9241218175235055 -2.3767969249677194 -0.28063848115751666
Ni 5.857189630842632 1.4406030064718827 9.298693122476635 0.2988694023432466 0.09963204727204131 -0.2646066245056346
Ni 2.857336507222867 4.246108586986514 7.988290436090683 -1.505328450428401 -0.8938147034450026 0.8856650777546747
Ni 8.474209060390542 2.970242034090327 4.812551311396711 0.016265312818926826 0.6276507617545771 0.05304622909270219
Ni 8.863005522879934 2.122616532287951 6.900450154495012 0.8988152419833876 0.34979678532073305 -0.8522127116335001
P 3.017566324390254 5.332926811368113 0.2145997588663981 -0.45157776061497706 -0.5633562134415653 0.6011048929452486
Ni 5.388997109748786 1.687555622416741 1.662981090754666 0.44397963655274497 -1.3267825622682763 -0.5879339027809294
P 2.0842410026270164 8.354843099735303 10.831063780016189 -1.0490157462315999 -0.048851731395380384 -0.8569949635134919
Ni -0.18244873274364717 4.829999090636403 1.117476254393622 -0.37296242480391895 -0.2615598672595108 0.5841338123085489
P 4.998790595377041 2.4512784292063543 5.387003683460203 0.1143241020665773 -0.0558405040083877 -0.013831506566453598
P 3.7283891455281477 8.189387796180368 6.585046431680888 -0.029742007149122975 -0.6911431258812677 -0.700692974353232
P 4.3939981461769575 9.04062597992969 2.3578177942773197 0.007653402780199722 0.5729317729451423 -0.5555488015820046
Ni 2.620457007012735 5.909702543428608 6.340430999771094 1.6813508008357236 0.33650623885941405 -0.11936012182858798
Ni 2.560073608756625 7.383953258544119 8.158867084946431 -1.7407106308512794 -0.061423911633436155 -0.11613518713338707
Ni 5.865004820360516 3.9813137459159185 2.194903348918235 0.18846648970794638 -1.168318275349375 -0.8497781340500785
Ni 6.3746878876920015 8.502446962139127 1.1674252687203106 -0.42494318874658427 0.025934974698206943 -0.0989062248496103
Ni 1.9824592183870176 8.677459284007796 1.2651897874994065 -0.1079264260703496 -0.7647702644491151 0.4399304061840359
Ni 6.99800454789556 7.014077296149323 7.2689446346861155 1.1346440230253814 -0.3593723448243101 0.19007445762501457
Ni 6.650569607288559 3.0925386908147736 10.835366742263714 -0.81312294472089 1.1994849307601665 0.2856883848765983
Ni 5.633774743705176 9.175852720255072 6.8977249757916645 -0.7252593508386864 -0.4352497128789149 0.2777994690468248
Ni 2.067016251201396 1.8254089299739582 6.216133543937764 0.9052376005699635 0.03476902805006915 -1.2339222865024297
Ni 4.013956907793687 4.981694868306667 2.928601266639079 -1.3403934681834915 0.36555636214783493 -0.5796066138621566
Ni 8.407411308473527 7.261361689007677 1.3808536707615633 -0.7690616927356174 -0.12184509303397081 0.013523488407731548
Ni 1.4188255385110786 3.23925781478261 10.017135753394466 -1.8384030378984468 0.04025447664467261 0.04814982023234934
Ni 0.4912390357487689 7.689556659974613 3.2087315739334477 0.03667935769890457 0.9234348403042807 1.2981908666735127
Ni 2.0495150190145286 3.5614592779132344 1.6314982264715927 -0.7133782831303843 1.2198133579048733 0.5346380195712663
Ni 1.0728190818371806 4.254264769443268 6.099133336996252 -0.08108436617684099 -1.7692028247537015 -1.3244829676008223
Ni 4.060949421180119 7.495789726468096 3.8649651119684085 0.12320983459198136 -0.8488237405566091 -0.8335663001769065
Ni 0.4113231933131723 0.5471996634274812 9.736046979461111 2.0063492961658542 -0.7015445237202498 -1.2075872481523269
Ni 9.12216937244649 3.2636342018991256 12.678015169303894 -0.980490190556376 0.7019618137633266 0.7372967416191948
Ni 6.5342725830831485 3.622367989615711 13.417904412871572 0.21263460231371767 1.3873181577594882 -1.749223810528613
Ni 2.2143344168185983 3.1209148329439804 12.712437945681547 0.9830738921231521 -0.926176921825792 0.4059126544776945
Ni 0.42907233658262306 4.742234880991573 8.180260244649102 -0.37221963310062345 0.5745654518938234 2.1310406003993685
Ni 7.0354492589936335 4.823040991478382 8.86940513090024 -0.41148012126314293 -0.680934303669066 -0.22181652592330184
Ni 7.2387271306870105 6.6741442001974605 10.140718045658707 -0.9941838859933847 0.43746651802457565 -1.3627741498715369
Ni 6.006129816925811 7.5113095131993655 12.115176832417804 0.2870415564703831 1.8200034523453366 0.46053265581541974
Ni 4.403416924110069 0.10772888541439897 10.833383453603044 1.7001949301254202 2.3578309253881784 1.5052250920813175
P 8.150385576793942 8.96976396082236 13.250201320727705 -0.06601590187949277 -0.2595340950787337 0.1667463244220354
Ni 7.729480481898524 0.12338875573136805 7.972090506686747 0.00048336739432174817 0.05027972209115856 0.8724022992074975
P 1.383251680564103 1.9582210716511248 8.128881824786772 0.45512999674260973 0.25089030336080664 2.4362788823834367
Ni 0.8011076137227497 7.444474897180852 13.190972690451066 -1.5139413889083928 0.12279974363775625 0.6912655103917449
P 8.707291558146231 4.716909243261447 10.927695649276716 -1.2330565960680246 -0.1319569846569921 -0.7995179523429456
P 2.5049894250910625 5.791046216727232 4.122327228574176 -1.4086117770309419 0.6802727588256671 0.21774055608171533
P 0.6514218511867444 1.4692095492354607 2.4824931071510195 1.1782391340075127 0.40164025235458567 -0.373252445240512
Ni 6.52362807377518 8.536002510529006 4.124242318647073 -1.2054272643865305 0.026996326083185765 -0.8809825846773408
Ni 8.065635007446692 2.978462728724706 2.5164707495030685 1.8476052732230053 -1.0055738729978811 -0.6323785062475497
Ni 3.096722766334962 0.3904147965452181 8.886603155852274 -1.117680141477533 0.5801642861378395 -0.24439184012065648
Ni 2.8802475463047794 7.207263620057224 12.487327309875118 1.8901164071123384 0.09518712412681027 -0.27582229071579595
Ni 2.0142637219556736 6.115201477237328 10.160397946244192 -0.6922882952293045 -0.08168471876500126 -1.2512466367134902
Ni 6.4374951006217005 0.8621711546515243 12.230167024225059 -0.3136337051366147 0.3856258792042004 -0.04738517415218291
Ni 5.171591071155742 6.447623512508676 5.795181447312934 -0.43312443900579606 0.5649011893311819 0.04240031934308182
Ni 0.13652435669816188 7.420411854927082 8.871711902051569 -0.22240659409881697 -0.42988844856700154 -0.4569526517736453
Ni 8.18084454065787 2.705078552004737 8.931182913795567 -0.07611442376607537 0.044720225725510085 0.8060454690488182
Ni 4.448925657411148 9.151421036986306 13.282195674419084 -0.8835773419877104 0.07029730286366603 0.5158877355469567
Ni 4.778675045323786 6.554280574171979 8.260827660078702 1.2497818792425055 -0.3157705489739594 -1.6775774498362204
Ni 1.6218914416208343 6.187998861673379 1.8883341080284552 1.0398140251276737 -0.6478467770864779 -0.2386953039565115
Ni 7.416495044142764 0.7834681411552599 5.674296685675917 0.7647111290764056 0.38984043150618025 0.0550455189109181
Ni 0.36213173627229767 6.490800591389914 6.481709903960148 -0.7085806046314249 1.0751255559447743 -0.031143772592656046
Ni 9.039685945341455 7.22963091364202 11.177154102520998 1.5900411573864486 0.5326742109766762 0.3476576274905432
Ni 1.6511615382114027 2.893205277981838 3.9926614379599883 -0.9973627979419984 -0.2866492061279708 -0.417126778025959
Ni 6.537599568243475 1.8762721740178332 3.881394520404179 -1.5960331133038255 0.2616498558701558 -0.22451901245612946
Ni 8.464725770279808 1.8136677136463815 11.118950294266044 0.40889539125510227 -0.3442964243277941 1.2476524916043286
Ni 3.8735876253091317 7.1286509236096345 1.3150088558683093 -0.00014706710082555317 0.5087981756900269 0.13918075609894096
Ni 4.322168444405267 3.5410365656825356 0.5503478576955348 -1.208379662146635 0.27681910741142646 -0.673400457185866
Ni 2.487110335863826 0.48222852773976427 3.342484671801388 -0.4200005000293283 -0.02666516799601214 0.05877773225984071
Ni 0.7577526655517764 9.052109147546771 7.2409417415845905 0.5775361044863732 0.0797003413451208 -0.8225244405404479
Ni 2.090719868465546 7.865379992076271 5.125729364082806 -0.7751323244097296 0.9323097741964073 0.30107155220088794
Ni 6.485326272317245 2.564377492606687 6.968149233693688 1.0387580730593335 0.3689221932962743 0.49391200260681395
Ni 4.944065836701097 4.456427502066287 7.292670370411165 1.7333511051624149 -0.5578381118368135 -1.0511847288584604
P 7.509429444022894 4.894603428514202 2.9948303897904647 1.4288697559490295 2.0732900238524614 0.21813470619634046
Ni 3.457484079634017 3.9538868544003227 5.178793394986198 -0.08416968997038408 0.2990871747810075 0.989661829753315
P 5.54304297388964 8.499543914146043 8.984692078724565 1.3523856075483613 0.24410053413248284 0.7638976320361748
Ni 7.494517914966363 -0.16545438195239778 10.364021418889125 -1.0114763545252452 -0.9921174903826591 0.08701384428739853
P 4.391703355858617 4.814949321199251 9.51567061588975 0.4583449041354816 -0.04810045505165265 -0.02494278598826672
P 4.373151496779015 2.044695037743475 12.377205944273403 -0.2730848371799749 -0.4156116269330133 -0.3558116240562453
P 8.215856221056978 8.040300153691192 5.620922996319929 1.0467423768163908 0.3458889656258946 0.43032579321473635
Ni 7.933385043317392 4.640167399964953 6.593773086108346 -1.0677544602916837 -0.17508544041535007 -0.45816287003166256
