# total energy = -381172.3685272407 ev
CRYSTAL
PRIMVEC
9.21333874727134 0.00000000000000 0.00000000000000
0.00000000000000 9.21333874727134 0.00000000000000
0.00000000000000 0.00000000000000 13.48465255518324
PRIMCOORD
 96 1
Ni 6.321317777701551 5.84856294016295 11.036877756716244 -0.5071480416811137 -1.8666329792784175 2.5259108810199726
Ni 5.774773310176852 7.414028965862521 3.9494118972346994 1.2594805945875083 1.1249386228121592 -1.0545289627403451
Ni 0.5703895095233282 6.462991287540012 13.083511319559896 -0.18487671547415901 -2.001171094399024 -0.8635379068383322
Ni 3.8629963078363216 8.613356909947965 0.9295319030305186 -0.36795777250047595 0.259028873307541 -0.5943750304205828
Ni 6.44902386600687 8.521711829479527 1.8234081851288109 -1.2986048142824798 -0.32720450184251393 -1.7430395360947724
Ni 6.544225295229789 0.6459821899012703 8.41569117657167 -1.6646188327930234 0.0291460254363369 0.22183400942479858
Ni 4.360857493447356 6.5661346147586865 5.361241814072966 -1.2503328666499691 0.23113368955916969 0.9903801959765782
Ni 1.6460643130161372 8.075113660629967 10.402600192353034 0.30471943336612034 -1.2207057878121557 0.1272847759923034
Ni 8.670488823488206 1.2870942089434254 4.050156071044912 -0.05819974826918364 -0.4558033686605505 0.20525939289556908
Ni 6.581456397086927 3.1119249335740284 11.452003160422525 0.34385110926025947 0.9734795635664976 0.1514253777942489
Ni 0.7932629376982197 2.0625809308724885 7.806912448511312 -1.0615010231828041 -0.5839888020902523 2.437962954954078
Ni 1.7461119584174405 4.6883179790218215 3.4149074207782775 -0.12362558197316127 1.8662791954834246 0.2886284413415287
Ni 6.975750441897147 1.3276697527639745 12.902682041401057 0.6114700382296566 -0.4608884964929418 0.8580545151262577
Ni 4.10329860890979 4.244778638634664 8.079100272303709 0.32547800606971045 -0.1593402617659514 -1.216547799779724
Ni 7.3321684511382745 6.6079263192932025 13.00290013356909 0.1148483500011635 -0.1822624177797635 2.8047974124833885
Ni 1.994908957811196 9.380008040023279 8.139929498681184 -0.31587622131388826 -0.04337142500709949 1.101222253031826
Ni 3.355663809998329 4.46446148760314 5.535490004368269 -0.7763417713367984 -0.5917784733380002 0.19422987455428484
Ni 2.090736894068582 6.95680781744323 4.3954305470773765 0.04411730203418854 1.0723425938829982 0.9756089512046745
Ni 9.033162689735272 9.06294020054999 12.06257480420211 -0.5845053367153545 -0.7981154155684641 -0.5429853630946971
Ni 6.205220496211375 8.156780695240627 12.046231262607362 -1.5001924147534165 2.1594566896482164 -1.3124147235823784
Ni 3.597596872029163 0.5225584614433147 10.199467263767131 -0.2724834561505501 -0.6175326994839687 -0.7337486192566203
Ni 1.1583101600052714 1.1379763214012861 10.323917358160966 0.6693136887110022 0.5176929070764955 -0.5603657633546737
Ni 7.1594736297549035 6.198494758929585 2.1221064698179473 -0.20344959338033994 0.5394115297005097 0.14061825987641588
Ni 8.297127484300214 4.658761588336917 7.20501147782199 -1.5388044706986597 -1.3574563372030493 2.1748270014566997
P 3.264700516596813 8.32579939446587 3.0712379083546995 -0.5629093557121339 -0.44532997993305234 -0.18183047244866749
Ni 1.4125246025794274 0.43009062982520085 5.408249189669429 -0.8908124262835689 0.12499469440654604 0.22713151037831203
P 5.330386342625415 7.05108791279193 0.6629596092014804 0.9730972405264144 -1.5672529558473396 -0.042696767537578076
Ni 1.8789314497246683 2.56538046604933 4.195156517503172 0.6508747652795243 -1.1414857285375632 0.2098444411630902
P 0.8732061566302176 5.875797569484826 10.69514949476564 -0.33380092411310897 0.28643091946957766 0.8398865859679793
P 4.03839063747115 0.843370601781425 8.003101283687235 1.0735612967814478 0.4538817261578054 -0.5004148367223382
P 6.40057091756176 0.36726579427616807 4.354801565892123 1.004518178039857 0.995206156610312 -1.679528145804688
Ni 3.7381832078960455 7.562529559708934 8.892264943018905 0.4504523887612823 1.1395455740920568 -0.7646057138467928
Ni 8.98710520936313 1.0095792326903033 0.938208104124027 0.5941120065671832 -0.12173170738455812 -0.5190491639940737
Ni 1.2232826248151056 3.31195573100544 13.226205667330989 -0.1665357510731261 -0.2235481639024279 0.8532396102361176
Ni 5.389757097480006 4.898805915925603 1.454238915068509 -1.1702442887274942 -0.2806397667090973 -0.38087396634151177
Ni 0.5207277710352441 5.549829644786594 5.7561798712612635 1.5707506845879529 -0.006319000239492344 -0.43619562173195203
Ni 8.680559002733407 9.136029616791681 8.698612539998702 2.3006825012016443 -1.2912956822155761 0.31506863781092836
Ni 7.2501697363328965 7.602570729882436 7.2779092566178445 0.8675953647371574 -0.9167196330676342 -0.1942013353091946
Ni 2.821492856404374 2.0644143852821815 1.4304251984216034 0.2599670688510942 -0.10328095687853825 -0.8118831587765178
Ni 5.2550857250856 2.218664102503714 9.82816786978964 -0.32369546024799095 0.6493467586707721 -0.5824399695458936
Ni 7.175182372310315 3.037886543441892 5.099665913843811 -0.2777981834952442 -0.2242655016844267 0.36247463789871764
Ni 5.313710199502073 4.923810917271872 4.114383176750503 0.8618895726016317 -1.2421657574581446 -1.5406885750952497
Ni 2.436227883561488 4.901569917548257 12.049130700309526 -0.5359441399771996 -0.7832541821859156 -1.5630643716872887
Ni 3.731162643774507 6.046806349878378 2.9077628750506253 0.1418937841547298 0.8455119025745567 -0.4151999933168914
Ni 7.310065651495791 5.506877059570563 5.252271971433739 1.802092633503187 1.2485438930703465 -2.1846740694541085
Ni 9.104354158196077 6.414031605464081 3.5489449154672212 0.4066667590348996 -1.453554146069587 0.24791682255477948
Ni 4.79642729582253 0.8391969593312186 2.4812027966314267 0.05528591705649833 -0.07324712952060933 1.276125659343357
Ni 7.042501081084221 1.5459706009211232 2.279459239527845 -0.01269585030011362 0.069695407613609 -0.04845063930221979
Ni 8.085183839875167 4.939602579875964 9.944203421910242 0.2809120465338775 -1.0146521811500655 -0.8468761299119351
Ni 3.3865745614783336 6.539019758840459 13.076876794331653 0.8708256987489971 1.2310408511895765 2.1319798243841865
Ni 2.6265293952811604 6.326228487251131 7.313509597517618 -0.06407446188240579 -1.565622362222452 -0.7589870821084348
Ni 1.633119572083378 4.242502943965347 7.5497736922203895 -0.15738030982610313 -0.3126384311028809 -0.3285247633158342
Ni 6.018687240037254 5.411942817171168 8.857650429364543 -0.2819461442253467 -1.3864318984997928 -2.5241054523801174
Ni 4.822270710994337 4.130137064665752 12.691256186613321 -0.6889034379174717 0.42987970681625326 -0.73783101685611
Ni 3.521365707276388 0.8538590666055197 4.352467827188729 -1.3172211438320864 -2.07777891286175 1.3419353587493146
Ni 0.6616503937662169 3.6850590967086516 10.653010447360545 1.5826068125955906 -0.10068002892058146 -0.6211998639229108
P 5.122561060618121 7.029077246536869 7.267553463871637 0.2911638061688727 -0.6072534290451478 0.9941797722283264
Ni 2.924709890332986 2.5841111837121757 9.011334447587307 -1.2957292925068975 -0.7696335060786874 -0.4907626583445548
P 8.687929673727147 8.111985442276161 0.4708034523930081 -0.3121913162631333 -0.47299839238259833 1.6425531112422358
Ni 5.734428099824857 4.660419989310508 6.380398312385763 -1.3555714614755106 -0.34923782749346954 1.7603235199862004
P 3.885826961239437 8.501129230729504 11.908323244312829 -0.07311214660464183 0.03671355337094968 0.9227414137816817
P 7.505379219491209 0.12384017136910185 10.467488815780314 -0.9520985267875602 -0.29591134815618714 0.7593249250638278
P 3.513681782765412 3.6197733783815833 2.8602026991296317 1.3509825565532476 -0.054134319950558375 0.5576877023018783
Ni 0.3130277904348446 2.9063200662036 5.888424450230979 -0.04109085650303891 -0.0803459453489197 -0.6474742242384074
Ni 8.259970089153013 0.7058523077156867 6.494532231389981 -0.1268248056367493 -0.21695791227941988 -0.9580390606417114
Ni 6.479824057421969 7.455046749942694 9.466091027893064 -1.3347668660253336 3.1014191564430393 -0.5276261070298075
Ni 0.8600531942418854 7.76148239650751 6.899705386586964 -0.2271351099227379 0.8774653155527017 -0.40481273654529637
Ni 9.057218717191098 2.0353002348569014 11.94649871339104 -1.0935629367143553 1.0820477369859043 1.7843299102031271
Ni 5.679719294373808 9.033881330157163 6.246671307212431 -0.7977562324568326 -0.0779627898287238 -0.031678047829571246
Ni 7.156129187791493 3.8412712550822676 2.7146227336644886 1.026622209027748 0.27621232706536303 -0.07442778009227183
Ni 0.5974776467592037 2.854753009263634 2.1724721073859334 -0.8056564611405158 0.21262457501138862 0.507856380602048
Ni 0.17959284809963932 5.166914073322963 1.7704001620095682 -0.8543652392001285 -0.9177699287090195 -2.589249493177618
Ni 4.765313850890196 1.3435904021104565 12.273609092093304 -0.542969165144781 -1.0963957781774603 -1.1117547771320337
Ni 5.122395220520763 2.221391250771398 0.7489145316627491 0.7092511483358881 1.5769167041893486 0.7295435800363371
Ni 1.700671771741022 8.3234684197641 13.228524664692394 1.5615139964810334 1.8179676528622304 -0.052306779823516364
Ni 3.1944119553327424 8.358571240371793 6.483124275359418 1.0894358019198593 1.1159405330786072 -0.8201376854758263
Ni 0.2958780817001558 6.40945257610922 8.619820988409476 0.04676862361410655 -0.455490465405822 0.006067546350318582
Ni 4.826702326929324 2.5761232190227084 4.45149924132677 0.7057403069691522 1.3985358808521786 -0.9615565868766666
Ni 8.158273256116859 2.1292302233333986 9.857860617887926 -0.6410256403995864 0.3947473818894944 -1.4123139084728775
Ni 2.8768465955673754 2.215043260378038 6.485200961911904 0.21290868191071072 -0.15370491785704496 -0.02701458091563089
Ni 1.6976774366498144 7.01427141117819 1.7545016246760672 0.5047504879832146 0.2540244781144141 0.657006589208875
Ni 1.5090896059361874 0.6122917741227506 2.6602520577452773 -0.061381745541591065 -1.371733930167986 0.7949084785953923
Ni 2.8380584394628086 4.581387969580112 1.0148087237603631 -0.22300643246634497 0.46213316753332023 -0.06808795391717305
Ni 8.26020963596031 7.148104369747056 10.73851668022507 2.133844131286435 0.41640892602332796 0.8787210423366738
Ni 8.53857223937771 7.567403415903546 5.2860913739546485 -0.9410080733013536 2.293547175708444 -0.009178324065158385
Ni 8.20749091167757 4.654486599160546 12.508458017965278 0.6405299317100904 -2.056273434689807 -0.17191218489369103
Ni 2.576408832523716 5.237248701280745 9.488057470122165 -0.2484621535352882 0.37257367400593255 0.9234081008314032
Ni 3.017663264902813 2.564744745676119 11.315537950975017 -0.6327855118779812 0.8188729598307897 1.04536503685289
P 8.10355523732707 3.1703190745219483 0.7112586948895964 -0.12928740824462895 -0.21630742317961457 -0.2531220209048028
Ni 8.374777503219285 8.326370621467884 2.727055212963182 1.8431138131105547 1.326219747786271 0.18859530197632682
P 7.629621092429469 2.4109096286979854 7.709229867165126 0.16799048124178165 1.151323026342959 -0.8242074846698257
Ni 4.201079772980517 6.654195706456417 10.889787725031255 -0.3942385605738759 -0.49582027537312023 0.10627474939953954
P 2.071453376081205 1.1655886976115915 12.850064663844483 -0.27596935781662146 1.7835015007645607 -0.3421719217856236
P 8.985262541614693 4.049778324156482 4.229447642967681 -0.4987880997521926 0.4551829614677322 -1.3579080800284873
P 4.580770675884386 4.460573458653941 10.275912177978727 0.08041279403111312 -0.889626633505584 0.7064514741035639
Ni 5.378535250892033 2.226412520385885 6.685232680677189 0.5651711551631169 0.1043389658294074 1.4516209336026162
