# total energy = -381159.4148226505 ev
CRYSTAL
PRIMVEC
9.25042271948594 0.00000000000000 0.00000000000000
0.00000000000000 9.25042271948594 0.00000000000000
0.00000000000000 0.00000000000000 13.53892869703319
PRIMCOORD
 96 1
Ni 3.497815978539686 6.337658660583373 2.5300737863786074 1.1054488895186638 1.1559448413856865 1.3108890309664714
Ni 3.475318951207961 5.403856268290757 0.6128340102005136 -0.7921615119778744 -2.341966190441779 0.139684692318553
Ni 5.80419604989536 5.786120724481631 11.260096119777819 0.5970896011382684 1.5838699955787303 -1.180896883345334
Ni -0.03791100621447721 5.769960236509376 6.323573042360504 1.315329069015696 2.371247198794084 2.7919444677801204
Ni 2.1276804109961907 4.107391064920723 2.1225788030301356 0.5997941445536251 0.10084663640543277 0.8016658519238838
Ni 3.910745585061426 4.647634235244491 12.075221142642132 1.5031815792887275 2.0577500192353337 2.384103743041778
Ni 4.669011961463084 3.8775828206764618 2.5676175508229084 0.4163798725576055 1.0997310131982803 -1.451586737930571
Ni 4.017523211085317 9.043989995801903 1.8336853356461011 -2.4737025744475334 -0.5939042614317513 1.7218400191990217
Ni 3.6949332299425346 5.051886945533847 4.5242086239866754 -0.4431232020897207 -2.3973053293337165 -0.45905915659368673
Ni 4.441294312686326 7.224589162460755 0.04337708082398227 -0.008592112544385203 1.1852302206133651 -0.5814608934620761
Ni 1.9425609574754337 3.7391317482776425 8.519871236802942 -0.12513559085978448 1.987027713019107 -0.07759975006235023
Ni 5.285552615928327 2.05795072677475 6.663102397043523 -0.42507637189033887 -0.21006349915243175 0.43461722150123855
Ni -0.023156582450455262 7.572183035411783 12.44839428367609 2.4914177323391096 0.03261624337312447 -0.3816738365349879
Ni 1.1211234463499486 2.895835488967591 4.246065072499927 0.9825295895839079 0.3097438831639052 -2.8777645488697345
Ni 3.3680233015284053 8.680254135723464 6.7142933096878625 -0.704872045431586 -0.5334946499954425 0.42030568997457296
Ni 4.304230803650895 7.669488228874948 11.041442959932953 3.62531664966835 1.6379161266908566 2.9065675891443554
Ni 1.6351786707953804 5.851040189043326 3.687029669024678 -1.581170080149064 0.4538341607493217 0.8152957840024927
Ni 0.18992227284256263 5.525878590467067 8.824186083407666 -0.924669226932014 -1.2271687698286802 -1.4380907603266653
Ni 2.519075034118155 1.9094999477371175 1.2047898169932547 3.760442261861311 1.6669155992470002 -3.0029261078714473
Ni 8.98309446499403 4.1312201530813 2.226368542611531 1.6184292216108385 -0.6229842095168432 -0.531678165611994
Ni 8.061641386635563 8.02132804571794 5.025378935039689 0.7588186748513706 -0.5937227415485646 1.5740375828693407
Ni 4.25718315520963 3.603178289932921 10.204831980907702 -1.6082363402382367 -1.1629680667810554 -0.6145571617954125
Ni 0.33715292116265655 2.910155142877751 6.4173843512746584 0.9959065251114461 -0.6845071086219888 -1.9797622897059453
Ni 5.8247319876734975 6.415362208933082 1.8712291000904018 -0.6141398717523359 0.7408132394128855 -0.039042201504126316
P 6.997981564374708 -0.06614607057493124 2.5801407726986025 0.6827692999952757 -0.6058629764555243 0.9037908408211079
Ni 7.8046276500464815 2.2456973002635214 10.853318969209338 -3.5818313247912057 -4.196483617403586 -1.018268180636098
P 7.438292421267298 2.145052704305804 6.805911343445621 0.870214033306927 1.1798584147784907 -1.3328668207891432
Ni 3.0929157386807486 0.5208552099682735 10.980124684820368 -1.8562876314883514 1.1934567222882155 -0.2925948821884445
P 1.661819887372423 4.483846255830214 5.467953370299086 1.171193282904325 1.502757090156799 1.181570512373591
P 6.327621952254869 0.15373092015644385 10.355127294176397 0.6727365983496221 0.10861625304852261 -0.7406011234020794
P 1.7406519872576864 7.693465323794285 5.490522550925707 -0.8149350582289642 -0.15979688968739578 -0.15621482876309226
Ni 8.83111002459097 3.1019163996979233 8.313226975347073 -2.093852935605478 0.356402977783341 3.5439054962797094
Ni 2.447597020058846 8.086774784357726 12.320668151034015 -0.7352190331545596 -0.46304102405957026 0.0648542774712238
Ni 0.6576597071758725 6.00722432122624 1.1891122010714585 -0.8013028121575103 -0.23749639855240384 0.0737081283174279
Ni 2.412297408094264 6.040747852085686 7.674582436503064 -0.48589658850150513 0.26649535688791526 -0.8613627535638843
Ni 0.4615248506343023 1.6110628195397032 12.099077057027735 0.1463245662325738 0.08162764027482071 0.40033233217643954
Ni 4.207841402007566 0.48757774034526874 9.057353156033567 4.609327451783474 0.732672612583622 -0.6127877285998157
Ni 2.2390369961192604 0.9567804415903159 8.107854646974308 -2.5369357713755663 0.6592311076640195 -0.6372975408157218
Ni 8.929812031839944 1.8259223811490686 1.1322350537639567 1.0702607716533052 0.13090257525054874 0.7589940240869703
Ni 1.4380799202373766 3.6387461641477574 13.459143539764248 -2.360652196887057 1.1575034441220582 0.3616575413140611
Ni 1.0436511585608053 8.274012584613253 8.206011804342594 -0.5172427069129544 -2.498883187478219 -0.4690383792935857
Ni 3.4497692844767833 5.954367407503593 10.101543614221608 2.784129599721392 -4.36124299330258 -0.9136152831106975
Ni 7.862211529627068 2.494339404560164 3.688748397510795 0.015134284538277164 0.05059931021410641 -0.3413401699129476
Ni 5.781504763692761 8.255761501173495 6.517626553856994 0.8964364573385658 1.0648745676407274 0.8535987933477492
Ni 4.447381090640386 4.6467369442695 8.17506174100111 0.2547238181742839 1.2464273609479757 -1.1354698613607865
Ni 4.3316028035993215 6.761920034572779 5.63242403088815 -0.12568323583313837 -0.7791985240593032 0.9661390640410265
Ni 7.322763895631643 1.2601757962062357 13.090667763236478 -0.5891680322983466 -0.9243444966027436 -0.602597161220059
Ni 5.264859420969005 1.5011770515818244 11.463058713109499 -0.49548783173436595 0.183602990968058 0.40461681848440634
Ni 1.7550456445472278 5.932943429172888 12.548582833808373 0.20040206480326775 -1.2480805802806827 1.143972756625475
Ni 1.1160542148623724 2.2070305345371186 9.86002248510587 1.4898252125864795 -3.491073182970026 0.2068398500088115
Ni 6.097314185199789 7.648249258992694 9.161007839447594 -0.8959379204355924 -0.14863161709919565 -0.41414249858665453
Ni 8.234032258902845 7.102825852112279 9.922179773532184 -0.11857567825407965 -0.4789268420518914 1.0370588309800397
Ni 2.194718222292659 1.2592877556536677 5.67310923878716 0.1572098456865099 -0.732134480691965 -0.09805827502701822
Ni 3.056968597146586 7.930868164847489 9.351405584002677 -2.293198534119773 1.1683758680601877 -2.2275361589249574
Ni 6.663477039151637 6.856672111447311 13.157428061860267 -0.2518218140361405 -1.3418044895984051 2.0660371989447905
Ni 6.854118994858678 2.984454535775948 1.6004905117529316 0.5554750109212756 -0.6665027016247683 -1.0770852507743063
P 4.414773351600776 0.6900176848100724 5.233797427516209 0.3976128763627475 0.33924034996112545 -0.8738919963791465
Ni 7.054353638617937 4.785826295815478 2.9452993477456335 -1.9893406774229998 0.09041361399756687 1.391358646377449
P 2.076090805145438 4.18362379610524 11.149917113429144 -1.3096934679964733 0.3584254075300085 -1.125443073252404
Ni 7.02895197864552 0.7748699596079537 5.086778613869593 -1.0938015350877228 0.6648301990183518 0.13577815817529518
P 7.174054104766177 5.719915451203195 5.111026746165913 -1.1799746286413806 0.891924171290509 0.20759652566917797
P 4.69398810200406 2.8804335356339874 0.33138158261320616 -0.12878655734881048 0.3139934024688786 0.17752978819078458
P 3.6023272510700433 2.4241842009072854 8.540152787964457 1.9038730945767985 0.8835634580306395 -0.3369687803181293
Ni 7.893135691785767 7.537993474137911 7.4348484889993705 0.529644680121733 0.02579999178223944 0.550615368836129
Ni 8.793081538011725 0.12584644680580576 9.640217647669393 -1.1449752297480604 1.7058981511577846 0.19752757146895014
Ni 9.182811085097624 3.6545458856455313 10.779613453430672 1.4584556971362626 6.110168298754167 0.9081768857039456
Ni 8.234707539739693 8.280783893826584 0.8338885797062837 -0.03866656333226244 0.6570299862476426 1.415744274310665
Ni 5.678325551991255 7.966537793708974 4.025272289948716 1.21998690736826 0.23296148679652778 -0.4923834817774295
Ni 7.29834278043602 8.308535161094337 11.902830270374851 -0.7776064969818349 3.0263108053439756 -2.0979710715389093
Ni 2.9745843350510506 2.627971006876817 12.250820986447808 1.1409856489726928 -3.224709723674285 0.12593597527389278
Ni 3.4034894210965936 2.3598197616909435 3.7084749233269556 -0.024125432293293933 -1.088385506278474 0.6411292558569862
Ni 5.942896883699588 3.623362711659 4.909093724849867 -0.3361192878336405 0.4957056041721269 -0.919532677036397
Ni 4.052082789256092 0.330017145305875 13.117908407186503 -1.2211048230227872 1.073063531209423 -0.17926014061832998
Ni 8.955250693502052 0.5156092954124258 7.125077743249805 0.25659043906937745 0.5630574512542238 -1.311798173044302
Ni 3.1782601359515112 3.2330596383829007 6.5816931294713275 -0.005573894543351691 0.697373680172012 -1.56880564504644
Ni 6.282498391677504 4.712599951918301 0.2947425094818343 -0.6652503172749059 -0.23261078832532844 -1.2831218881555322
Ni 0.258574282851772 0.9240256208341873 4.404741268483484 -0.9909206418610805 -2.646972044700067 0.16820748234859417
Ni 5.843556597303456 9.108437688820047 0.7798217107307631 3.177598372008779 -0.797637190380465 -0.9126567758521701
Ni 1.258408965523522 0.23956466477336125 0.2041429472328015 -0.6128255238162865 0.5431913084579162 0.14316750866083083
Ni 5.487544839947877 1.5923677158236602 2.57299204625043 -0.48493062504381 -1.133809442939228 1.1497968195064197
Ni 8.825430265223503 4.515982223326271 4.709217997480604 -1.1556355376753837 -1.856630616650067 -3.3064067837344604
Ni 0.48070005127407733 7.90356091785602 3.1016055855045246 2.346647655077849 1.5670943187822883 -0.07147538233216724
Ni 6.004273436473436 2.9341969907540473 8.910795013423595 1.107896579728208 0.5015098695587299 0.41704938782080436
Ni 7.854524428593901 6.897077956589159 3.111963283491092 -1.3125705324339523 -0.5937265982033065 -1.2060024201637103
Ni 3.442331944849025 8.313807901875212 4.10179455935506 -1.9617275436914214 0.5371695277438684 -0.16242481422854607
Ni 2.096090218423065 7.689117625255671 1.0861013470580445 0.8253086881538044 -0.6817380305172839 0.5540218234145168
Ni 6.857458397353231 4.289855647206198 7.012785940419812 0.6852673838267812 0.797781172157497 0.3877740358954547
Ni 8.629062298036883 5.3454953532266725 12.517131397571587 -0.7473497549798226 -0.9266011538474043 0.542657290331317
P 1.488207959345361 1.1828977672879664 2.5952097108249923 -2.610770140858213 -1.8854033179073852 3.363668593570407
Ni 6.092050694841338 3.6264616031705654 11.52911505458693 1.3398486514236152 -0.1888729811177457 0.9875067310835253
P 8.04899605918389 3.2445486630317504 13.114956597391457 0.6158190592269717 1.105722969115657 -0.26003083220949413
Ni 6.916402089029938 0.8694758798082077 8.330380958687513 -0.7178322051366798 -2.2408681001471726 0.8131329720232191
P 1.1417796396195794 8.465376073269255 10.518379674132406 0.31623874685962955 1.7197448272328897 1.0219903666826917
P 7.25470853786869 5.019639972968718 9.620207133884858 0.2846735704588388 -0.3720409414309141 0.07050196267530438
P 4.367771955271626 7.049376911354586 7.921125619952023 0.9341463131845138 -1.0518519301288143 -0.9343887682126231
Ni 1.4775884744042345 6.48519364780117 10.373148042097835 -3.1223510214997 -0.7454183422850647 -0.04935849582846984
