# total energy = -340856.8531662396 ev
CRYSTAL
PRIMVEC
9.41080746489396 0.00000000000000 0.00000000000000

0.00000000000000 9.41080746489396 0.00000000000000

0.00000000000000 0.00000000000000 13.77366798386797

PRIMCOORD
 96 1
Ni 3.360279414932989 2.0310781324699003 0.5065018973381192 0.6148466680113733 0.1363905949483135 -0.2505663443624846
Ni 6.165255307724551 4.808819148160826 5.908945376055643 -1.8456862018234212 -0.6681746900105525 -0.22198056230499189
Ni 6.995834362025873 6.793078512981911 12.269418475962507 -1.0178331499812086 0.15823931539228875 -2.2888045188171358
Ni 4.370661358620894 0.10883316627703433 10.173726679814216 1.3194027248644373 -0.8387331890898265 -0.5651297604022203
Ni 8.32280528309544 5.014482936743176 4.962349886060937 -0.011942002853224594 -3.653253999508567 -1.1817995976652615
Ni 1.1638063394625027 5.176584097095102 9.168786065061898 0.34346441534480204 -0.44319879252266253 0.186736137280401
Ni 6.040929128948975 6.047610802321972 9.346232488233554 -0.08173459816633022 -2.1731814954334765 0.13441933015455562
Ni 2.147903897614098 7.054680141746081 7.152417965900915 0.828892805960637 -1.8637494870830353 -1.683572233967075
Ni 8.118449596764986 4.951948120456468 13.295405420759009 -0.5716565057771446 -3.276152098614977 0.817082186478954
Ni 0.38461123556103866 0.1349566270039377 3.328668512313418 -1.733431323581047 -0.35416200426796424 -0.29933991422176187
Ni 3.8304151285876284 8.472587696341376 5.092869317296751 -0.6652374617590995 -0.3640535523500633 0.037253999255451975
Ni 5.40492793191537 8.628364794007874 12.800214373036388 -1.016894440217023 0.7653513337635658 -0.6827502738318822
Ni 4.199111747471097 5.798544369237846 5.664035696674126 -1.490324006599769 0.7634566878440142 -0.2003056484347195
Ni 5.03658892371947 5.811408943182757 11.80125150325101 -1.3390675502832163 1.2848427275013807 1.460838338435826
Ni 0.6827747928060952 3.660615927645405 3.949034593654211 -0.294133430320158 0.26460405340247334 0.015880675785998454
Ni 8.829003211349127 1.6804690857313607 10.415414098684586 0.5382326789010602 -0.3690558906606612 0.17908119183830448
Ni 0.028170311372856586 3.104926562393706 6.411463678550397 -0.5333802359047652 0.8703292187285527 0.15350771424457435
Ni 4.487176567115361 1.0229171393679493 3.7826486926167564 -2.230123202925843 0.652550096099418 -2.703173274481983
Ni 3.5221076618654545 6.893623581034159 0.06042208998778169 0.8419097870455953 0.6181497642426773 0.2641273708763709
Ni 0.9918426527797312 9.433675829990188 11.612744557945154 -0.06103721771797876 0.44091796690828583 0.2576844434645046
Ni 6.268830655813567 0.404152777475162 7.492132120718443 0.06328384766031037 -1.0780126476845824 1.5040457270612353
Ni 6.043837068487364 7.664029931748241 6.233989964036795 -0.05952746594167167 -0.364548746818927 -0.15848279886166253
Ni 3.102310357889913 1.445048323620256 11.592249701224432 -0.8201988777310648 -0.46732936702227906 1.992230854486601
Ni 1.875809218412053 0.7163732579839441 9.421822917858794 -0.5506572778176582 -0.42567183938249276 -0.06051476955560547
P 8.052733927520428 8.310364195491072 7.049790286133956 -0.3268872277124112 0.18198859529308656 -1.3180652369999364
P 1.5348368386227362 2.723732391060463 10.279095727825617 -1.2763282622724665 0.4994473306027463 1.2689427684416728
P 7.4712024846880984 4.437120481663292 7.362424842175712 2.593892134155952 -0.5354885404970197 2.181429594374882
P 4.87564529269836 6.459230114521268 7.654495842601504 -0.5994876690567998 -0.35998992380365097 -1.0135453212391319
P 8.909606778165628 1.037522712712866 1.1706367035950673 -0.19944484309632102 -0.17770230921290686 1.3168627320514033
P 8.099505641131406 2.7015981716614657 4.50805256154257 1.2123080506667638 -0.6551420251963104 -0.302169413250757
P 4.157299529448246 8.389471443904325 2.584628421161484 0.09068255138823737 -0.11454573115908015 0.27822241551685634
P 8.608028038854288 8.125394772749877 11.84688356806555 1.5515144620661603 0.5093368218023163 -0.0700785019846406
Ni 7.25192125755543 0.963309084234765 3.047562043784638 0.3827940661823601 -0.018603731144116346 -0.7670328352310468
Ni 8.20328802698691 3.9443329541934373 9.371617200566401 -0.05771329555106835 1.0243609237973972 0.6954993459674345
Ni 1.1049793813574293 1.7455824632915915 13.618700539613343 0.2651398713012853 -0.48366821339161864 0.6952687180138671
Ni 3.10808859373642 8.075037541455643 11.7740900304494 -0.3090599697230032 -1.1767170409360315 -0.8329224959453203
Ni 0.9638266786509831 7.25737011513707 10.528702341264122 -0.03646852723967913 0.14960760785921978 0.40934584852895955
Ni 7.889343486531741 5.703589320880753 2.105979690981193 -0.5915571013558134 -0.464048125167846 0.4733763445473073
Ni 8.40679674063628 8.775935667475425 8.973916472759585 0.9449873696640758 1.0722634039056307 1.5383311306066667
Ni 6.465940020316968 1.0817252758578875 11.555171119408083 -0.49750691904692385 0.1467030326179151 -1.5586927249821543
Ni 1.933205733766851 6.157670196825064 1.7339394121689555 0.505690997519613 -0.8771526694082894 -1.317364611388486
Ni 6.780590371339705 2.3945705747684856 6.283478577792538 1.4771231916387786 1.4855024168414093 -0.5015273530602266
Ni 9.056151873608309 5.457769616407449 11.124537270518449 -2.0802821388995785 -1.1425910457866 -1.933794564726579
Ni 3.5502930305304194 2.341201885052621 9.592918928083833 0.9439596997305099 -0.03207631170925443 1.4530476387468136
Ni 2.686522057938169 3.2519327874072 5.2991984499741305 -1.2574337393608086 -0.017041014642686782 0.821272827521534
Ni 8.254388712078981 6.384197745784787 8.780286283813926 0.34015283447306577 0.07962912178755319 0.43789692069377495
Ni 6.525661005140964 3.249834177319625 0.6717020366220561 -0.6386573972777259 0.6683322986343393 0.165785760280979
Ni 8.39455327999083 6.93304545393484 0.0490180733773629 1.3741101437096463 3.9618791956869965 3.204288736815772
Ni 2.2564857953290773 0.05397286356170478 1.6697680564462416 1.3818468502322718 -1.5091028298691687 -0.6772794805252981
Ni 9.38729937029705 3.155650815183075 12.243482290306199 -0.026621459242270284 0.7691383116098237 -0.8974805823323639
Ni 1.0337678004933932 8.263780698031447 0.09664993480001818 0.033484504910690716 0.4101714297540484 -0.21023859127771535
Ni 8.814256475890696 3.4076722418434273 1.4329987256107 1.0667303899025433 -0.7073004523674206 0.02424884524503566
Ni 8.384511948316199 0.7550742630249461 12.8260395111634 -0.1148861452176344 -0.17751487579244912 0.4051976306885409
Ni 2.7617614644411383 3.669038600418408 12.394070268679922 -1.6406888043399874 0.14923016991514299 0.5333211005320557
Ni 6.50245395367926 3.0464101609383634 3.107808151670905 0.2328290749837216 1.8636875234968484 -0.44792602279500277
Ni 5.329227395841588 5.7148540575391715 2.270754461763074 0.9673369410038694 -0.8761219141509297 0.026029591294542267
P 5.7614093225760925 7.593646501950154 10.651852169093749 -1.2115241213128876 2.5013090233108923 0.6661512318226205
P 0.8414758283838469 6.094796591465924 4.818580037769941 1.0362589607865638 -0.977157269528401 0.07069839495682663
P 4.476617641024513 2.5878026865540353 2.235838483525761 0.2120656171841251 0.3857179246973744 -0.419056133838188
P 6.027142295862441 1.311791288463027 -0.08173756912839777 0.2573823388430535 -0.7856599634139307 -0.8925114112525467
P 6.506406492857652 5.812199451018435 4.10546197812363 -0.2731881955270586 1.2558005746327596 -1.065165616518585
P 7.17789584522868 4.26700131326377 11.516453174913462 -0.4867298830360779 -0.7163592201355792 -0.7816169036928088
P 1.768582476986808 4.239634684857187 7.227415514649396 0.23785198211960976 0.4001374425568141 -0.3352273721469904
P 5.913920870016634 5.854134009539664 0.1802941335416119 -0.48867517968790675 -0.5374752319097452 0.11638484125034795
Ni 0.298711266245491 0.8480680990849513 6.691536840408253 -0.8196715444726852 -0.8879592731054899 0.3918618328115832
Ni 4.457636042160662 3.7043950044498843 4.046083546695095 1.784290058104127 0.920492469846505 1.5357638841001229
Ni 3.534746376428743 7.197573843852534 9.603882518900088 -0.18695596660069091 -1.9986776385532092 0.8313615792161038
Ni 5.831482195724449 0.5407610012072136 5.284391485347267 0.698843579849319 -0.9471661224829494 0.875648316948621
Ni 1.9375158836328121 1.6354007282901197 3.079296227983345 1.3965173077602528 2.999805559964595 1.9532436745901265
Ni 3.2182044530849185 2.567353001709639 7.587734632636186 -1.4683269335033873 -0.4598579983458983 -2.945164475580947
Ni 8.079338280514037 8.35960154068476 2.2900786140223857 -1.4363946035711648 0.4519379721678733 0.047400600771150624
Ni 6.0573792205771415 7.854664660645133 1.0761183167091108 -0.6151685701271663 -0.12466636453284982 1.0817698007341692
Ni 3.492435385604809 6.354045518338193 3.3196473121791157 1.4632050388957898 -0.4335571556678404 1.4376511016860853
Ni 4.342532454801335 4.152142406901201 10.678049975200436 -0.9482457287003734 0.4876881331842891 -3.1821800778421907
Ni 8.424507880478503 7.093076236621894 5.274061241880312 -1.4593095604961255 4.178661758730816 -0.5809214760188383
Ni 0.061314234545190256 5.868560777540797 6.91515268550656 1.2429453159366466 -1.3796842953633142 0.47908856444073616
Ni 5.356989278166012 3.257513396294787 8.348330216461044 1.7259409287412726 2.3938603082079095 -1.7426381868912957
Ni 1.8090489495274922 7.690154333555902 3.694359319259795 -1.3977506659467218 0.9541153001072729 0.15843343368096585
Ni 3.882183981017001 4.551245345035588 0.5811098386533026 0.5310387322557822 -0.18137024498279733 0.11968433793722616
Ni 0.8581367221015275 6.255664936026493 12.68552109688701 2.8414451456134096 -0.7938820942134069 1.4142183245844417
Ni 5.149725652297168 3.0716687684498045 12.268289179054396 1.4403978111932871 -1.3094322439152868 2.3344580549901925
Ni 4.068809705890095 8.419529563275242 7.794711228874217 3.949015966571083 -0.22494015915394805 0.11754595143798466
Ni 2.488396326217467 0.07037872439430345 7.155888671731845 -2.3788934024854322 2.313786385573454 -1.5976621642668163
Ni 6.091267538628073 8.081145155567016 3.8160081232823884 -0.2757649551152993 -0.6753084728418564 -0.9149897948607209
Ni 8.031333751111704 0.13259169106219962 5.041121168644026 1.032742977213505 -0.26725280387923006 1.1592103995108358
Ni 7.8291801937520695 1.9688538728329232 8.346966590444499 0.0037005887800387887 -0.7474554273197513 -0.13974665590473995
Ni 3.6589219822832364 4.8475728537242055 8.490956651632576 -0.995234438745086 0.6553533698761681 -0.5767871421354905
Ni 2.690540472769535 4.019497074235866 2.7102448216545776 -0.3351798067385066 -0.2091597563912398 -0.10225174428307551
P 1.5764984837245057 4.111459485786463 0.9335746966441733 -0.6495838143822426 -0.7759219101905606 -1.441841228508033
P 1.6480676752761108 8.089614882377857 8.790616527280882 -0.5428501230684134 1.2987320838889633 -0.1075189062192858
P 3.031428155290743 -0.03956679933722129 13.33854456264889 -0.34241591947562966 0.9108528898742119 1.0754621133485867
P 2.69499178474901 5.577371569784089 11.32696844670133 -0.34075318706122604 1.2690271006253628 -0.2949790661499049
P 5.782338958606437 1.6169273130349193 9.340241568136019 0.9423946692362352 -2.950656351933454 1.954052286534351
P 4.697602224326918 2.142652666991377 6.106899831078614 -1.3865329428540314 0.7051232422104438 -0.897108543704926
P 1.663811956336707 0.1803204838028012 5.085003764331749 0.5644448185200537 0.2304024678201 -0.6126465750362611
P 0.16986789983746683 7.112020192255474 1.902019258568578 0.7399403498896289 -0.19122965427538033 0.023205491582185843
