# total energy = -340865.98342227656 ev
CRYSTAL
PRIMVEC
9.34570351822407 0.00000000000000 0.00000000000000
0.00000000000000 9.34570351822407 0.00000000000000
0.00000000000000 0.00000000000000 13.67838177710947
PRIMCOORD
 96 1
Ni 7.085660002716964 5.6578234334707656 7.822898621096053 0.4197685865241803 -0.11226336288280665 -0.2602720016860227
Ni 0.3993634024610506 5.487890508097002 7.77804765578993 0.5448213878621714 1.6509202522600084 -0.2064179319800445
Ni 8.29579775638507 1.8920656954679969 9.9007952180338 -1.6764523350928417 -1.0704572039348275 1.3244279459931705
Ni 8.246611319260166 9.23118117506647 0.3418088224895505 0.1252569469289972 0.43852684096828987 0.2218790037301211
Ni 6.693981572182155 1.8541127938597444 4.2055282237914335 2.4549582039604947 1.9580143565058923 0.7963184715690416
Ni 1.1563158476444846 2.8453274448011046 1.8567996835943843 0.42513884969715815 0.5931830669950107 1.461082336125832
Ni 1.468967010018894 2.192156232439429 4.556693029979586 1.168748163797942 1.4149667727146922 -1.106490700519617
Ni 8.321283489624593 6.879783501971287 1.0283142898269253 0.8699173280021147 -0.10522033999309621 -0.6878024915438089
Ni 0.6176304368073728 0.7169276011258958 1.886632103496798 -1.379753715148669 -2.4242798010400315 -0.6231739569301461
Ni 7.850091814351294 5.3239388329151325 5.565350501793057 0.7280441126726752 0.7596776804175561 0.226215683432262
Ni 4.9047186143873365 6.175594094613441 5.346729265286934 1.4488117462885952 -0.2959594277853032 0.2808040602011035
Ni 6.198902278954978 0.23659489333276493 13.056876647414073 -1.3245840119550607 0.5229590405714413 1.681955010078626
Ni 3.3150238075264316 0.391016754732331 12.02511659673441 -0.7960711314449258 0.6034422828291736 -0.010497557097214179
Ni 5.902559369056904 7.149565922735982 0.7667448732319755 0.26706485623814 -0.0391383607623584 0.761359181885037
Ni 8.620850667204236 7.572468348413163 7.048292142143106 -1.1487097570898281 -0.23693589806324358 -1.4597181087884539
Ni 2.574199242743234 8.969286527992335 9.49367207801911 -0.7414310755025424 -0.2167907905739363 0.5058907722352448
Ni 4.656674299788807 0.18400381645019437 1.6727977362848747 0.5625072351777086 -0.5292641568538626 -1.4687827900938832
Ni 8.518991845576965 3.8491587953659914 8.863125879078614 0.09593608647769285 0.7418897603065159 -0.9686253207979898
Ni 5.648272124570585 5.32265847154593 12.798766075656651 -0.23462344787998304 -0.493820214223956 -1.0951243676642044
Ni 0.37050106657413456 3.757412024844392 6.3403541731415585 -0.7082365910284447 -1.7847173754495327 0.6249860704382204
Ni 3.461928919661403 8.826876699204709 7.213390535135203 -0.06085698338637261 -0.26723043528172685 -0.8534581540048269
Ni 5.130454734910786 2.58683463377361 2.419869903807574 -1.2362537628490837 -1.176230588217916 0.6427282249129899
Ni 6.048109354195275 4.433396099266089 1.4098311370279122 0.46970506634330716 1.186043717653596 -1.9877098266877964
Ni 0.142575247738246 8.415217154747603 10.365792561077118 -0.3203910784651063 1.2687447934982536 -0.1566110357602464
P 8.813745985892817 0.9734391230273253 11.782366623126048 0.15029100707948953 -1.026124186345407 0.1171155487687854
P 3.5930584844152547 4.63390816624591 12.589651288674272 -1.0157536417443602 -0.9093577933859243 1.8630380628383074
P 0.6666093993162449 6.825812064692869 5.371719676244941 -2.3356299638111064 -0.5359554528311091 -0.45747792814949595
P 2.4143970598819906 4.358686546087962 6.448905452991353 0.3795233658508883 -0.2816430111626311 1.4366655978443645
P 9.248339886554465 5.904914486319962 12.432527584414585 0.8482879226577972 0.6321558487137823 -0.6880601160805698
P 7.380292648888293 7.888044715959546 9.204004804077394 -0.6423842113100098 0.19800502532600092 -0.062363135618253886
P 3.6526560351554234 1.5392373540702242 10.111182889822643 0.25479632328343216 0.17716906241725616 -0.4737643240143453
P 6.455937160248197 0.2252155648426866 5.772112975223408 -0.15409392576534753 -0.2668036321569534 0.0973044275801292
Ni 3.541601041358116 5.543768468874087 3.548130884341048 1.1761246587676712 0.6215518479456908 -1.1376483570693439
Ni 4.606067315743329 1.5120787399176552 7.271468474498494 1.0573975425373918 0.21988794144202134 -0.4220596965512022
Ni 1.3472766057241259 8.518823622915317 4.195488134602134 -0.5784329052690296 -0.13489292735686445 -0.4333872057488794
Ni 2.597012104803255 6.597674098389236 8.511988175430394 2.5684778078479056 0.6729690260754022 -1.5265575350105063
Ni 6.182556643664943 7.916399580150493 7.238435151173075 0.43425803838960697 0.9750466509433013 -0.32572046109781966
Ni 6.732439141775348 -0.031068856465519445 10.920518937272615 0.9642068800153202 0.41230827359139316 -2.2976941079972817
Ni 1.0979706211632436 6.288424772061466 10.001783020101875 -1.0920974079124224 -1.0175135618582607 2.1331301359385453
Ni 7.8779326648538746 4.721178344827014 13.459089554849355 -1.4911465025010642 -1.1057003434078376 -1.1661279525662753
Ni 1.008653733532101 8.477655799328922 13.125966629122845 0.30130218015445526 1.2483914266528822 0.1143536697529321
Ni 1.8115431147596237 6.321742204771001 13.428354339996101 0.9432171651375304 -0.12439022805332771 -0.6637372230644892
Ni 6.957025740777543 8.38242308142986 2.3927729712976094 -0.12931671882066761 0.6071094472681157 1.2319574494665753
Ni 8.744727966100415 3.682711817369691 4.128300003540315 -0.11576340561626515 -0.8208077149596574 -1.3870795593861207
Ni 4.635992258109648 8.193864169130402 10.944934587469996 -1.3190286293544704 -1.540071253226225 0.4408241216428989
Ni 3.367154141230158 5.318761313217774 10.640645960520127 -1.398318879745366 1.8560210080905262 -0.09347296964918096
Ni 3.9598493067297293 5.670066304957299 1.0083275684825745 -0.5056781420038066 -0.5352013482739041 -0.2438421382647736
Ni 3.9246533876318033 8.13919180409512 3.8499307504688827 -0.9393237436203952 -1.7151980884024718 0.059296580877788205
Ni 4.914755899865608 9.167191143716629 9.06668744908596 1.0746360179028653 0.9382842466122872 -1.4782763314066152
Ni 2.041839938554393 2.3547621263281227 12.680420498617632 -0.6375708490817664 -0.0865862698316767 -0.741072149501227
Ni 8.796820916990441 6.197201360931658 3.313560270370102 0.4734743035777523 -0.22577062547504345 0.46530436617245025
Ni 8.083640942937905 6.054735457923482 10.152094641135198 -0.48892380536360314 -0.291338384073524 0.16117422965089662
Ni 3.3830231456455264 4.325387804785277 8.44672899755546 -1.5658851289655353 0.269825963923045 -0.07320239232560297
Ni 3.9415317280170545 3.5432271937540376 5.095183115615119 0.35609033163892867 -0.02808647382357098 -0.13453040181112313
Ni 2.7859541909431313 7.805008141029892 1.6601997280681982 -0.3992840934175833 0.04188044228386981 0.5071848084563201
Ni 2.633796793483403 0.931550745706875 2.855075013473207 1.9189564712724825 0.4379506567498458 -0.037235230202374583
P 6.899895455741531 4.142286783285922 10.329859265978973 -0.9642966115156488 -0.542115301784918 -0.12495767052102351
P 8.571813761334129 1.074344682905262 3.5501009586230032 0.9334176625486053 -0.11396106230020372 -0.12497823934631379
P 5.864195256497959 7.439292074609273 12.421147321354164 -0.024918360508234504 0.22071480821869088 -1.4638879238954272
P 0.015233496582480055 1.9543921916082174 7.932353630467028 0.9494520903036487 0.4392236099249984 -0.6115523135308177
P 0.7122369925769714 7.687027980994783 2.1404072034354362 -0.47772073755893213 0.1153448300216078 -0.2949656964134662
P 2.7995241523159913 0.6082688456867162 5.0536554824468665 1.557466565884537 -1.068774416915766 1.48979795889297
P 2.9012614797987384 0.9518131653022586 0.5919577894993527 -1.589188065357534 -1.7936043935265176 -0.43704485710612473
P 5.644823560006822 6.3153123608147155 2.7434863800103417 -0.5011105772377822 0.1745370241110478 1.5169989447877938
Ni 9.06216412862834 1.5603679895137745 5.657009422702463 -2.5419329674798417 -0.5081600278853957 0.41240700395278657
Ni 7.935371358102906 7.625860352079242 12.060571391817204 0.9317783271729695 -0.3572810095129202 1.1922207929985855
Ni 2.5161156959578883 2.224959651460598 7.797757744312905 -1.1466690725107156 -0.3467104330859255 -0.008831996469333176
Ni 2.6419275554630093 6.892979635207153 6.086113657172364 0.5701135867700569 -0.9617702455493694 -0.6809849544013432
Ni 1.5641997279179567 4.883840312936257 4.591682409031823 -0.5594761616608687 0.3291297438896848 -0.5052845061098137
Ni 1.673843520498114 5.25437876232409 1.9727097703208927 0.0916603419204744 0.9685119351485771 1.3434975610301119
Ni 1.128306774480256 1.6339747496877701 9.88719908869135 2.2688499300720797 0.49873307814454104 0.4992750666909401
Ni 7.769933716076489 2.314388687532838 1.8853872558006102 0.23117045633437605 0.67507578800576 0.682743846073979
Ni 6.047006561191144 1.9156635966157036 9.410972882983092 -0.9541343262706664 -0.20527353396295617 0.17379268974585552
Ni 6.317938503477094 4.152707242604612 3.592257557631746 0.5054649975517359 1.492763983499829 2.4236987317255805
Ni 1.000765959841541 4.149754000322364 13.768522056964251 -0.3144533728244326 0.8702317739187401 -2.5435087966073935
Ni 9.097864715711207 3.955671777298829 11.382985463828492 -0.010850312450942604 -0.42870445556122944 -0.1499667909708514
Ni 1.0969893223036358 0.06647972674221694 6.748270763377018 0.7603500238942325 0.26150715964470445 -0.14230516066053556
Ni 3.929260819420247 2.7128520987540767 0.34337516238355276 1.385952130649897 2.021823994762686 -0.29594117295285804
Ni 5.483451298970206 3.7964583737533504 8.26190649748525 1.7542243490669982 0.30653308953609143 -1.0093253696205133
Ni 8.949641859393335 2.290407612544713 13.450582161021728 -0.31034269309016876 -0.4943984553249292 -0.035652201985970855
Ni 3.888345329826322 7.812204332667015 13.269261496024804 -0.6700582801865105 0.051726996060646395 0.0544564791766675
Ni 6.7258878036745395 2.442910801031161 11.833974532008327 0.6319496462402471 0.30251496951563384 0.9175364725419747
Ni 6.875391021361616 2.194305744227141 6.686662951830167 -0.5457914650849245 1.4852283372444164 -0.09586923779549941
Ni 5.067184322724657 0.6187603323514353 3.8686838389611555 -1.4887587189951779 -0.3697585731546406 1.2269620531345127
Ni 7.283377704372761 7.605982040894619 4.79149635196581 -0.5741810719712112 0.5763153447053946 0.1785731418536344
Ni 7.715728636212448 0.5463769247557505 8.004109941362907 -0.1985038193392904 -1.9909429889131132 -0.0997210074414218
Ni 5.3737047036523755 6.023801179587281 9.471348930818548 0.10629249001135242 0.26467810117351837 0.2959175188037742
Ni 4.67367413431858 3.5143115873576 10.88286229446293 0.9678125950887075 -0.8707647636040745 -0.20364114056585572
P 0.8972650981225276 7.896100712311752 8.240116989950248 1.367783173050354 -0.1590471560055648 1.698838673207842
P 6.217219857667653 2.4118176457367366 0.4205641306802874 -0.589564753516133 -0.6508295138638855 -1.2606949266105836
P 4.601385118327486 6.582347144772508 7.4800505563856605 -1.3018156079102936 -0.16860008980132254 0.10871241230675471
P 8.753540964430034 4.517675652751245 1.5819462841513747 0.9708686083062118 -0.3892480493378199 3.2391878626858017
P 3.0121482509343984 3.45985417350109 2.9688243735678936 -0.34081180821330337 -0.2713341730374553 -0.18310419695476854
P 1.5587324914144285 4.108810473618165 10.175689738571878 0.33959490508706675 -0.5700287403657344 -0.730071427515349
P 6.070875487738172 4.157501588461552 5.849163627109456 -0.451327592277384 -0.2474589090817545 0.4295657751202602
P 2.1143812885379574 7.692457834684611 11.372042579688353 1.1859820111777253 0.40499399931816704 0.6911040451132163
