# total energy = -340858.42287995236 ev
CRYSTAL
PRIMVEC
9.38375855588942 0.00000000000000 0.00000000000000

0.00000000000000 9.38375855588942 0.00000000000000

0.00000000000000 0.00000000000000 13.73407917139140

PRIMCOORD
 96 1
Ni 0.2799034456251846 7.552405564144436 12.62080821826056 1.372467723010217 0.5559169835547006 0.3461129087112426
Ni 3.455653585748021 4.052995511696774 12.770578636962316 0.03301245037027863 -0.09788086890888949 -1.0040651496628386
Ni 5.754224040607642 3.599994561680656 10.028459492199497 1.0036774273061166 0.3286975414482726 0.7712900678455039
Ni 2.9771194283783275 6.781313962576865 4.838818676007594 -1.1061978518695466 -1.2602709516992876 -3.1610751775427754
Ni 6.54060178505613 4.7217384574005274 6.320532938243639 2.626336627837903 -0.0452123348705802 -1.8315273938245362
Ni 8.432039102301058 6.182836601828486 6.220714143718492 -0.2524717889153136 1.6336540089803928 -0.9601959590837141
Ni 0.9044976835166989 1.561344838348667 4.1487905505022535 -1.1243135876336507 -0.8540816465214389 -1.5144224423098693
Ni 7.9644464075459425 9.245657898181898 1.3635755556504856 0.09184314735524182 -0.13311063864546108 -0.7546375468904875
Ni 2.3558301502920056 6.554292688962366 2.3607369177029516 -0.39066755539316583 1.1512721185003658 -0.9607831990457517
Ni 3.55089873629517 3.059011490331526 10.203363370135289 0.6703436726374132 -1.8020242421590966 -1.3230377505138635
Ni 0.5704405665804213 3.1735308811962946 1.8295026332408597 1.213285584088685 -0.04747721964535694 -0.15270990093362732
Ni 5.3911851850048755 8.801693507769416 8.012063352564313 -1.0288701245216603 0.9784492488669471 -0.20603560893996128
Ni 6.376592450941542 8.038868997594163 0.2671293349414572 -0.19636029063372634 -1.7326911029809127 -0.36642770900919475
Ni 0.8802050090599051 4.844609393485686 13.36379452422185 0.7770531955815262 1.3986238125802946 1.153809797320555
Ni 2.779497470691337 6.5426286769298425 13.323471574821243 0.4785072380159695 -1.4758273556454906 -1.0946646544189662
Ni 7.377755047692856 5.833141451060994 9.855067337786181 0.684721281515324 0.7896369457838078 2.915985540024146
Ni 5.383490502891706 3.90075341096013 0.8793341962549025 0.2850247831506704 0.03828424029217922 0.5166516102961747
Ni 2.1493874594508955 3.288510076236119 8.158263251090384 -2.3014036956383848 0.4422675389576448 0.9003962133172624
Ni 5.722281726079318 3.081504359874532 4.175490159059081 -0.16015375880618224 -1.45612344945866 0.512627062517814
Ni -0.22098939353846897 7.354154894626248 1.4015901004171412 1.5127111160457174 -1.3402875387332465 -0.3792207470088049
Ni 8.864686679751978 0.8806845191281769 10.639448218388713 0.5998733345309927 0.9437892355909165 -1.8589063000581212
Ni 6.268059898111167 0.8992624845521419 10.63628870684298 2.317101565989616 1.465930922467385 0.6699304963593946
Ni 6.371018498288833 4.129304237238588 12.412971100880405 -0.7345888557697284 0.8709259717722873 -0.9465359450981183
Ni 3.890487578970122 6.740616601205142 6.7236967459389785 -1.0033120735468979 0.662315403016298 4.356191289811284
P 4.745901635987612 9.081254446202978 10.181348133908822 -1.7689773390064567 -1.1111333414979507 -1.1883800790962566
P 6.336035845949938 8.175975095588685 2.4097679951535826 0.17057289725697722 -2.1338873258195443 -0.2511571838689481
P 9.30526353328293 2.102712643803455 8.355525810820138 0.22154578876041844 -0.582968588355854 0.04869566543349033
P 4.856386010622304 2.153084660368686 2.232735880750391 0.24277564467347224 0.02103676606564119 0.3800321871665068
P 1.596383793239608 2.8098163949689563 13.516489860502476 0.9642989255084942 -0.5768560477002129 1.1093518241174958
P 2.455748412659103 5.64606683812425 8.180100195902037 0.2933271323687787 -0.7843584709936879 0.7915115370987014
P 5.376490218920458 1.6814287981074711 5.983224348926614 1.1867165753509046 -0.7816950652289119 -0.17298870578732142
P 6.971222470633337 2.1612672979329335 12.686375355247565 0.5857062990019912 -0.9509011640453494 -0.9492291756595653
Ni 3.480548697511724 1.997539476578584 4.047612049345158 0.4591321759234673 -0.07931904674630211 -0.47904819812110405
Ni 7.200570916399137 6.8697934231196305 4.0702184623681275 -1.0474332322358284 -0.6050304532519 -0.10946317442985021
Ni 7.380795385503426 8.824289598657842 5.716879496210353 -0.3766704697831255 -0.5947578676812983 0.5238560984644138
Ni 1.3185588501608465 6.826900262218052 6.705403108402853 0.16406055005975617 1.2603324010648425 -0.1737268695049266
Ni 3.863293446331143 2.8501196384763463 6.897048550189994 1.131828407953457 -1.4858292040532088 -1.0842540006086037
Ni 1.842942052414616 4.5554676374453615 10.253603075703209 -1.203221257874147 0.2449381995424298 0.39669730652701357
Ni 0.296950920009323 0.09506216725299403 6.678402281192572 1.1575741494589935 1.7220166539862019 -0.9558631360363151
Ni 3.9911565420311867 8.193184908997894 0.7985024990319333 1.7501262677382246 0.8102790475141917 1.185031731449314
Ni 6.468309308227043 6.841764135958611 7.878596276183799 0.5892878457056625 -0.41753146966354543 -1.3479931349076204
Ni 4.510444363324651 1.9434890266129115 12.035682069354397 1.2450592769558557 0.6633893528067671 -0.3228002021272312
Ni 2.6839708073839508 1.1793038714298432 9.406746068221084 0.4093121670775467 -1.5736105226342514 -0.26086669784722816
Ni 4.592064296276286 8.179475237574309 3.9407197775311014 1.4322790387408946 -0.560234637093448 0.6226669353867406
Ni 4.55389116598803 7.077390316277715 11.290305720058688 1.4214539231009327 -0.9026577556579293 1.670924206185761
Ni 8.610827856328134 7.796664802444169 10.324923395133608 -0.5356173527654001 0.9111413676489082 0.46120037130640573
Ni 3.0432467757582047 4.340129143380735 1.3116242525003203 -0.49132932948130215 -0.5485877968831391 -1.0708459547328137
Ni 3.391421757620412 9.096765799292085 5.784368426973914 -0.6241900568994864 1.1352132652652902 0.3604984880089533
Ni 0.44608136636947127 6.070944663392604 9.018593459277495 -0.47518434429032347 -0.2173518052837289 -1.5292877894574757
Ni 7.789589448403523 9.169996651988631 12.404551992597558 -1.3760443846178818 0.09797728527743771 0.3248511711189889
Ni 1.116995713830526 8.305893234438464 9.009350456983018 1.0686150085197659 1.1114117919703181 -1.2678708755337325
Ni 1.4034630986485905 0.7159638961060548 1.5504681236689428 2.1209886154800053 -0.16189979496301152 -3.298601685867745
Ni 2.8705386973522664 0.28668790314691744 12.606429484843478 -3.2366337288053804 -1.8194447516283891 -0.5746299865831717
Ni 7.630957008009478 2.6983373419147565 2.4609958105099374 -1.0216322120123245 -0.041504289891373676 0.5447010602342233
Ni 0.07436253399270287 1.3589277799789583 12.707456907485913 -0.05826145474505451 -1.111215359688796 3.1568495694972016
Ni 8.83676061393638 4.339678722964354 7.352608451196674 2.013715506722938 -0.37558263603558545 -0.32924518642162653
P 0.21701161823630777 5.930685622483419 11.130056458045011 -0.028064105226067792 -1.1644827036533685 1.3142198951119173
P 8.919628586791736 7.820734143444506 7.574303503387473 -2.6964372413097304 -1.2966147804356445 0.7590678147476992
P 5.00371102181346 6.125042032151649 0.10816658624206725 -0.4784704712407631 -0.6311901423664033 0.5390569745745684
P 5.522079234756814 6.770447570031683 5.658110892383093 3.2830043456501206 0.44397809389084825 -1.6636240729799219
P 6.741320383105737 4.623528039112206 8.437710646043984 2.078198516897672 -1.2077299443777783 -0.2680326194680481
P 9.145448739295889 5.2013798982938235 1.902087883340594 -0.4489287530279042 0.10137602654634154 -1.0550861207953959
P 1.9726537485735556 8.03545330943661 0.7559997024912184 -3.237771956174882 1.2203008390642531 0.3369309851016584
P 6.7686646558835095 4.662902290510811 3.3809316537980814 0.31906798877830855 0.8660527028403859 0.17563154272680723
Ni 2.7355908638529027 -0.2666385643627758 3.0282956330619712 0.010509384171756094 -0.21108422710746225 0.6981051590213978
Ni 1.8313531104514902 2.1193500479335134 11.370828691621263 1.8422571215372145 -1.2205193828329626 -0.06363814567593556
Ni 4.9023288930931255 9.002252581921553 12.515935331313276 2.130195993010886 0.5226991020418352 -1.062148684069132
Ni 0.9858295350770242 5.263960184894704 3.699136787205364 -0.7905144632927547 -0.3175142711379435 1.4923148117775524
Ni 3.64402315738186 1.6117919249832946 0.4332941184235994 0.19394731031685952 1.5326603054741346 2.0614809470326754
Ni 5.185643334996525 1.7170495460362372 8.649105146337678 -0.288304996563839 -0.054827232252524935 -0.3919798464466862
Ni 8.176688261247953 3.7647639802478854 0.23377851823607576 -0.6305100855802431 -1.3790155514310638 0.5458647415250213
Ni 4.68323689555866 6.34924817816377 2.5552528512686505 0.7410698355083818 -1.4781806863690155 -0.7588510707512027
Ni 9.537464641685808 3.3368739684449857 11.790638348829468 -2.386252928174297 2.709690763885527 -0.2589604819634508
Ni 8.914429984486011 8.527181031502787 3.596969237883966 0.26693835796260484 0.6476498305843233 0.4517399972244543
Ni 4.855391332202797 4.589718356607637 7.809622834797917 -3.0145572643524727 1.1928404288604553 1.7393304626743011
Ni 8.054342815648571 5.860889225461774 13.155050935753728 -0.42164446339065453 1.4049883213457417 -1.244039834552406
Ni 7.359663160968236 2.7056379061635925 7.574028559258307 -1.804814917530356 -1.8978423150016863 1.1211099930946886
Ni 6.958404256283839 5.869541050959751 1.6354267979569994 0.19627210179529422 0.5055948382613809 -0.33903157638442905
Ni 8.793670394102636 3.7463999645217014 9.75693761982246 -0.6685097047524681 -0.1345406862237683 -0.9591006691370064
Ni 5.9724433485853705 0.48586568802215563 3.4107485469866097 0.5564661711899513 3.279103210823501 0.9007579675320552
Ni 7.802951920756147 9.495425402823617 8.667961809394278 -0.14915020860682698 0.15925438692036442 -1.2132992109354395
Ni 2.3247511415617437 4.756908784912913 6.122048613134454 -1.4177744173668165 -0.7677506872336778 -0.027534457974842903
Ni 4.162034787495578 6.927306480036228 9.074256977359331 -0.588001008573439 -0.49931569012088844 -0.1252417774203456
Ni 1.9783309225716863 2.1938289405337814 5.875109373357257 -0.1468899518177406 -0.018130905272755873 2.4368686934486354
Ni 6.314884853897399 1.2714805328903989 0.7555464669472355 -1.3443503959487106 0.2746280132973786 -0.10354038118751199
Ni 7.843714968438592 1.838390929457437 5.54300595497703 -0.12165380295877114 -0.12328799612808443 -1.0417456949327477
Ni 2.2822427147658244 6.9806531481013065 10.812840372802032 -1.0221803712063104 0.26996428927312216 0.16164371308814743
Ni 4.502299260795101 4.708469822634648 5.534682561032664 -0.917489164243807 0.0939931038187091 -2.9427995748931965
P 6.909711932521361 7.2809803444817485 11.697562723287886 -0.355355253245117 -0.41854191320593076 0.40096353800253526
P 0.5169681561491039 3.7698781287255403 5.296850259049163 -0.6845988970048468 -0.7856208826458793 0.0460901094898432
P 9.104197736162364 1.1227667254154026 2.4012390968942428 -2.20349660147725 2.379520751656786 2.938233809899385
P 3.9149135028000948 4.919153972396677 10.711606507468755 1.619477974590327 3.5707159316043344 1.0155073300615092
P 1.462927977369505 8.1709829359738 4.513787796540409 -0.5387109040890593 0.6755373010232107 0.3785085514331287
P 3.0149828946303217 4.611516828008724 3.3176869970830394 0.8571543719094915 0.2989344512532271 2.5693995483312264
P 1.4925431197465295 -0.12652966359238402 10.824377704092447 -0.3712063613447607 0.26943027114652307 1.9587944292050263
P 2.6176088660372083 9.250087032276307 7.818440752824435 0.8802781024111486 -0.3888793531444915 -2.362333184133906
