# total energy = -340863.19734569115 ev
CRYSTAL
PRIMVEC
9.38461200643770 0.00000000000000 0.00000000000000
0.00000000000000 9.38461200643770 0.00000000000000
0.00000000000000 0.00000000000000 13.73532828254198
PRIMCOORD
 96 1
Ni 2.483187027227899 1.9449607765360126 9.361381040433175 -0.771170254438188 0.7885786797226225 0.7664311970913059
Ni 4.5020422363547175 2.9795485250892564 9.349335891305628 0.2804926996082717 0.9495058263597197 0.702018635143191
Ni 6.750172894125933 5.663228396852332 5.552931993906372 0.47320382352518503 -1.5856430283187533 0.6899305936304053
Ni 9.138124881738452 1.816569903755365 4.435247262521207 -0.6807247587614212 -0.7943415503483288 0.6629394097535422
Ni 0.1835855280815831 4.195531433351375 0.6022621486831695 2.7261093144528665 -0.931187744776822 -0.9463063455858153
Ni 3.242073653016004 6.4712997726034045 5.6518401705443635 0.9413356318441014 0.41080032158729896 0.9649882382660349
Ni 3.3818574444104734 9.333446805222382 9.504846415000793 0.4082898964606194 -1.177971739278739 1.852029627542946
Ni 1.3369787070166614 9.340654187014321 4.619698990263462 1.0256539315772077 0.17546827767606554 -0.40960655838951393
Ni 7.3547108111483555 7.61601593955303 11.188495493903936 -0.2411728189627266 0.39562232829527993 0.18856804828281717
Ni 8.90430728102726 7.2835848390114855 6.39970175449761 -0.38790413371541577 -1.4081386940492653 1.3171458105094607
Ni 2.7431407715465843 2.9258028538360747 7.312551381510187 0.7611293252624183 0.7040649761492584 -0.3766483582959384
Ni 7.837267545186868 5.560335514083015 10.19468951399009 -4.146869039700252 -0.9757701593728874 0.00035121269183165316
Ni 7.11804967308956 7.663276844115806 2.3283991186342696 -0.37305729851057046 0.8607446603639112 -0.29144637040629806
Ni 5.67367346968362 9.641937761296164 0.8826293003896529 0.2333011295241337 0.301181595416191 1.205072452150273
Ni 6.536466516305533 4.348894757887692 8.27936721815109 -0.6964465403720522 -0.1737186419748105 -1.1925750910142106
Ni 8.055150075217442 1.9184867869070232 6.764772534560468 -1.1437534415258173 -1.0636748909056712 -1.2502673035193566
Ni 3.7140726988827284 5.582295505480333 1.423776980706319 -1.2059075464570586 0.6047702576119778 0.36896821604286134
Ni 1.406199602976756 8.556644955683216 6.950941646245333 1.1199367987221938 -0.6432288186984922 0.8857509526002616
Ni 7.194027489479599 9.01772969813324 7.5043099679284895 -0.500032513682255 0.17893772428190474 -0.7803961439118302
Ni 6.085517154500425 7.8011555593335 5.089886806070494 0.5270854040349889 0.14703187671224355 -0.3761248816923006
Ni 4.670552324188159 7.0306789380857 3.1507473041771124 0.9674428704541146 -1.6882274733508988 0.7760903174476247
Ni 4.903478386787068 0.1298961644986517 3.53578947641631 0.8468195656423868 0.4920883191345138 0.8346834445004851
Ni 8.48458052237552 7.970979492806096 13.658712049289855 -1.4781189798931447 -0.2885996449861223 0.7207766324769844
Ni 0.7732694816921775 9.62926853549002 9.836554900440804 0.30559515110285435 -1.2637501684971395 0.6816907222191163
P 1.3515905474464156 6.127532061118287 1.2514792635874261 0.6270817766249845 -1.175390094594492 -0.7521296928669691
P 3.3938885166204575 9.485590130236625 11.747318151911932 0.6407862706952706 -0.1125173878751417 -0.7258252506444854
P 5.009655883654273 4.909137307647146 4.1813494081378595 0.11143238234107906 0.31827300368083894 -0.9796792646193062
P 6.554700816854673 6.991648337991064 0.22392997381537474 -0.4386011458496511 -0.0777740708566854 -0.0016979565277132048
P 8.417987317693736 6.3353730566210285 4.173094703679277 -0.22625836374473937 -0.8537132074384266 -0.4537871095614701
P 8.091674983985975 3.733498845118818 1.972049458231893 -2.3385713058276174 -1.1458458052784717 1.214761911523895
P 4.587789433533051 5.484479697645184 13.04106195278866 0.444701345210118 -0.2967580124271986 0.3085598901581331
P 4.148617759421805 1.48758295571075 1.9265031222282152 0.2007396506483446 0.23989009559556104 -0.25193648523713386
Ni 1.2029007595408108 6.308842759321789 4.7192115358954645 -1.320161971627965 0.2200820597306984 0.06750585616145793
Ni 7.69204067900161 3.5984824364721417 4.258871931615077 -0.938517702779332 0.8361703134586567 0.23760052823043595
Ni 0.757684457028277 7.567938573771635 2.734594205663876 -0.16921355501560537 0.27327509881391 -0.09936233855042242
Ni 0.8156428804772939 2.2646851128245795 10.990542125297013 -0.13757844460882757 -1.1499675407563292 0.7589641992902992
Ni 1.423223288615532 8.105348363244904 0.20687156511327817 1.3447933970234 -0.2943046657906996 1.8672294752118357
Ni 1.896170180264791 6.44361516806405 12.387205085855841 0.07472088585265842 -1.2595921804647081 1.0007360852896057
Ni 6.124810523722893 4.6597412515002485 2.2665076044183228 -0.38934215171352304 1.3561800415937868 0.17184533621149758
Ni 3.4809495594379465 8.617232008871715 1.9255280610717276 -0.10275182384794561 -0.4168951216311272 -1.050961814214377
Ni 5.222799184772179 2.736318158834682 3.3748246163963067 -0.578559660654881 0.04985703273144317 0.14700308035683715
Ni 2.7683666078183755 4.508508233821706 4.206911213508806 0.7987538204834115 -0.6814068724301103 0.04284486307966815
Ni 0.4523364074155875 5.954367205877551 10.598591001918198 1.5844767759247937 1.2077656827117198 1.4487490113714596
Ni 1.4834443419474093 0.38833335556528303 1.987254406121609 1.0200831223576499 0.7378587847702518 1.0043734249318768
Ni 7.995041637226064 3.20297736063941 12.086745480481982 1.304129857865767 -0.7914187202745789 -0.5033728909093976
Ni 4.411199195018802 3.5263429262707793 0.7653347924928472 -0.43913413553498565 -0.9344473893647004 -0.8812993445868114
Ni 7.10142952575424 1.2163395235070331 2.878595441560036 -0.46783613145536845 -0.5176895646423858 0.7917192822341333
Ni 1.1975233770319802 4.174875902981504 12.219950659068964 -0.4265850952253814 -1.0801464061981334 0.2638849158482617
Ni 0.7854966922868638 4.108479775145595 5.851908830630326 -0.18659755482000767 -1.0056538343061971 0.032474061368305364
Ni 7.793882485259602 1.52874386266316 9.087883424497134 0.09157960928121002 -1.017558556163583 1.1116521901158984
Ni 3.707165624665452 2.190856372515731 5.311767180688785 -0.874034949714914 -1.3672797510513743 -0.8733055277480573
Ni 8.552834803329663 7.669536380125213 8.888638733319155 1.496776704203648 -0.17471185912601522 0.5472474808051607
Ni 3.433594808758088 2.489343332508515 11.71216902721983 -1.1808819709469984 -0.07781906516200791 0.18634918625462746
Ni 2.99766082568619 0.6276221849023892 13.751673197488325 1.0401474972076925 0.3245482951665894 -0.13739563917406014
Ni 0.5149467828883868 4.17355267273064 3.08908852833153 0.6653922421694088 0.42295675444417485 1.791497888706476
Ni 8.529429581729273 0.42843473985583086 11.889011711789031 -0.7479177116681507 0.04513083090036743 -2.3310125196437532
P 7.071473845181488 0.2828794122607835 5.361997376396054 -0.7771586108111389 1.6561298214854059 -0.22186203444925662
P -0.13495728559291406 0.4363497213705737 7.949513131984633 0.25045373004402033 -1.5385586732364405 -0.2317438123393428
P 6.707294603230913 3.040191885948005 9.943690566163422 -1.94318526191286 0.697565998688476 1.702153853624004
P 0.5489059388158812 8.036775005492677 12.027998749649472 -1.3999636144376406 0.6827528449350435 -2.233991684742314
P 3.409307433657122 0.8021149626998432 7.543771321700535 -0.2282406842820908 0.8237194892898136 -0.5864629746623577
P 1.3206119441974633 5.836759251949689 7.103115002017043 0.7149456276175041 1.5298364628720942 -0.5122470534705759
P 5.119108610007661 6.688262610686571 6.811459100886699 0.6602397514341919 -0.34578663572007545 -1.5398961611009416
P 1.7542279281774222 2.3771596841480247 4.10764548316473 0.7870789552486446 0.7971579367512013 0.2889824822468378
Ni 3.7904165151293894 7.520893515278149 8.190128945417285 0.7822331971205689 0.6412290146596441 -0.32819951876593156
Ni 8.467988528875324 5.742209288989012 1.917066895155564 -0.11549549666685915 2.801279114917485 0.44299516115228865
Ni 0.426453648324218 2.9176851647084336 8.520010246957698 -0.20202237401551015 -3.2773522895706657 -1.1174495135239657
Ni 1.0309371345987317 1.4701651163802274 6.483610506242294 1.252916053996113 0.6266822271937207 -0.5954065570088907
Ni 1.9703743050419695 4.504660543021322 8.943840896309458 -0.19488884829452244 -0.9377394298524108 0.6993806832997117
Ni 6.583108036495564 2.9507753055917436 0.6637679553579071 1.3211459328077892 -1.62515008527444 -1.029863341672865
Ni 4.351747679847001 9.099967050532685 5.989166284552934 -0.7010187331237668 -0.06083384345792105 -0.09186962971780308
Ni 5.031334336700344 5.263002861330347 10.131741292495793 -0.11739914144747522 0.0929464077217496 0.7810427763568936
Ni 7.779674183133302 5.2000884244382 13.294931653336882 -1.1822109741710671 1.262919445065728 -0.39276094758708485
Ni 2.379383837122882 3.284942559299316 1.9839716689460614 0.54445886231643 -0.3583595872890796 0.8599237071245125
Ni 8.57680310163255 8.414777780489514 4.5257214886169885 -0.12682172031295577 1.4578502023417794 -1.8258120886073137
Ni 3.8919298599775924 5.148416752372544 8.0184646895887 0.9124418316278866 -0.06102076265774652 -0.40380640676796903
Ni 8.958400182913646 4.926620839259626 8.240976648574957 -0.14785385839290663 2.736592730482694 -1.2711958261419074
Ni -0.18078797533135205 1.963786307622774 2.1174790320300496 0.6563414448210503 1.5180502688704436 -1.0737983524929184
Ni 4.725893379431743 4.085299784226203 6.1092677298116795 0.6268172101096883 0.2754096286584095 0.31125826292590264
Ni 3.7731863680330315 7.469231227824201 13.486883562756374 -0.32437834524762843 0.20052522064469336 2.14682280293429
Ni 6.406564721039857 6.8566413139560956 8.49127550436819 0.29878044217386607 -0.6489160988912566 0.1078202395097885
Ni 0.31796659851561027 0.755068965745186 13.688325191535256 -0.1598845643051956 0.7325589698238932 0.6510058915407498
Ni 5.384589890622508 8.69705751606214 12.544405778119662 1.1926265130774365 0.22052454658475568 -1.7265862756347552
Ni 5.729446217065785 3.1091875512271017 12.013068770882805 -0.8472468829877925 -0.0600267741755934 -0.42688205764051
Ni 5.601383805694926 1.6542724288727895 7.843819881081573 0.023176952337095567 -0.36773665762860536 -0.7266719149154969
Ni 1.8776731105878188 6.748671356252613 9.124653271631251 -0.08210766523503278 1.8449392963550677 -0.9873771474841962
Ni 3.7281965395036534 7.083927224918343 11.280852273108394 1.3590648193407497 0.49930900525266914 -2.5577267399789885
Ni 5.823114026525886 0.5640817944093016 10.35833274219163 0.18245962139223415 1.7436956816215325 0.5786725320836615
P 9.19264947576342 3.9165550811000553 10.25206233766851 -0.07104215144949055 0.14391389990855213 1.3241656934707196
P 6.7203392135053885 1.1381750925889706 12.815294472000806 -0.5161700426740659 0.7303231385148391 -0.1261540048219698
P 8.013942245206492 3.9552102967263614 6.547919496434289 -0.8567283401156665 1.2229534461957519 -0.7990006463868948
P 8.769459795391333 9.305142816310282 2.1048426523648835 -1.0040016434147547 -1.5840800547070073 -0.265401095382472
P 1.7210439411770295 2.3271584729664383 0.25382371595085274 -0.8642760705559372 1.473473253591017 -1.5536507916828726
P 2.9991435943360942 8.137180966159306 3.9643039854716613 -0.05617346186777423 -0.4674424955613756 1.178975755063221
P 2.7835884480091666 4.766059517543077 10.93711177699723 1.6298644600309735 0.4146376930555182 -0.17197337714892963
P 5.392557425962819 7.991954099974048 9.910272902331494 -0.751065513268513 -1.1096112484264697 0.7772930795064743
