# total energy = -340871.1852855208 ev
CRYSTAL
PRIMVEC
9.15173662221773 0.00000000000000 0.00000000000000

0.00000000000000 9.15173662221773 0.00000000000000

0.00000000000000 0.00000000000000 13.39449161833323

PRIMCOORD
 96 1
Ni 2.090503757840461 7.15037085173646 1.3246031504679259 -0.8911860075729038 -1.1501644872584837 1.0111349120254265
Ni 3.421642163481698 3.5266034316271986 7.049306393075339 -0.1304919700756914 0.9207089567326854 -0.955788831154954
Ni 7.784073707387958 5.634678523920477 2.746540511720426 -0.5457955788499826 -0.5825980923903128 -0.5551891042497407
Ni 6.915299343009864 1.0752466959353912 9.522706916942408 0.9723467355136352 -0.7901213416193942 1.150838887617689
Ni 0.6630451538403648 8.967759331412637 5.47262780710304 -0.5489955738445191 -1.0724366962587013 1.1325130927253075
Ni 2.7977865765131322 5.570964133055625 12.475656613236941 -0.002679603714692159 -0.5712518141395582 0.6381650310223397
Ni 9.13617874179555 1.8467380992543985 4.505773365399795 -0.5277955427281362 0.9550946333014069 0.4629973153058284
Ni 7.704764757196232 0.349888282118054 11.972304688841593 -0.7346310218615736 -0.004057200788509142 -1.4429902545108118
Ni 4.556338540982454 0.7833950672371216 9.71039073306656 -1.3616220385449647 -0.29907251949298813 -0.3791865513367599
Ni 5.2164441569966495 5.179315561228379 2.7994357194654222 0.6848004714926915 0.2249764117085222 0.8644624755351304
Ni 0.9332300459151734 8.276171741170478 11.700490787635221 -0.35543341478122015 0.4895616960579181 0.3227953170312247
Ni 3.051436110728904 8.081001804430487 12.829645788567653 -0.7251891597223833 0.599569944357961 -0.403130463746867
Ni 1.3527548077128795 3.9296276121653055 9.424190301776946 -1.4448291074917634 1.7303907369825104 -1.6914737482023388
Ni 3.123634161509256 7.826061875340836 7.200235919462014 -0.06966815392009937 -0.40600238597802335 -1.9327920916039938
Ni 3.076484414060863 1.0966617597997623 7.714142541786754 1.6554510502508262 -0.2753877742815386 -1.258445725565091
Ni 4.985728874936481 0.9659108976500748 3.4498450704521386 1.1276087134451547 -1.2015927211317887 -1.2321757361249683
Ni 9.021278687600176 7.2755391545027 3.668255842526988 -1.2414756733696555 2.382927206235174 -0.9758539773359451
Ni 8.96695397858355 8.857142289990135 9.585205042000602 0.052858024341296064 -0.44547550437198113 0.0896332841881166
Ni 4.195961453439206 1.813416625950905 5.410665058641453 -0.7153156093624132 1.6023510851020535 1.5580761744440779
Ni 0.9029158332893862 2.2386337679723884 0.08069086243254671 1.6615556204866675 1.4011974868447414 -0.0017789462772937106
Ni 0.9608957459416666 1.1491835766876362 2.4732394533012503 -0.07143038802684472 0.06886134174808785 0.7002921393703875
Ni 6.807620009066193 1.626986597753853 4.960248609632557 -1.371979727630205 0.9666054621544836 1.299089467228382
Ni 0.7809689418394956 4.743290218171075 5.114860794864969 0.10387205349531789 -0.8418547654379436 0.31236692260904914
Ni 5.078335298544844 8.812555028816112 11.951007682380578 -0.20558849410021368 -1.9214488986770328 -0.5937469099182806
P 6.044474989612274 1.1697841359862258 0.3025911917088848 -0.4856996419993506 -0.7577701789821981 -0.1152000769136274
P 1.2178124501572596 -0.041045539073377796 7.684727944878005 0.15503572085332656 0.8671536492140485 -0.8509664979312248
P 4.316315942704309 8.907614117858515 5.477034368321285 -0.07537703137941856 -1.440237631466339 0.41977912804714157
P 2.0601016885424097 2.046923187702797 4.776770016519378 0.3465656799779451 0.7070942498938855 0.009087564123564994
P 1.1980446988978402 5.6873742238055405 3.105968564168489 0.03544419974022283 -0.623561679286868 -0.6098008780573498
P 2.8762078082455234 3.3972527851917196 13.503254792074106 -0.21055406563560514 -0.17717446173389484 -0.24725450638043225
P 7.375750671303924 2.8643288540164833 10.904576144600467 0.6006392661627398 -0.2467585405806202 -0.8223208091700741
P 6.006742379222188 4.94644962104508 0.7569438026699457 -0.26001540559052644 0.12788075770508942 -0.25368766360028566
Ni 3.224916431503698 4.055537205603774 4.432586011882803 -1.0065609195014988 0.566341007101502 -0.03879588982127512
Ni 5.372948006203747 6.73145010456057 7.056700081150563 -0.20798579068779666 0.2943604587292995 -1.4668938006012866
Ni 3.7741304539945673 1.222104614666828 12.983320835962582 -2.3490755477930514 2.353304241162418 0.510263961602276
Ni 0.14716907777903865 1.633090806128868 11.219628340992141 1.4561249921205568 1.2231987294373385 -0.9896844554611344
Ni 1.0371297126041497 2.7753465181390133 6.804388530839479 0.7415161790171809 -0.0606176136820569 -0.5158517401026986
Ni 7.0843959819081475 4.994898915104046 9.638796696908024 0.09284330648498203 1.0605484294615477 0.3609304333400494
Ni 7.5236793432285785 0.7636410435827433 2.4919245541097492 -0.5642936376541702 0.6779978467485615 -1.2330262570507216
Ni 7.43428517919987 7.318113033604004 8.337106749601308 -0.796769443063531 0.32568395143292944 1.6511765912451886
Ni 4.855234261414231 3.749219426713021 12.443911068992184 -2.907453077073102 -0.027554512579500933 1.0788168887534322
Ni 5.604267302885732 3.189947645595253 9.57148933421704 0.6300981948538051 -0.1976648683777628 0.40312789264370574
Ni 6.743530396996881 8.264997470666888 0.09972738993010147 -0.8627848307223915 -1.5985278547012212 1.5668048125663274
Ni 1.7721148382500904 6.8768437454209375 4.72686285080503 0.957806375805615 -0.028550300833866955 1.912668067160609
Ni 5.08176719980516 4.735419724614083 5.7018339677823375 0.6467219194534152 -1.1477545922654104 1.2853155533727412
Ni 9.167843750757399 4.183130718593971 11.436364345251956 -0.22476223881518712 -1.0638908635712194 -0.5026324131989472
Ni 0.5243460083717856 7.156868584789325 7.8059619160394185 1.215825576901719 -0.6327736848034392 -0.22023246926563364
Ni 5.234738478648307 2.8737551428114845 1.3841333673161997 -0.0022137198218671553 0.3357277088221766 0.45011583135746996
Ni 6.756974298200625 4.61710607263178 11.999442333660832 0.6838149676509707 -1.5682271468351507 -0.8814590100931272
Ni 8.08330804207742 2.98931412204884 8.731105487411618 1.597653422516068 0.7829343369526517 -0.07762391843206631
Ni 3.455622561827172 2.952203829753958 9.169212850566849 -0.7897616442871301 -0.253120478242906 1.3634711759385616
Ni 8.37083730553503 0.8806130509656801 7.3430341277959155 0.02494844241522155 0.051727510281278664 0.1694074161939663
Ni 5.043220084849293 7.321151410186471 9.203221619296073 -0.42783465136176646 0.8056063246288707 1.595090803995214
Ni 4.039768763279709 6.606647871262096 4.8681876295311675 0.4244881034870367 1.4212973429184104 -0.34783066273329777
Ni 6.244742443690919 7.991479516088061 2.6857565069450504 0.0068183084734140635 -1.5433671503686774 0.5981897761809827
Ni 8.48846457726527 6.4784686471234725 5.893924345124738 -0.31558388688445005 0.48852734125613284 -0.6878282025754219
P 8.532557644657809 2.54385333845984 1.6244433301265415 1.333162497652691 -0.2792752822614029 -0.6238378157663901
P 3.781616574610403 7.259853077808883 2.72841732754495 0.6668186902032903 -0.28214643316161087 0.44588276711272884
P 5.090882329552559 4.789927468364594 8.1351443938869 -0.455318458604332 0.21542759167782255 0.25939576972865647
P 9.021846095275215 5.168241959828427 8.353769316600394 -0.007478567765232282 -0.17790645480391296 1.0473028773055513
P 8.314032475874281 7.56357176347849 1.2876109155763984 -0.10959764312518544 -1.764397432945258 1.67684828497968
P 2.2881263600144903 0.9072546716560949 11.00010563290895 0.008285379937243795 0.25706917847800886 -0.045010503272419254
P 0.6632776079523968 5.923269388834612 12.371581233203436 0.4978434764507362 1.6862176420097217 0.878137916139694
P 6.596269801850901 8.177305529663299 10.605222837333981 1.3921927122429698 -0.6140120879252199 -1.0324917804346476
Ni 2.7883785911915195 6.067967497706222 8.82280405873992 0.4521344044493955 -1.664261706563921 -1.0614254327498625
Ni 4.319345167550082 5.086974537984147 10.43799223754764 -0.3972405806249933 -0.5349020718659304 -0.5209389248176189
Ni 5.656752512826828 6.452743115276144 11.768628212844368 -2.247457323328917 1.6469414701179184 0.5713965672475385
Ni 7.64527846868409 2.6706140434108674 13.118310782549012 -0.5679512890114154 -0.3473475524492921 -0.022002472413020172
Ni 7.041419426392299 8.369766552341812 6.283744399960488 -0.8324640682516632 0.44261000989872806 -1.0286839766527833
Ni 0.8213235247924631 3.5145414426642745 2.8904909237041227 0.6524302826921021 -0.022512322169903166 1.2527869846174164
Ni 3.2259871846969164 4.723257066547524 1.7253311602694643 0.5348478215892273 -0.43713715970961486 0.5878557412448263
Ni 2.4411525492778012 8.271312168985869 9.418538189194622 0.0009387097641854801 1.3579929264328097 1.392999781525298
Ni 5.54811224653027 1.7695706554491095 11.600192329335401 1.6668744615964197 1.4606869004596266 -0.4799653106187347
Ni 2.306722688977055 3.2978374694828894 11.28532774354596 1.0936938058652648 -1.4404669738683258 1.7988029070083214
Ni 4.41283930961778 8.79676828301866 1.2197169265633176 0.6356697754043117 2.0447716046977944 1.6409610841647673
Ni 4.5022792323299585 6.656607201875601 0.658178260266402 1.2990763546022595 -2.2746580521134243 0.04030589870789833
Ni 7.34981464951263 4.353041862058037 5.050286140750866 0.9225809769444177 0.6341363694789207 0.5708124126092944
Ni 6.180204396523593 2.2569830000442104 7.445516190470964 -0.8763119186745488 -0.16832163932895527 -1.288943894153948
Ni 0.9332208941784793 6.373443316821112 10.270266528806145 -0.18234263619839566 -0.733448314407382 -0.6865421367741467
Ni 7.181138990502278 5.192878435009147 7.293488455680987 -0.7797654523063667 -1.8494703514562019 -0.28932366763634043
Ni 1.0691241840869878 4.944884674070376 1.1416928802034536 -0.9687564470592155 -0.13632014672169426 -2.4864570458997246
Ni 3.212497524809702 2.323415456707232 2.870239045573582 -0.7946089450771026 -0.2186604967928234 -0.9404496296947222
Ni 7.853654361473776 6.449210544912193 11.356814704385172 2.0039422293862583 2.72979164840046 -0.5849444811353023
Ni 1.2381476090917178 1.7100935186736619 8.90116214348912 -0.48348000864021246 -0.6265886390386499 2.038278283663967
Ni 2.507255543419832 -0.05451506513986551 4.043087183005017 1.5152598506094999 -0.19380898496678234 -0.544696689358849
Ni 7.420374539424723 3.208141298143274 3.196233973530482 -0.9990211594810279 -0.31316447880968 -1.1827488489524083
Ni 8.118295131459252 5.359403435896367 0.1819603199956168 -0.10653211682598428 1.179331081520111 1.5398995035350511
Ni 9.156038010421913 0.19231276454406826 0.49587587068987454 -0.1244622189418437 -1.0295640652648916 -0.47514809173574946
P 5.831385952425088 0.10468763121834468 7.991595743144077 -0.3440061467808849 -0.9128406097282021 -0.9313864910511895
P 7.843907761894479 9.11947682232868 4.374681143471415 1.0884868077430288 -2.269048162125815 0.575074530319758
P 2.155838006100181 0.0994885296023835 1.1736479992185067 0.7913161332584436 1.2257328087131019 -1.081759259211208
P 5.388753055474589 3.241618350970569 4.11019320748873 -0.717138521503765 -0.7306946629216448 -0.6864192380430372
P 2.40397819482606 5.490007870258948 6.581369859339113 0.14325184084452106 0.3906307886179595 -0.6417440066228496
P 6.299332553071677 6.1902530034137975 4.630074083527427 0.8450997547378026 1.6648468896434296 0.12025615128029613
P 8.137962213615037 2.8566139399832933 6.346015561948668 -0.651002291996324 0.25321972282493166 0.6693147171522666
P 3.4120053847427307 7.08392009160005 11.039418748226122 0.657024586931004 -0.6710664097360507 -2.104362062666918
