# total energy = -381165.2832247969 ev
CRYSTAL
PRIMVEC
9.23110596467453 0.00000000000000 0.00000000000000

0.00000000000000 9.23110596467453 0.00000000000000

0.00000000000000 0.00000000000000 13.51065667379701

PRIMCOORD
 96 1
Ni 3.1774758748855576 1.2516087200759796 1.136822687952244 -2.1689342901213484 0.08139572676967272 -0.43900532326660524
Ni 7.693046700714527 8.03990550366509 9.960677088036112 -1.2864704929127908 -0.07416809867298195 -0.11005889903232013
Ni 9.253168209969767 6.0943576311471785 9.306923708764765 -0.0059814143944155055 1.1751928909820213 -1.9592178898956905
Ni 4.327330114990171 7.181486506885884 13.166905088365452 0.8397685723328763 0.9994721309755176 -0.09411934498392824
Ni 8.139952229051069 4.536691596052546 4.383653707437353 0.5599937247272356 1.7264541209322652 -1.1203564027581157
Ni 6.770323820466163 3.642455908509583 8.228976090921327 0.9972743519932502 -3.2650631877906675 0.0058963108797769415
Ni 6.457943197928651 5.77628141628976 8.373905376142993 -1.8848718708839474 2.551951013837476 2.1045245563867114
Ni 1.555109018769488 6.205693999008437 2.929799765811828 -0.5761245688508272 0.030661433639598806 -0.752433340150317
Ni 1.6200129241199976 1.060644833006431 8.743637936321266 -0.35211334926905163 -0.08365906888255269 -1.180142778788129
Ni 0.6817790166834008 4.796344141878053 11.05767493905717 1.0825218484088452 -0.573154944699542 1.3589298364247822
Ni 0.4647852572902332 2.077958855073409 6.905229047826911 -1.3280187486682227 0.03902574644389408 1.8839264762515426
Ni 2.5436127594257223 8.03542841731962 8.294137544125524 -0.49559119008144964 0.7596627680192206 -0.1429096270137539
Ni 7.774594289943144 7.753196586543559 1.6809151450771853 -1.7579005123670048 -2.0890994800808924 1.0204636456255198
Ni 8.068918869404907 1.4590593622238965 9.870129170587223 0.07546522021785068 -1.4619747660331144 -1.1319505353536183
Ni 7.613936123434785 5.785789455332716 10.881280506377426 -0.5604583230684799 -0.21558262919844806 0.43643267744342257
Ni 1.351147734639277 8.82206633487744 4.023216870867097 0.45823666069239144 -0.6079018612624241 0.17133240113082107
Ni 0.39647507387481973 6.310623979398031 5.086397488655178 1.5457145675549315 -1.0684118913700245 -0.5369710385798172
Ni 0.9470468442077719 7.201434926664358 12.233399353353905 0.4173262956312749 0.5454050282797832 -0.3118632434997532
Ni 4.8969539647219165 6.069498263047489 11.1144739334565 0.9090652018461699 1.9230846345082429 1.8645221035830017
Ni 3.7856949782470117 2.359212188627574 3.144024193444912 -1.0197838459496762 0.754750675429584 0.4627854564053384
Ni 4.2417762258153 0.7923464334259411 7.810537446857278 0.8847243111079601 -1.0826455184709032 0.24395141014912824
Ni 4.889762933251564 7.997156252395254 4.518138919481156 -0.34119130303990913 -0.8149952220429384 -0.8854732734588427
Ni 6.922286285247857 9.082512755807505 11.982668671348803 -1.5547753922056191 1.045664827481496 -0.17770693719859718
Ni 8.223170648441604 5.342991769106965 2.336276582990555 0.9088386876576607 0.8623027488796503 -0.42020438851001823
P 5.47623355119049 2.241460202188788 6.603090337248777 1.124066247509535 -0.5277076110000203 0.03860742795955286
Ni 2.991967571383375 8.861409308082372 12.346429629141747 -3.0188332660200072 -0.5212857666340764 0.3445895300881807
P 2.810410181192246 7.813918800936341 5.435674841342881 -0.5654822586456326 -0.46251317658055824 -0.5427477931625944
Ni 0.06223796197613521 8.649241570836445 8.383835276724069 -0.20381006204355223 -0.21287937133467208 -1.2975851147687136
P 8.70756369770382 0.9394404129734069 5.197265839448981 0.2586110690438321 -0.5140630236333921 -0.3098187022658987
P 5.030915773063064 4.186195737390407 3.2440838423791054 0.045664591916650385 -0.2940061607136743 0.10135185817662545
P 0.673691644833368 7.809294016897 10.239523872290764 0.918307032159412 -0.7266762857908712 -0.4574018234959219
Ni 4.706276241934243 4.02341441653265 7.414378076803108 -1.5089040835948015 1.2974467894186366 0.45392903445597305
Ni 3.9395959752607643 9.225050261499046 2.853653296625963 -1.7705917346814282 -0.6255149463584968 1.1006293566428336
Ni 6.372296997695109 9.123886572303164 5.806447747152358 -1.41700977128665 1.8969995073854171 1.5133834595223936
Ni 4.355900387648375 7.497282638594166 6.844890847438194 0.47862165210664676 -0.1785939677892408 -0.529764493529049
Ni 6.23426427166664 2.3005669730548544 4.458071190494339 -0.8366433964403334 0.2887333423505092 -0.01741922391771194
Ni 0.8373693060708054 0.4377067313401286 11.001781516143389 0.9649545568146222 1.1789824399314404 0.7987720753158566
Ni 4.837644109526778 7.574731616817858 9.088442818216432 0.5422754815118661 0.28315559115241556 0.04592041668119833
Ni 8.48524174400425 1.5501057593896022 12.319772964729761 0.46447621384420007 0.7817793974126019 0.5300033490127324
Ni 3.379692480006915 4.249862674554746 11.501418813634283 -0.25358867612857616 -0.13610777360057205 0.3977524872644053
Ni 3.0892634272210047 4.252068908856946 1.5356756946983896 -0.2785869979451267 0.04245045585472689 1.742015722815948
Ni 1.535797545295833 0.12647076593011783 6.428032568698566 0.42292924364034906 -1.3990475303812742 0.06361834818159366
Ni 3.0520989950006725 5.253616202103178 6.183084251408521 -1.5969250289904755 1.7693023264460432 1.875277542327293
Ni 1.401863430272288 3.450448906477069 13.212192893748696 -0.48021779294917294 -0.5085009561645824 -0.10166476143135394
Ni 9.114600079801015 0.28420728743158774 2.372944381715245 0.24327341024549717 0.8243064721415352 0.1393152247942762
Ni 2.0222214378487786 4.469230674376893 8.087910946615565 0.10895461022454783 -1.1142099235407457 1.209427643795175
Ni 5.49416958988997 0.8907195593182432 9.92790020043434 2.2807860193880334 -1.4324883265382233 0.02306562357021189
Ni 7.935030909910696 7.245291910638226 3.9126457616822106 0.5007526796777311 -1.3227539007248574 -0.2757127617211252
Ni 6.99943063697794 4.013370973349411 12.527972249563488 -0.36680231873979413 -0.6532988013399845 1.2178312944778382
Ni 6.535004469705931 5.558408855618059 0.866888536412131 -0.8516630097776172 1.67857632341438 -1.7846325290452103
Ni 5.953250946865016 4.184515676122622 10.334666111129634 1.2454889082941067 0.8885292866763471 -1.2752782237413973
Ni 5.842200743285633 4.732778746878251 5.368581317680732 -0.2608993508573765 -0.7456574548790642 -0.37145704390298606
Ni 8.276424898188026 7.89170933007711 6.060934566134722 4.054828174511907 2.570548060113373 1.4398409102485525
Ni 8.362874204631991 2.33687291242956 3.432436249598894 0.5013478900595688 -0.5133893946051352 0.26235742346014174
Ni 5.580277345416858 1.5183784485249028 2.238945648950631 1.3036140945716128 -1.3732400823998674 -1.5420618012936926
Ni 7.915045565708754 5.339659339888998 6.882625762001102 3.379678081624786 0.3427023403677969 0.16492109828783855
P 6.749563063371398 1.5938796634106687 0.13244421453661973 -1.4590213398317453 0.8842998219760319 0.7144920850198534
Ni 2.5238951172939217 6.308906993706779 9.853754111889844 -0.6288620084538589 -0.4515867594760416 0.916757685394421
P 4.536571591676276 5.1679423085520355 0.11902864838018452 -0.6600649164192246 -1.0430505297871004 -0.3913404130904744
Ni 2.822816787477424 2.367455566166758 7.132491489386471 -0.08404010637105527 0.7310751861895151 0.0767685124103065
P 7.41791359035015 7.18497586490359 12.520041806513193 1.0514503238150215 -1.540738711606895 1.2803119295105627
P 6.680597471439431 8.086485663869707 7.710883043470644 0.08158470285202724 0.15045684323339248 1.720370890852663
P 4.515543132511369 8.328377562007207 11.016615903271573 1.3813645112792146 0.09885248879353944 1.233956739284791
Ni 7.684240225717459 3.351842233606334 6.040546745716981 -1.567901388064616 -4.753437526863233 1.4930036103144608
Ni 1.9288672642163358 8.258424241747477 1.511950829509747 -0.9267261094610426 1.1806767969147278 -0.41332154534725596
Ni 1.8688004583401068 2.7886155402403827 10.100202483883269 -0.7369984936524856 0.9955517128751886 0.4017518382317855
Ni 5.418345286298861 2.574389266386126 11.542775091028796 -0.7369388440591438 -2.936841557537549 2.094205176738574
Ni 3.605522253935925 6.89260827988562 1.876076415984435 1.4392575269412566 -1.156799218966182 0.8585062579516958
Ni 3.767620472959528 3.4645540362417657 5.129496598837372 2.015160723809897 -1.1107381629420612 0.5487490050513517
Ni 7.065174572962341 -0.017362787025142046 3.7291572241437163 0.0375735873783998 1.8714615110153126 -1.97416474101351
Ni 4.419567324812713 2.905924433597555 0.1549293422073311 1.4451175852664595 0.8850685818212564 -0.2667936048546244
Ni 6.688554684696739 3.4382730778385655 1.9079209618936448 -0.587723072321704 0.8214816010982304 0.5057886994397418
Ni 6.074224589251366 6.131171281344567 3.1195700708927805 -0.8841848936647224 0.24417278213131496 0.48047978836130795
Ni 8.65194628485546 2.8465222673437465 0.9237899960865836 0.03314563351403323 -0.984765420892962 -0.13713210110002835
Ni 4.213335188639234 1.0936552675866362 5.288786715456248 -1.0963189021929376 -1.0328442786780598 -0.48407804723552755
Ni 1.9708041781698795 4.148883607476204 4.0674781772779385 -1.7353293119347084 0.8455468695775502 -0.46110781159259945
Ni 4.1820417397502805 2.76751323222854 9.534848943725573 -0.7355972424295848 0.8579025629294256 -1.1522697065269447
Ni 3.8618516016493305 5.796728315785049 4.2828103376150555 0.07092696602786494 1.077780219958802 -2.12676948382784
Ni 8.792434485044538 5.463485393988235 13.074762035822753 0.26016658645641 0.0715597145158574 1.3386929405526171
Ni 8.994041837178678 3.926792431423308 9.099278290283056 -0.16813549146007817 -2.0860354964435883 -1.0074196679573681
Ni 7.659380857617769 1.0559185068025538 7.490915944877733 -1.0031601213500658 -0.010152257942653483 0.06644964698280169
Ni 2.8030437587104218 1.9667978782236242 12.097671634460411 0.4418438211566649 -0.33319697198052295 0.26805755916871254
Ni 6.546478734298547 6.7389380605185405 6.0257123585887955 -3.54212166490641 -0.18418791693725053 -1.6372995761527802
Ni 2.2298843954316356 5.574895610696428 13.300525345789522 0.24716606043168401 1.0775951005311892 -0.035159321509952345
Ni 3.2833381969677142 0.6775853252880465 10.176699735092077 -0.7796322691626121 -0.7170359344876296 -0.15545558199956455
Ni 1.5424347104141685 2.334555904856956 2.4593179930911018 -1.4022824923788044 0.2788212254431198 -0.3372927393164514
Ni 4.770589356509269 0.42108335589492907 13.38392654107622 2.5359458966584714 0.7695396608133005 -0.9516871502817545
Ni 1.0884673860894116 6.35209010695236 7.246359949587032 -0.02406192604521017 1.1702324616529522 -0.09517761104511352
P 1.1633685790938257 1.1625008551423326 13.491295379635863 0.3968389743112004 -0.26413431285490635 0.5287946734166118
Ni 1.7313585230871216 2.074460265949836 5.0558905299860895 0.21495476580646206 -0.47119939150064655 -2.0719239967428704
P 0.3967298523967475 4.057394117228885 6.354345266115656 2.312517289053043 2.5521592731935403 -0.4137257227642101
Ni 5.585022133832469 8.42871968278093 1.6189282691806313 0.830204582793525 -1.4488006905450017 0.2687520141325759
P 0.6858397801542712 4.4621688783886775 1.592825471120663 2.335928468888132 0.14363853475997845 -0.14466569047291214
P 4.308775592197606 5.249923759756399 9.373247358197611 -0.6903234581934498 -1.3835700035709657 -2.563200104388734
P 8.074605230618946 3.1733311083512974 10.92560827675051 0.22969001513410767 2.120607577991503 -0.22860912336510306
Ni 9.00123286864903 8.59463034852758 0.24733178882489149 1.3131989100465706 1.3406894021573554 -2.9947116903814552
