# total energy = -381157.807631379 ev
CRYSTAL
PRIMVEC
9.35132954945593 0.00000000000000 0.00000000000000

0.00000000000000 9.35132954945593 0.00000000000000

0.00000000000000 0.00000000000000 13.68661604251529

PRIMCOORD
 96 1
Ni 8.295592574894968 2.450665552627401 5.925839401950964 -1.801900829207355 -0.12014148007930275 -1.236318297538432
Ni 6.619909114597146 3.8376641157040634 4.649042518113473 0.39421516353510816 -1.0150003085181036 -1.4266627209953817
Ni 6.050216761786732 8.495795191091652 12.605728879972236 0.7513197953711642 -0.17313602999846311 -0.028637975451666808
Ni 8.15876391964765 2.430588247896947 0.6263567347452916 -0.13560049494685034 0.168676965785845 -0.6227247852078696
Ni 4.888042865840747 2.3828310074412293 4.960631627014325 -2.409990123890237 0.5841574664576328 -0.5180934849490239
Ni 1.7683738396589102 9.288769241642653 7.157894849140641 0.2950803676144596 -1.1494921437818075 0.4705131640668994
Ni 4.5596802769701625 4.722692655200841 1.4465384788748916 1.7750515702249947 -1.136906850917629 -0.3742639172241619
Ni 7.694217917274693 5.153686086836552 6.033539600512261 0.11190880775686535 2.504679225334706 -0.042076874565392046
Ni 2.599529369117428 5.5028273301603585 1.3434129507719723 -2.9184743678842704 1.213431879858562 0.020813337200925448
Ni 8.573691766967142 5.044359692051395 13.418467900843819 0.9490954782951784 -0.15188354837759002 0.41058152070827353
Ni 6.335086316516032 5.076200969465085 10.751644493393233 0.42823960010966894 -0.40707505021691187 0.5209972888593802
Ni 5.676490872847481 0.8167825358065819 10.682252951822514 0.06598916240661537 1.2685892417569957 0.4896223740925245
Ni 6.721698337694951 6.309463673310889 0.5116056336377611 -1.7558462009411375 0.5704354888858498 -1.026771590121419
Ni 7.845419566173948 7.363152794139039 7.577978084488965 0.801362204640536 0.4284691996219718 0.7504412494209528
Ni 3.279922762169625 2.8837723847610546 6.836327871517202 1.0444628367535946 1.5666346055370504 0.3892879014368199
Ni 2.923955048210872 8.014641227283537 1.5296025995077405 -1.2990149052367048 2.2333836188446696 -0.37572970313641096
Ni 1.0612824004933248 1.9934509926897839 4.285964053098811 -1.6107796754853807 1.7279165644104049 0.2979810862010223
Ni 4.240154694606462 0.8537118716757174 3.1437066190135234 0.7581548160151266 -1.847836929617837 0.38316507636853364
Ni 7.861793744368184 6.365665164428739 2.4389137366726916 -0.008492096631411181 -2.2967415142760252 2.7720896378377224
Ni 4.53420725503921 1.8036190010604376 0.7937539514427183 0.40575761695706897 0.7173400959916097 -0.21002596104627697
Ni 1.9126087479786655 9.262248870792366 3.6885702565049674 -0.321586127214472 -0.3652079776694807 -1.5017332768779752
Ni 8.071553419453794 7.3492473669689495 4.716749885216583 0.0807848326585512 -0.3235926161215395 1.2737792705983675
Ni 3.2942770531622876 3.4565039197034646 13.177611314183615 1.9499758024721319 -2.312732747497959 1.9468354570709376
Ni 6.022508772072558 7.90370640380083 3.4234329424425196 -3.8428484321733687 -2.0070054416926144 1.0995415228952934
P 4.096265785483272 1.5252486204287934 9.076060157189561 1.3974953554028062 1.4622617011459138 0.3478535455514332
Ni 1.4897883784456172 3.0895109881027905 0.9120594929452398 -1.2853644043328056 2.08758278632605 0.17666821152143766
P 2.4838908268273547 1.0927028680733546 0.9818877416100011 0.6068029717712905 -1.3869936845405337 -0.8762424988891941
Ni 6.905751207608684 3.6504785503619637 7.432284368745851 0.16519363522293484 0.5635235922573649 0.0029146025436336902
P 8.390920029213666 1.5244631087392926 3.751145613903339 -0.7920085313397779 -0.2606700084553898 -0.2774711391731286
P 6.014569493210819 5.757015172350943 3.9842836130812316 1.0363425216393054 1.1693544299233731 -0.0548683699031055
P 8.074031521807575 7.2418473460889965 12.613297846180355 -0.1363206609423265 0.30516731953681636 -0.062385247105440945
Ni 6.7422619115665245 4.121514375502938 2.0573448875669595 -0.6098039633811433 0.6524894180648118 -0.36865377012623607
Ni 1.6759172435387453 9.009155134169298 12.107782733535116 0.2620915713932648 0.9810933713580136 -1.5649261074863758
Ni 5.225934459611346 4.71772709916364 6.372611332083039 -0.4632199728395958 -0.45130368101798407 1.131170205544168
Ni 0.37517628016593746 1.4125650983039844 10.46820849749727 0.06891816312795228 -0.7541009576607272 -0.5370877666633396
Ni 1.9773573543846554 4.166251136485934 3.326846799154694 -2.08713387171409 5.575040484030676 2.1005360040526084
Ni 9.136323865901687 9.209198777762154 8.136323533917947 0.5515018852061405 0.3546222317338344 0.9713681736504497
Ni 0.8986356592514504 2.238680261088206 6.7406170126833915 0.7448660693260204 -0.27085903317324966 0.282358549172417
Ni 0.8271466144431732 7.2433622614901765 13.141300101203482 -0.04870132186044516 -1.005942054970577 0.8700258285555209
Ni 7.034481611390437 0.15623079397798822 9.065986904904678 -0.9964454283340517 -1.3205052138999966 -1.8203225262476521
Ni 2.76759146535204 1.9915059161253057 10.95342654916559 -0.17596270081398083 0.08734525948488828 0.059751923247651925
Ni 0.9936722872184395 7.222508796399859 2.7009033931793542 -0.9742431812053995 -0.9416408217893459 0.13195852731888885
Ni 7.762286245701786 7.177108091012643 10.381681579499874 1.0175395300001895 -0.6563622707566567 -0.17894595181202083
Ni 0.06571272849155559 5.329827731877456 4.474961906124544 1.7792599518793875 1.2164827508697436 1.0791141082788769
Ni 2.338309327039884 5.248966784507065 7.862686796348509 0.09791686435314749 -0.8835457174188267 -0.3597233004058256
Ni 0.0927072117544341 0.08404694537768839 5.292053035809144 -0.874586708453326 -0.4880953959250368 0.5767907416799163
Ni 6.121717028190575 6.981627896282602 6.198024813160753 0.709504659107591 0.36116208973488123 -1.2289330608179547
Ni 8.684748157735129 3.7280571810297993 3.1462249320847437 0.4555971661870153 -2.365474557976365 -0.08879664721943417
Ni 0.6804429550992727 6.1110004044266715 9.326799229010051 0.7027855952162024 1.4416509668740978 0.33503119697578426
Ni 2.0357096513189963 4.899376677360687 12.808044896666864 -3.8729051423494334 3.9379725642727275 -1.4068629126606351
Ni 6.4968643192346365 5.6654469525462865 8.44471074755112 -0.6829425923483464 0.593141672234114 0.23853435289861497
Ni 2.058891597488905 2.031725984893671 8.606116567350178 0.004950916247372119 -1.0182316709712076 0.8005355949741826
Ni 4.065752396878023 4.945525489118856 4.391829520785346 -0.681759884894155 -1.9146866402525347 -0.6802141376735897
Ni 5.681606050158872 3.201025594022985 9.428052620919662 -0.7217446528172087 -0.6068664780193742 -0.07721434169847348
Ni 8.550968035949444 7.938512052709423 1.1903429062112607 0.9330708207321478 1.4600559517438467 -3.3083004012127475
Ni 2.586774155492678 2.4269879859867354 2.73963660053545 2.629352788956407 -4.9759562210598824 -1.3448317064605033
P 4.521517500721918 6.917889233477398 0.9391156949837219 1.7835567794825282 -0.46117414605416057 -0.8492549145567567
Ni 3.1091207263513985 4.3998286481567614 10.626836037261201 2.9173122292553693 1.3476995149266013 1.212982451025969
P 2.8781802896381796 6.845369672143134 12.104142260907466 -0.20514009370888542 0.3466368995355127 0.41837813393455686
Ni 7.5161498983285835 2.6848883060431756 11.31499945010871 0.2973107996068751 0.14885350330201458 -0.9908429945456098
P 5.146569724982861 7.632349520396871 8.066221291294825 0.7816729537417247 -0.7802732451807207 0.2764229004142723
P 2.1478040396766795 5.406686310163249 5.696944101029338 -0.9319927571766209 -0.5284601728953285 -0.3853145186113687
P 4.617621115400479 3.0881830992943486 2.990689877031742 1.3295066460676586 0.37406928471485257 -0.9448045642293085
Ni 5.005617133365662 9.193525949290688 6.3725299755151985 -1.8030326288189527 -1.7149882863845107 -0.26136729163273054
Ni 4.148876366020548 5.822960748950458 9.08172706294953 2.703184587335893 -1.097930983875064 -1.1246190346892115
Ni 2.7880989312457913 7.140291906232115 9.992721439449125 -1.797528925391904 0.12002963709178682 1.822758132272338
Ni 0.5312565177367714 1.1798946656079372 1.8045803177471123 -1.155579487626468 -1.3944133740433726 0.9876100894306088
Ni 3.8252923065944264 9.214239144436451 13.237941417336165 -0.40505056358771535 -0.19075400019054245 1.26581425011502
Ni 3.9234625651227457 6.688445009506086 6.086369937296005 -2.2977139054916234 0.9565377935058366 0.5019330731390774
Ni 5.942106039854375 9.092840183090038 1.267857947837565 -0.619480567238959 -1.5171254430633292 -0.5056395754563873
Ni 0.70675572643162 6.858152939756795 7.0554641248297445 0.20326370262177898 0.3521570580227935 -1.0956876963668423
Ni 0.9612044707190756 2.5849132408949322 12.473940591399215 -0.5310503022200079 -0.4060252687961588 -0.466129690287223
Ni 8.009890751827983 2.2770768205773733 8.599520139424298 1.515178089528971 -1.7480372464196798 1.030154904771355
Ni 6.445890221383821 1.7500452335705596 2.1744338210837184 0.6975906812788244 0.615393798764095 1.5008089652914929
Ni 8.514385634409836 4.597599918647847 9.242517565258478 -2.1162642134211422 -0.9459911283382417 1.2018056084735431
Ni 7.750269787118352 8.835164294944883 3.0010913609868815 3.609856863469854 3.5239267391649376 -0.32586469998516787
Ni 4.72672307827435 2.727698693120966 11.87667023235658 2.8825028348856683 -0.7319933271284104 -1.4736848553811912
Ni 5.527954352894745 7.536526445607418 10.479773286859242 -1.0795198283577279 -0.0743169655460204 -1.2439894409304446
Ni 0.14207755657251947 4.481166513338636 7.138295397354634 1.124649630816831 -0.705161808757863 -0.05719393271248859
Ni 1.305885129806074 3.662691386867773 10.049685063932385 -2.8695017946403096 0.07892926750705116 -1.1912910820954645
Ni 3.391605692023284 6.887740546727989 3.454570064734551 0.11332111472335966 0.5407911836568557 0.29345671596810746
Ni 6.417368665991234 3.833390558059994 13.158326067073409 -0.4966273446554479 0.4927449788819062 0.6915539881664413
Ni 4.897983329244786 5.912696108146281 12.446486022718199 -0.8549455371836308 0.11332394293683709 0.5980231686961313
Ni 6.458308787141642 0.7730977994077399 4.61280050497265 0.6708095565302383 -0.34689221007942844 -0.37852089272830297
Ni 3.704248695774217 9.271095228628885 10.982742967577314 -0.25311430759531894 -1.3103192745059302 0.0009469372943015948
Ni 5.700009466884318 1.8700227928121613 6.877182895567914 -0.9197694756375514 1.7540623695678372 2.459378701625693
Ni 3.4831739118279423 8.866977518369664 8.756847844368696 0.4760713748809673 0.8083939146763368 -2.261179043790383
Ni 2.664614623390347 1.1661108057231264 5.592529024569488 1.7845091160934685 -0.6014496778791771 -1.21250422583797
P 0.3416246445616552 5.146897021520153 1.9285948459929694 0.9660009958012654 0.7950133796043728 -0.4112466650960982
Ni 7.870658804863978 0.09201895389315726 11.026293979962349 0.823662153689317 -0.22855692997092894 2.3465293843324297
P 6.660942749043923 1.3381004604052413 12.814244828216138 -0.08713520035661122 0.08838835603742197 0.8037433032782029
Ni 9.098694115442745 0.4040737590099279 13.182318773522839 -0.7034823641729111 0.0018429667460097294 0.1976468706556338
P 3.414067585811151 8.521090537759504 4.877759208639033 1.2035123067520046 0.25887280734565093 0.5587279706409345
P 1.415220875920868 8.876403658643673 9.656372815068618 -0.7068104001048795 0.23177800801138793 0.007877860086179982
P 9.182519434308041 4.149156905909655 11.52577280932696 -0.47326218756694627 0.3641723373161147 -0.503691707701397
Ni 7.244951987528451 0.3763367801738785 6.824105683681756 1.9566169619377336 -1.1544291760721086 -0.8251680488108821
