# total energy = -381169.26549095946 ev
CRYSTAL
PRIMVEC
9.26398605509247 0.00000000000000 0.00000000000000

0.00000000000000 9.26398605509247 0.00000000000000

0.00000000000000 0.00000000000000 13.55878000968439

PRIMCOORD
 96 1
Ni 0.21783891963702137 7.424630654232282 1.6339280778683856 -0.021048078919550847 -0.02252749167855475 1.210341413858696
Ni 7.690664533405917 3.7894519045768535 8.122590458445696 0.8147712789575903 1.3332599424625038 0.2333875185903529
Ni 6.649790884963807 5.593974427484993 12.389945449407135 -0.0691557330600551 2.198599421285949 -0.5572855817674531
Ni 0.2570561505701184 7.0489760315178325 4.445828455893144 0.8836138516526008 -0.592091890813361 -0.09666293734138837
Ni 2.101062707201348 5.632151312816837 0.23177380702264597 0.6423309894745712 1.1686669169380453 0.4804988145247015
Ni 8.286876129180433 6.305596757902582 8.690920236267472 0.7612985038504307 -1.0456681699156056 -0.46932222908259175
Ni 8.664003725631297 5.336833974644427 3.1385318408753293 -0.890196389966125 0.9733528081806463 1.4793302265924264
Ni 2.27746752411204 8.234256690043118 0.5348738196350667 0.18104602887415916 -1.2992383341014204 -0.64260069819619
Ni 8.83656398845009 3.451900055308137 5.454073420077237 0.6725643344378158 -0.6471821469192854 -0.9001092782044627
Ni 0.8398618325461115 6.8371272050755625 6.820662323177895 0.8459829286737044 2.185323273002333 -0.5858183990998233
Ni 4.1192220058041356 7.355864087908993 8.015747057836812 0.8571451159381109 -0.2833196275341056 1.0656638963112421
Ni 5.755732882903416 1.999446047360292 2.0985197431092364 -0.841481441258925 1.9527001433818307 0.4061728501176166
Ni 9.113686858582767 0.5833457723460117 4.552455079235162 0.292142110921742 0.5632178880914881 0.006185817095737733
Ni 3.346855720734545 6.608260436785537 10.186602780984057 0.062444382478150526 0.7950956549055338 -0.14716943073137234
Ni 3.3513580178156603 5.604581691184329 4.274527168739626 1.8266559246648475 0.14688121006699217 -0.5186434439152229
Ni 3.1585188901603214 1.8814506606891712 10.971954394898502 -3.2513095856500005 1.0139219878522603 -1.1690579817288769
Ni 1.1650759055748494 4.997920319468459 11.771326124867596 0.11062351328653852 -0.14722882321439804 0.04661384320379714
Ni 0.7876676103553474 1.0561036410374862 9.227359669496588 0.3618272341227059 0.5253792199771596 0.010128089572937395
Ni 1.7321522661228066 0.6381422481377744 2.712366262183363 0.48354402910892846 -0.7641817389354968 -0.5581538433050194
Ni 0.7079204417064496 1.913318771715995 11.571659439704474 0.4995720291060687 -0.9202353595303764 0.6622968910735368
Ni 6.1829693783496555 7.8634563958688 9.91050543407541 -0.5343207454411636 -0.3070329119906454 0.6732197086336276
Ni 1.4577900637476853 7.41367135907393 11.703965831583222 0.690763631054662 0.6087544390707065 1.1269885633626526
Ni 6.940402118368303 8.730834118929991 1.2844025270002015 -0.6132939788122728 0.3910501355435652 1.807504034326745
Ni 7.913287375291268 3.70900345220565 1.836482347394024 -0.09707251407498121 -1.0205929721145326 -0.9753677817281461
P 6.298157777334402 7.90616337023905 4.951680060927968 -0.3126492297361583 0.09837812026028218 0.4414887518100913
Ni 1.14555668757092 8.125404857320682 9.553380635685336 -1.0144061265775304 -1.2953706236158982 -0.7751793755975812
P 6.886985976455319 4.507697984815424 4.363798641152092 1.8413963161988158 0.10471074734652934 -0.4482677224051377
Ni 5.406573259472895 4.36396724569299 7.740150892557977 -1.201511217161576 1.1869924547201105 -0.19974643349713986
P 5.757391136355102 7.146989000896842 0.3250158237333967 -0.5119642321228345 -0.4236748635571219 0.17816613622320285
P 0.5065862391058787 -0.07119650978908425 6.755391058683217 -0.06499208860066871 1.733007605780067 0.3344516703232305
P 4.4627769178476715 3.712218055265623 10.511402753849161 -1.3254712996560205 0.4072223744280535 -0.46980842469039086
Ni 3.1356924292387824 4.352841198790893 8.833491124372301 2.0624224850103383 -0.1754973311417881 -0.07803786604103334
Ni 7.190316662313254 8.271822152314563 12.769495578135183 -0.10656502694644873 -0.9506227135729821 -3.216860145722879
Ni 0.46595254474952547 2.316181720618173 0.3003986343637516 -0.2114812054355648 0.3201959317351647 0.6075743027196762
Ni 1.395045088170744 3.4239135543162664 9.959316448665303 -0.709964629463145 -0.008737122762681727 -0.7818842984215825
Ni 2.3935637937016208 6.932916817871305 2.5569008322941618 -0.47345527741435883 -0.2886868053832899 -0.4945532357352385
Ni 6.2664193621082696 3.895191038082716 0.15425277415274408 -0.4820887847196407 -1.2601092293104426 0.67651560577608
Ni 1.986976722522471 8.549973324867002 4.858097129541116 0.8166432991693225 0.34499036507102515 0.10485370068229684
Ni 3.236429010432295 -0.2774183912785367 9.521463425533964 0.6032368516865869 0.510351893330392 0.8285117684721345
Ni 2.434668098534765 9.181369538571714 7.328113818554095 1.1237746844110452 -0.08408150113195198 0.1168818354914245
Ni 1.0293307221806487 2.2535293848988673 7.194396521643549 1.472829192249115 -0.19166082827552797 -0.9454776790369328
Ni 7.292285353613327 2.212971655225776 3.9137690351330625 -0.15056380112490197 0.2513500166060445 -0.06594493943224126
Ni 5.240432938788284 0.7768908157165381 13.727044306626489 0.30631197466422083 -0.999047127622957 -1.47237924919589
Ni 3.070186785904285 2.074743723646927 8.519455902964513 0.23209836746528414 -0.7404157468641507 -0.5700061146579151
Ni 5.398772983459933 7.041407355148961 2.976124906453454 0.1070260257432673 -0.5772825937146703 -0.1372431727565959
Ni 8.805816819700663 6.433726944999094 13.239944861574367 0.0013359452026041507 0.30953948046258306 -0.8737832387154243
Ni 3.7207687141254366 5.467215310281496 12.070595479366764 1.0227550127628582 -0.9522929021865536 -0.06450229344844376
Ni 5.567887043574664 5.8770262485063824 5.579898727515762 0.18101748962906888 0.2514374341135283 0.4600870836375689
Ni 7.6835220003821725 7.999433178907092 3.2741334324901943 0.24945485646586074 -0.7130882626937913 1.307061172579949
Ni 4.752387640789697 7.680909556396834 12.032128631280518 -0.20739932205670736 -0.5313812031968654 0.12036028095832821
Ni -0.015494016189640405 9.110277711821759 13.454960118350638 0.6057627034322342 0.5540079394574459 0.40529584682930203
Ni 5.570453167631184 9.201694723337079 7.9633425431692135 0.08296050015363132 0.4986443750854767 0.8235616235557107
Ni 3.348551030129286 5.783283976564397 6.683583125833734 -0.8086919055327297 -0.12555699466791923 -0.22681783579263518
Ni 4.2895959679827165 5.692709987753566 1.0389106098587995 0.3273448840751201 0.6093247097518797 0.11689726211039222
Ni 0.7199274936546667 4.60367287732644 7.169760804302376 0.7770200283507457 -1.3182935509606586 0.6253257131658263
Ni 5.555973557882659 2.302230158058174 8.857652525642376 -0.2573581704733374 0.6494120646910686 -0.14819941465778347
P 4.380114372878965 3.5557493357182235 1.1023939251011008 -0.8486339931433062 -1.1989668534731674 0.023233773716959987
Ni 8.04093583512807 8.637295654674805 8.745833438279854 0.9503974849360535 0.8879842128061546 -1.1436562538263204
P 0.34429788370177794 5.090856624649011 1.0266895598394432 -1.8460484702588464 -1.8258797086204555 2.1396262851858507
Ni 2.7457712684483697 3.4107772225034654 13.003140710282079 -1.0367163600389564 0.5952551190326909 -0.5355983266020066
P 3.019661007549547 9.102069820435199 11.98305915148782 -0.8823095310188805 -1.1782329633599256 -0.017319722225370173
P 8.872322973497631 4.733266774173604 10.370175143680056 -1.0918158721162616 -0.9088613133654798 -0.8097915663548118
P 6.665474812861603 0.8245114081358071 9.81849552747122 1.5485756911528104 -1.2759166286563446 -0.05718082008636604
Ni 2.5044722312635788 1.1288166652960738 13.601354253380112 0.2798684357607115 0.833705396857932 -0.24615304578613734
Ni 4.416892396360503 8.48122528651524 5.980981138354173 -0.8923725716818373 -0.5317925797026712 -1.3905106965548568
Ni 0.3526299124975702 2.5850225874781816 2.931679081955375 -0.7887879675199513 -0.9052720533523249 0.8849793645415598
Ni 8.136243720664108 5.642795632459226 6.193962023856757 -1.6922911018973112 0.3224104228879802 -0.36278419871933654
Ni 6.555965237149949 3.4021431877717796 6.076082437007681 0.34862024851412865 -1.3088455181738814 0.7695363183791908
Ni 8.19470873481826 2.5228056590897663 10.044601628003688 0.5728520687471425 -1.059277276058608 -0.4117369744689554
Ni 3.0746612910281095 3.516942499354454 6.264630486457316 -0.08823588961995772 0.37038257989188467 0.6892721341107999
Ni 8.193726752327317 1.6066715789546875 7.5166757639823745 -1.4525257048050726 -1.1496201847192395 -0.24298416113985247
Ni 1.5229251476516386 4.626073194902854 3.023051626339029 0.9621232580134138 0.4940156180642137 0.548191589885985
Ni 8.223881025987874 3.2765235408172058 12.38172829403481 0.6695949673968468 0.760806908925993 0.6024920031007623
Ni 4.7165267518987575 2.5361735905466576 12.396317218815346 1.4553060957636872 1.279170359706952 0.9765551171680278
Ni 5.316971989167243 4.570368848506257 3.01175790129461 -0.44268765721419884 -0.10949634166063077 -0.9507191299415302
Ni 8.717790426974826 9.120607055948186 10.998122375484975 -0.14899285709335633 0.7483918230910918 0.26746234878687486
Ni 7.065382550305188 5.844945065806996 1.4610667355122748 -0.2525869743369392 1.0195285354057602 -0.2079073720413774
Ni 6.157261817855634 0.8552993384225939 5.915573693268771 1.3395450041402672 0.6277556627635575 -0.8095519395401799
Ni 2.2151857478232793 2.973433718589125 1.6179560400133428 1.7860003559270143 -0.3270659193821206 0.8729378599959933
Ni 7.491479575502503 1.6798941224302735 0.7223657747076492 1.2865841356725196 -0.5834154460852855 -0.7190889603619165
Ni 8.169834933042964 8.198488441009815 6.075770240687447 -2.2351983034559053 -1.1017593564822186 -0.009782533308060571
Ni 4.03982038382422 0.45838757397496027 1.9035174747780939 -2.3657206125489 -0.30479708068159117 0.7153564899026776
Ni 5.590935840154529 5.55133230101509 9.839687821304059 -0.10173212433417964 0.41660458697390185 0.14704113268362418
Ni 4.8408957607752425 2.851510401954233 4.599883907149123 -0.5663402357705536 -0.9255683417075156 -0.45171274353094465
Ni 1.8114890402023762 6.025676164069295 8.649986388772376 -1.2913483898303824 0.8736333434011212 0.9626655036701292
Ni 5.577067653466402 0.23806220055898553 3.597686472871517 0.31233504092984915 -0.035809039278809296 0.797905099329871
Ni 8.375078537635778 6.760958714127147 10.972089649090648 -0.1881942098831662 0.05309919381782468 -0.13317594466575775
Ni 6.503373589969927 3.71177338394897 11.028277575544108 -0.6607087206508105 -0.1481500494770868 -0.4355795854145079
P 6.375197082944596 6.458378411116065 7.82303577318501 -1.2996121725010714 -0.12291955704507218 -0.04472999591752296
Ni 2.324037580545715 2.038549331268497 4.6860222995763365 -0.7903974780989161 -0.4957711673027397 -0.6052173724517255
P 8.878075908656834 0.2526881812825755 2.3151617557855992 0.1198306337071033 1.0654749202288876 -0.7462529223712181
Ni 4.863564733938801 0.5767044209520786 11.102891569681386 0.4902893182525621 -1.901706940163415 -1.4037089404126857
P 4.577993108789709 2.03665947817272 6.738808524166351 0.010753638972078254 -0.1849510203555202 0.7635191656508334
P 1.5755260588174251 5.240673802418137 5.2345567926184255 -1.5695780044360905 -0.0020388848068997145 0.5584256089091674
P 3.714987987008943 8.240370920647102 3.431347902891565 -0.8200361269009554 1.4603241178035689 1.1118481081767884
Ni 6.694721215917324 1.1686054841507856 11.995601661813174 3.5769187179809365 1.7769025073908045 0.13761418294276945
