# total energy = -340898.7804478599 ev
CRYSTAL
PRIMVEC
8.99458996860474 0.00000000000000 0.00000000000000
0.00000000000000 8.99458996860474 0.00000000000000
0.00000000000000 0.00000000000000 13.16449160614370
PRIMCOORD
 96 1
Ni 6.438039776484318 1.9780003118980818 11.38133518194397 -0.1856519030772867 0.4776909127622612 -0.10040594932358836
Ni 4.482022242824056 0.04990738270473238 5.892584446056821 0.31579008935798514 0.8990191304640776 -0.34584525687215273
Ni 2.8001508212384674 1.5574852349035881 4.721444739764891 0.1281743776861083 -0.327822595042487 -0.02321294778135357
Ni 3.3044864835022905 4.195562536883761 4.715126040210034 0.13856112023707104 0.16285881644217112 0.3266244609693278
Ni 5.070025582325275 4.347265293740989 2.4428955959724554 -0.10404997383407887 1.0521825739953556 1.0976857006334773
Ni 7.210288299874039 5.917504857425768 2.6436404559654805 0.041613047555096074 0.5849663355121731 -0.7276893004364177
Ni 4.940143701083821 4.666960010151309 11.377411741736385 0.8575089270354328 -0.8160696860540397 -0.6325862513829815
Ni 5.649232212695322 7.947754743294182 12.305232494650236 -0.3617863535824415 -0.30209665103129263 0.741770204009516
Ni 1.807408915802138 6.535739014299046 0.4247506294790229 0.026547154360909122 0.2731077199981103 -0.26055173770997064
Ni 2.5923578004323673 1.5430669069513685 0.4046018481653815 0.8639071172522927 -0.02990115843480657 0.6534322415940553
Ni 0.6092170802843205 -0.016694858709990587 4.707121754467876 -0.10799070364938175 0.4652089782451665 0.32252149454454776
Ni 8.600779974727153 2.2361360535704162 1.3566144506489717 0.4059982722129653 0.8107063648595972 0.0959106325563961
Ni 6.799631293644132 0.6978551680185339 4.778157429349629 -1.028243289570939 -0.5307407413993892 -0.5833264859159051
Ni 0.7911245702022779 7.488176161436002 2.6156663812529426 0.20841567913636364 -0.8315451559818197 -0.24682410371123298
Ni 7.683484691164322 3.89775165822001 3.800536329353397 -0.05969664452968429 -1.4377215499127045 0.2784126771507915
Ni 7.650285659054751 3.9057748326014075 12.587136440697956 0.38636892801781203 -0.5271334836641051 -0.2296902722444238
Ni 7.797626039706847 8.816587175324537 6.760664030894662 0.4062821220019713 0.20917081213483335 0.4894477961878732
Ni 6.863663780663378 0.7532546474466756 0.37475509979117655 -0.0851636784525372 -0.4531674736996002 0.12082822173368224
Ni 1.8023809399285942 6.492205198148864 9.144661251884756 0.3075013669866317 0.24694006046380695 0.2232110922779833
Ni 0.06074586379170973 4.829995950551767 1.3679089574547123 0.43420224545100705 -0.24772064738357338 0.30925074557757065
Ni 6.38276802023579 1.874733422802989 6.882369829722786 -1.1162099846899098 0.3676772651455797 0.9017624975371695
Ni 3.370929520672002 4.470689059280826 0.42564199335928804 -0.01638666888813952 -0.6521451473515155 0.5755460706395379
Ni 6.027211873042251 5.501882837453112 4.728527080020398 -0.6590295331761747 0.256737506170203 0.4797699067784769
Ni 5.239870427441785 2.813327895755 9.295684917188401 0.16043683726423982 0.08209300994701346 -0.1665367795143906
P 0.32510945965875204 5.4753577912078875 12.369356726488643 -0.42573714540278934 0.6736863638574011 -0.2344563261744994
P 4.13580248016851 6.211870808075981 12.601736459370471 -0.9393962487295434 0.7557395217054146 -0.4624324439412939
P 2.316853505250528 8.511535651619278 1.4243715974342903 0.9003285933041204 -0.3932558849456324 -0.45047038648341126
P 6.2933977728663235 7.617149589075976 5.652806662806496 -0.8798461570800524 -0.049404261464740716 0.24199068687833164
P 4.77017293170572 1.0265525696736304 12.584345419385683 -0.43498437503267023 0.8945045304231756 0.5754080023997767
P 3.8685642133011373 6.187549436408606 8.324672142548685 0.623075997899701 0.07865390235847745 -0.8174452262453277
P 4.75830007275567 0.9587873277572094 3.7606606130024454 -0.08135741733256957 -0.15101245862654636 0.6008534390560749
P 0.18416783041352366 5.573812574592165 3.564996796964635 0.39440413961746273 -0.7148625809853947 -0.04328709282340932
Ni 1.3367849772843656 1.0351154194618484 2.580148543812066 0.18603474033800219 0.612462741160229 0.36434691522076607
Ni 1.718857176133016 6.399443990306542 4.821613892024834 0.773221737650578 0.39635097893118837 0.08263756959657381
Ni 5.988688043585385 5.693890352609714 8.994481279133772 -0.38888552379207864 0.17922774471849778 1.511320406345778
Ni 8.583033648432874 2.3994508262643977 10.163645773436741 0.5785167232320875 0.17808488936330621 -0.1011543974538387
Ni 2.3521033039060173 5.28497829686186 6.962015126261348 -1.0460178399455404 -1.2940264508831778 0.1760084664502517
Ni 0.4942158489269284 8.938499849725275 9.133589810913833 1.1099164383717144 0.4005573037030521 0.28031709326235593
Ni 1.3903837397717498 1.085808929342516 11.485703008868976 -0.027976687718584074 0.8373615055532805 -1.0286801199980413
Ni 4.0571537842145435 6.776308321479375 1.5381000942905976 0.1868207265744073 0.8016766505571613 0.5181343654892883
Ni 5.705097611891352 7.88752696789302 7.798724279159727 -0.8421807813187947 -0.03316363123616224 0.4889564583737514
Ni 5.319643447159961 2.8845560548651856 4.7180222982266375 0.3128469475692612 0.058324960993138254 0.10059929628131706
Ni 0.6404337047328381 7.469980105636039 6.921942428386907 0.7217112284761119 -0.8268500644989955 0.2597636945910365
Ni 4.9793241356189855 4.663182282303566 7.055483308886605 0.07034383983088531 -0.30118056697492646 -0.23161165763685276
Ni 8.112625580077829 7.14644469924718 9.034619637516045 -0.9078326149906494 -0.26636397351637353 0.4098852659721974
Ni 4.667346777526197 0.5023127789472579 10.419102926173224 -0.4760472065112511 -0.6580273171639054 -0.28710274872562164
Ni 8.109126684523611 7.191984308992712 4.583836505615789 -0.08267073682735439 -0.267152787966256 0.6219354565373547
Ni 7.283225431105822 6.137314650623736 6.921402752980087 0.44892489637316235 -0.9265314769517334 -0.022192991157271455
Ni 2.2193251646479593 5.355315991550792 2.5737632842903686 0.2577790600608399 -0.6682327969419976 0.2276768413588208
Ni 2.447005224195393 5.259091866514706 11.362522996721221 -0.8555152936441717 -0.23774322445588733 -0.1268859978919879
Ni 1.0784873329899851 3.219748450041366 3.7886220952888245 -0.11076003886440279 0.2785350616612687 0.021200031116382845
Ni 3.693394570837333 2.5346664994432615 2.591456542502977 -0.23426477898898362 -0.48006378386981186 -0.01816947182017516
Ni 1.0055771855285423 3.310638783140044 8.149267741282916 0.126264305147589 0.14072238955444796 -0.3481386808920198
Ni 3.9098493819229017 2.561884129127239 6.860964504170265 -0.7909047567526378 -0.03688530306212357 -0.140706448714848
Ni 3.9853499713370826 6.699350608466779 6.016448946512228 0.6368830789861225 0.1597899477088603 -0.6907674877094039
Ni 0.7569478261473502 7.346556340096202 11.240527572091434 0.13044826132194953 -0.4343868506579874 0.443747465937281
P 0.2512611764484532 5.478137119553013 7.918244392590228 -0.2163251637914274 0.2716439909683902 -0.11274544472554777
P 8.618877090035864 1.4809592622164485 7.979801568410192 -0.4349545502359993 1.2023977335315872 -0.28389195509780785
P 1.775415158767799 3.1911456534798828 10.323673023444174 -0.1769996267189274 0.09453046437941784 0.6429506253364411
P 4.060724636489672 5.966993092231203 3.7412304994388865 -0.531416427310175 0.3230999927558371 -0.32456783555061525
P 6.875041937157175 4.011380315126056 10.408531584412621 -0.6156640217063462 0.37010824318457547 0.0695586249254286
P 6.196445086031029 7.770669253136165 10.15420685057145 1.0777539947065569 -0.4153401184391815 -0.20385531345919086
P 2.3456631773846266 8.317810169750965 5.806186011260913 0.597410731923113 -0.0009392239848177373 -0.15281223083944653
P 7.051911557152464 3.896843204618529 1.645732957426868 -0.7197713311409217 -0.28614218458456525 -0.6430192737908474
Ni 5.313491147522208 3.0380037622044664 0.4049994090484058 0.04114664944163881 -1.14018757855143 -0.37131794722196054
Ni 1.6156172708082641 1.092761747500386 6.874523848766628 -0.5604320978162347 0.41281760912764387 0.6955366269632731
Ni 6.898409882272502 0.6959788965208215 9.091951154900602 -0.39244932988393705 -0.1885384805964624 0.4950553721826377
Ni 2.867898073974661 1.645317407363616 9.119530367107151 -0.5843724106819161 -0.4093412205432692 0.2374891994635523
Ni 6.377767028132587 1.929078736269808 2.5101661354326246 0.6057765873893051 0.6780274144349161 0.6963228703099943
Ni 4.066310276950263 6.890206816088831 10.45596365591807 0.06446424112165672 0.8837604045327939 -0.3951993818252484
Ni 8.077978418959956 7.114199093689658 0.2688977687433455 0.14939446340714915 -0.3092399469442932 0.42640023290808504
Ni 7.488212139796457 3.7477129005338115 8.350605344764432 0.3225965707568574 0.04590164762812094 -1.23097554516928
Ni 3.0436973377464227 8.445191554940816 12.43302043531323 0.8350184592424007 -0.8845397059009799 -0.35833747580189257
Ni -0.006236848784821654 5.055679211093965 10.138778430149467 0.21247365125582113 -1.0002313777390452 0.1568745738342782
Ni 8.41908025984082 2.2951495593062323 5.856869627092456 1.383482843173798 0.20355320883773978 -0.37732584397893726
Ni 3.5701506970997703 2.7406156292760584 11.593954699805067 -0.005403944624390694 -0.4605167149758198 -0.3357009693492992
Ni 1.2549881747906129 3.4850079070837308 12.664109444513745 -0.5357585063289546 -0.6324926632279106 -0.3827922664101472
Ni 3.0600584971631952 8.33679774948093 8.019782521465473 0.4228279421757944 -0.2112994284420619 0.22812215642635553
Ni 5.562758223342459 7.634293277832638 3.5182501132258475 -0.468027164420252 0.6610607046735906 0.7218647233348408
Ni 3.024053152938158 8.236436112992553 3.5520041115454326 0.7813703348996414 -0.16824939133012315 0.3055622409823899
Ni 3.2986849728789704 4.259765921115167 9.171951737748655 0.2420243683297445 -0.12168799863081622 -0.19331636160107996
Ni 7.1307941124493865 6.057415706643969 11.480727201618093 0.06935216534157734 0.19739130300140198 -1.2022138996555554
Ni 0.447255993402447 8.98494791307229 0.30721832046364284 0.29260388104950896 0.31880033693921866 0.367424011484193
Ni 4.842804246873639 0.2819624108834572 1.7004578425964842 -1.1785651498883638 -0.5768853582762516 -1.0943653780109925
Ni 5.985746812618213 5.510211827898375 0.4672581628972356 0.10903457153286382 0.7442672593997569 -0.3661587716185243
Ni 7.929243876840241 8.765336000856822 11.435599544099764 -0.6360559550991368 0.3195410717599852 -0.7234207549680509
Ni 0.10137802517122133 4.724102641143482 5.711283191512527 -0.06633291889927931 -0.16672447004516447 0.6879199909582798
Ni 7.875977914187063 8.694296728139022 2.6072798254309526 -0.6595962043129221 0.7705889280134213 -0.5168986933099743
P 8.404203207792804 1.575537377261732 3.6599526847946926 0.38859961712054364 0.8522322520175258 -0.46309964521164765
P 1.8891067778046402 3.227564748850149 1.6806445594940829 -0.7384599086893604 0.13788594854691738 -0.3960445034343631
P 4.723670900818025 0.938288656888146 8.081378374022925 0.49221584585131356 0.3649076728202425 0.10792514051876896
P 8.45477079341188 1.7755590722096177 12.323267547287164 0.0712601809975676 -0.6925662314810395 0.5271499387243372
P 6.341761683907549 7.578535813717973 1.47347486378286 -0.3770846745024087 0.37061603605892945 -0.9849924493021037
P 1.8434682275678576 3.14058706245092 5.999980751473102 -0.12223872892796367 0.30812665927545646 0.0029781087917174517
P 6.840682602922941 3.9621349342536893 6.07613704650657 0.1889801961195713 -0.29109027261845993 -0.2219257978076565
P 2.3387643267674383 8.525720120228542 10.239131072047728 0.7818796704358921 -0.014075504256459629 -0.25494030506046417
