# total energy = -340866.1103409329 ev
CRYSTAL
PRIMVEC
9.26380885665431 0.00000000000000 0.00000000000000

0.00000000000000 9.26380885665431 0.00000000000000

0.00000000000000 0.00000000000000 13.55852066186345

PRIMCOORD
 96 1
Ni 3.596192133334165 6.0945858427490105 12.861884484131624 0.15654187308520784 -0.3141276140538977 0.2600835398243005
Ni 5.562463388921716 6.9392321576218565 6.377684140828442 -1.4155182743427879 -0.5288617792091215 -0.7233032555535801
Ni 7.42157090178414 1.7800779581262476 6.914940597613745 -1.2205507502915303 0.6103040429460134 0.0996731849226219
Ni 3.9446132543261103 3.9802233361929322 9.114837705598736 -0.17901357182516267 0.4688517172040764 0.6211906079515301
Ni 0.8067610415110993 7.8899676133736945 6.68745572421462 -0.8130545533767998 0.613868106148188 0.28212200768157863
Ni 0.38659449881416535 2.1663880580035477 6.757824543899471 0.5309772828902275 -0.7114373573539295 -1.746333633465012
Ni 5.160182482296654 2.5014507663909256 10.612878071778164 -0.4105090155991252 -0.4246549680822041 -0.7556994124960985
Ni 1.1372900417648608 0.7653805330067012 8.796822258567062 -0.06593696901244128 0.06723203367478098 0.1541116663771604
Ni 0.9052603436612964 1.2258705835990311 1.8335866453975667 -0.24368915762667712 1.816440931805059 -2.002013387794662
Ni 2.3916375742865275 6.680651456490588 7.94658152942799 1.7301449395202912 -2.3077093261414383 -0.059130230503253
Ni 1.5914204874660427 8.347757263637154 1.813492517255703 0.8572898690460914 -0.3474095160354791 0.05806862200795806
Ni 8.319854670873662 0.44899181083866213 5.245642973253419 1.0312296258927722 -0.7146314388111951 0.34064597205940045
Ni 4.161599452964656 0.6544010273468833 12.516304573365629 0.3341552221287342 -0.11331468696545645 -0.575792125212073
Ni 4.774252198589109 0.5065163593194679 6.267792206347386 0.36342903139218696 -0.6917275376298281 1.0446327866725558
Ni 2.314099492802318 2.2801105775137205 0.3019603396218436 -0.6002093777141727 -2.4660789964640046 0.20355063773457846
Ni -0.13761480934959056 5.4198099938470055 10.073791086330818 -0.24858608070766222 0.10647889499054565 1.0725583094382303
Ni 3.2313277513345167 1.786349556831721 2.8440625527474173 -0.2292444429562568 1.162498069123172 0.5529931250396863
Ni 7.824815244547119 7.2288002999197545 5.890160442758546 1.3818645908440845 -0.6214436045026007 -0.5999944334898893
Ni 0.7946523167431174 8.944457730131882 12.977091065846547 0.10168198782253456 -1.0390169831476752 1.3730385079120224
Ni 5.725589801927145 1.351821331013524 8.542898474229355 -0.16305499161337725 -0.24541462495821606 0.5873934568964271
Ni 1.3766576029919186 4.501655354412964 0.7867929011718865 -1.6301627079976828 -0.30631943086338853 0.5263876066370161
Ni 7.876877851230661 4.465424597341908 12.39026489338456 0.06060630082814723 1.3576237160188491 -0.9929124754801286
Ni 0.9325320710306348 6.691721708267604 13.676073247713694 0.915077726588837 0.39633143854716263 -1.8550876976429795
Ni 5.168019664726241 4.3498771074551055 5.200479125145897 1.59052323922919 -0.022034096981903988 3.7214221718443716
P 0.18986176583260014 6.017288620299281 8.079888667584012 0.4632382276720409 -0.13784018291064648 -1.7119459000137611
P 6.984198686597287 8.916045627872375 7.116759161746425 -1.2886800989696 0.5369910931844751 -1.8230761777333893
P 3.5379598298443513 6.438180519242357 5.458063966807686 1.397213562496329 -0.7143208495493117 0.2802643856475496
P 7.31382353909085 3.787267458148179 10.268966573016385 -0.4391238511223405 -0.39034359639484384 0.5552402692026502
P 1.9902089380911596 4.141024533134736 10.08755340100859 -1.0405197929454466 0.863705542764448 -0.30579286893595725
P 8.490003051115055 1.108868675696336 3.2847280520403204 -0.8989304274050132 0.5850943764496053 -1.3442964027823237
P 7.435040480096928 6.727915410102586 12.264170556930281 -0.025251061257304898 -1.7741925646588088 -0.09412140186645726
P 3.916395692055991 0.4832197323999352 10.282605679034212 -0.3753568931780245 1.0401030171230023 -0.9145005139291283
Ni 8.361921627626325 1.7914168603647986 9.271234887733181 -1.4950754052418254 -0.15747029843674815 -1.0672258414817233
Ni 7.076280948240421 6.566271206540106 3.132438442824644 -0.4329629737272673 0.6032479074301804 0.9664157147411808
Ni 6.621344551154637 6.554756291930206 10.213186399773749 0.329390196639923 -0.767523144603904 0.9159141064472033
Ni 7.2157105377767214 8.818284651300946 12.546526823907335 1.7955671736798429 -1.6769837821162796 -1.4279685842909988
Ni 6.073177180107432 8.80974341938596 2.082805341134817 -0.23895627092738203 0.625703151109903 1.606899109484052
Ni 8.269042678407606 8.337001981366765 8.67276225457323 -2.8314654086928783 1.5793798210178607 -0.11030572493580358
Ni 5.532328218184784 4.255673433546752 13.181458103840196 0.8235425973923172 0.06255673968629871 2.694803305250733
Ni 4.986106247031449 4.934395665090606 11.31543978945003 -0.5037099625338421 0.5942099655976283 -3.347921100928163
Ni 4.922528725738004 7.912469405479446 11.087995676810584 -0.3935813866058512 0.17985715077238057 0.1271330809057875
Ni 0.08239231740986318 2.96761490000704 10.976381600233003 0.9367930067787416 0.051581985842349874 0.5928956176615789
Ni 1.5757090673707956 5.7048018144898025 5.814748405444066 -1.5382370282309639 0.7619973296896683 0.4666626799725576
Ni 1.942787499725847 0.9721255907753791 11.513977112428384 -0.004305569353889359 0.02096528939775744 -1.6044727594307462
Ni 7.815699656472989 2.9796949069670653 4.424592506331401 0.4314190262789151 0.24367321678707715 0.8706002130017524
Ni 3.3923142244566895 8.704173051811999 8.074546228923088 -1.431424146939767 0.2829560735470998 0.7248772849089193
Ni 6.798718702430402 2.19694010014631 2.4142440474341877 0.044929513522838756 -2.011320009907568 -0.36364860360216084
Ni 1.0838656551556096 3.649107010447403 3.198359707799749 -1.0759866183934887 -0.6894963343064642 -2.230499869538972
Ni 5.059725737300863 2.3513214774383457 0.8380606730416486 -1.4871587214979096 0.6399648032352397 0.383663613271507
Ni 8.216127801294368 0.189098427969482 1.0448335222373817 -0.0322891990510089 0.7033738636195047 0.9908656202534292
Ni 2.679955102366938 6.451714944218275 10.71645116212775 -0.09039381650322496 -0.10378617864973094 -1.0334433457146397
Ni 7.280214439972008 6.338668682766446 8.06327958439488 0.6766963543283184 -0.4213091915384228 -0.911338571261379
Ni 8.335834741430443 3.0141006936614922 0.5760041907666664 -0.004773767239559521 -0.7396392737094423 0.48448016776995273
Ni 1.4060794604344335 4.89040183606211 12.054921491583922 -0.2894501659118757 0.22786401766896242 -0.31306214890386086
Ni 2.991858288208256 2.9617601727073968 11.428355431194698 1.2614636864558082 -0.14224473973624532 0.46333053027553106
Ni 6.475865694329306 8.538119275156749 4.534701213943487 -1.858857963318689 0.4120007696533033 -0.569418103364929
P 7.155375349639726 4.931597994767042 5.65677730215739 0.27355894860291596 0.4688056944574894 1.2412802695293976
P 6.818469143257682 -0.07636806240518203 10.532801706622905 -1.142069368955175 0.6254239293065873 -2.679942071868185
P 4.667940726293676 2.8823415379924477 7.043950254766122 0.43991935044044234 -1.3602146166744769 -0.37312131897928646
P 2.9946837499588757 8.05828175942944 13.41789181675112 -0.688212325387718 0.9143254218038447 0.4463298819524764
P 0.4246085391212683 7.605522357462985 4.449011906903967 -0.19138906267138006 -0.20360874466602355 -0.42407775542249554
P 0.2960806000378499 1.7321933293100142 12.828435648908801 -0.408395054579916 0.6002641422115081 0.19169476683725695
P 5.650682642204169 6.217423950333313 1.5037894860562606 -0.9832245587684034 0.2817173160439922 0.2506123671090716
P 8.669832111780702 4.669932445232637 1.9544061689967545 -0.22342166562689264 -0.644833958402083 0.8346222522452464
Ni 2.596108366941182 8.429093506818917 5.1558312712007 0.9659837694100847 -0.12432132248860522 -0.5287681910540506
Ni 3.684837521831464 0.38318078519087617 1.2051224305404669 0.2997726308838063 -1.5472777982769934 0.6560038589759735
Ni 3.0498312050455536 4.1611084710866795 4.469580342067574 -1.6529776490096695 -0.10767137263675004 0.7670570036007628
Ni 7.952970778507996 3.984327203588094 8.215243107533107 0.7412775806438137 -0.11899528229000152 -0.31664960914480306
Ni 7.559962944710376 7.0492862087607335 0.8883705670589056 0.23671426897074072 0.02862563415649264 -1.5170506239613357
Ni 6.354620961896172 4.38265246376229 2.2787673252060494 1.1967438776799195 0.3866504638139728 -0.7981529536746189
Ni 3.5398033278390177 6.726757433975284 1.6499501592253474 -0.01650905339861673 1.0490360579465738 -1.0591147823388147
Ni 8.797116847693847 5.4267671144198415 4.366629779684024 1.0230501754057735 -0.4129322803286372 -0.6674185285708183
Ni 2.9178960370051583 1.845693517403745 5.24184666431767 -0.32914439917770405 0.2913484113758531 1.1243256718185088
Ni 5.301261029838233 1.702345336652652 4.396120189313275 0.968941309376512 0.3568745181031209 -0.5000219721592938
Ni 6.848363454960136 2.092926052487445 11.986111770956873 1.6810494675452208 -0.058127243160035376 0.3239505136815905
Ni 0.11152884953461037 6.619862341711689 2.117162956022348 0.14334491477895955 0.14518402487022739 2.999602442814853
Ni 1.0618455811188157 3.5276028913617536 8.309312456210694 0.6167369430555507 1.0824457437552713 1.0028395047858534
Ni 3.129842723537682 4.419476104610525 2.182854478533796 0.9938262455436497 -1.0280625410187003 -1.4972767837685181
Ni 3.28450201510027 1.7626805247896475 8.285123724482688 -0.2544996179786197 0.500582472648454 0.20787651880344196
Ni 3.0699707258516074 4.353860545333029 6.9928205136507335 0.23880714694402744 -0.2598755375785524 -0.4860932778933435
Ni 0.898226333473607 7.768704353322525 9.249135144938828 2.5308471419793253 -1.0491594708983156 2.7379042502052653
Ni 4.556219189531482 5.743682020940128 3.5289711559537746 1.483506212346987 1.6841818425266155 -0.36067563701676597
Ni 8.875062536774868 9.244336491867285 10.851467473047673 1.7797708300775348 0.289796750618017 0.2542767033345363
Ni 2.2267139823315247 6.356029060866973 3.505596713038487 -1.1031140707379001 0.6272843795540939 0.5620989439956965
Ni 1.2608136712165265 0.6972831992931682 3.884583771886723 0.1359491365355207 -0.805127070999607 1.8461538854884592
Ni 5.450788171204616 8.07026912829928 8.509124479309984 1.5045545483768539 -0.42472953007388137 1.0885983936202284
Ni 5.416678826398778 7.844973292971209 13.688275536952764 -1.9157235661574814 -0.3066109939618784 -1.5102536556441604
Ni 5.8048880071248545 4.587586446867866 7.632457808564955 -0.5832413824012666 0.3471331224456409 -0.37587239936186234
P 1.0618177896917604 3.6982978363352346 5.212939874656579 -1.1320646923339794 -0.8634818567894161 2.454395646588805
P 6.220916406333259 0.8272470287744422 0.07938343224067906 -1.5578699719705429 1.3097806283936408 3.1223705618837254
P 3.2593970926603415 3.9281422018913523 13.351306336669392 2.108627265701175 2.7042238272336845 -0.0356714852596805
P 1.99126501231926 0.5569716951383142 6.7670716780616615 -0.25162820996809565 0.3077073123498507 0.2388210309010984
P 0.7657835086990026 7.25233963863557 11.460611087815947 -0.47114539833425956 -0.09545683284842915 -0.2981633774151574
P 4.265715402522724 9.122017157588015 3.6969342036477224 0.48410272982587593 0.41983363543416075 -0.05052192000895169
P 4.8010338704613735 3.5141888959030756 3.398633068588156 -0.24099644128586237 -2.168971056896555 -2.376410231052262
P 4.38694160733782 6.107212414441123 9.432635453118477 1.080787382216242 1.1240294807343285 -1.0341704536886513
