# total energy = -340889.16262722656 ev
CRYSTAL
PRIMVEC
9.07502847634796 0.00000000000000 0.00000000000000

0.00000000000000 9.07502847634796 0.00000000000000

0.00000000000000 0.00000000000000 13.28222149306920

PRIMCOORD
 96 1
Ni 6.493799796482566 1.5501872462650028 11.385307164646875 0.45691305678496147 0.7643578595020449 0.18759822817038013
Ni 4.298405268546889 0.32492049554102825 5.880131867902997 0.8386593984290975 -0.960271806626972 1.973175894737679
Ni 2.7796629950794576 1.6717290992744875 4.8524865618050015 -1.294041363281513 0.9663344678812843 -0.18912597766881623
Ni 3.4886223500265916 4.6213038477995205 5.040748929823151 0.25773406575551744 -0.2599855807938555 -0.12004660637265133
Ni 4.708759894798132 4.844231916132081 2.282881430030252 2.194354787076982 -0.705423804169998 0.8632805394118874
Ni 7.307875203353009 6.023640734232482 2.6267850696110946 -1.2965805847635994 0.33970263430952463 -0.8954519819381094
Ni 5.4608256338112 4.7972504950143255 11.552570824856568 -0.6088079180164612 -1.8112755855540354 -0.9289976791040387
Ni 5.881525792238266 7.9645079455582115 12.403030742387125 -0.6383961731965393 1.2154946759248615 -0.11529752172344014
Ni 1.7948227821103462 6.414356999406107 0.5209601627474938 1.5959364398249611 0.03583269342789313 -0.9585172858297104
Ni 2.6006852884377 1.3627153132052001 0.33342198198165285 0.6456322859336623 0.5327096922003018 1.8470704837654577
Ni 0.5751925314165508 9.109694832224372 4.6018242997158305 -0.3495378752323916 0.006797739648123776 0.7656536954953329
Ni 8.443006958746526 2.5811286026141023 1.6073608315815904 0.4533271392059161 -0.5839733754712846 -0.030004773892206387
Ni 6.645416293027737 0.8395853112092507 4.821618760802504 0.1684100852777035 -1.0176729702542602 0.4810642001098683
Ni 0.6474025309981584 7.331542876962263 2.290824802235075 1.966193549882575 -1.6544732597185894 1.257340408316054
Ni 7.728938362909051 3.9089322822400083 3.814787031937186 -1.1781666288983643 -0.24773298867874752 0.3653241915323709
Ni 7.568219613054801 3.9119179665258383 12.70172168385115 0.9024584951629296 -0.8378001357525959 -0.48484834974264884
Ni 7.8780773767489585 8.772258057756241 6.70471887996577 0.6670410906267417 1.3310721907825656 0.7250107251629901
Ni 7.208313068703038 0.7443338149658734 0.6029557652634796 -0.5677322310220738 -0.29746532290686833 -0.9896610584223666
Ni 1.5801711395184441 6.6042610400300505 9.196875905867785 1.548305211100243 -0.6111671622772571 1.0318004107945777
Ni 0.16772104163220297 4.846573273413978 1.447217438516767 0.021692140261452966 -0.5204704698216326 0.48430764674783044
Ni 6.069106625636762 1.9375457509955971 6.785102757469101 0.978576518473431 0.40657574198299007 0.9541224991961246
Ni 3.5938473022885926 4.113909944744693 0.4042253521884774 -0.8260581647253192 -0.7713877697656328 0.4532985999608257
Ni 5.854400532875513 5.761553919111604 4.718509197619612 -0.20034138676866142 0.09487036421733984 0.0011850214470366688
Ni 5.236581686386099 2.5870999711857627 9.349913551832898 0.1044027291878073 1.2152892447822747 0.4958002207684623
P 0.2847943507439897 5.27461512967459 12.576921895709104 -0.40306978571226065 1.0111307982603683 -0.4412568383049433
P 3.995154125400101 5.880246213258625 12.708309246839248 0.15782202534921205 1.9159310541825971 0.514764677686107
P 2.3431359874290254 8.463915823775562 1.3742188189824587 0.6317506428555636 -0.18283037446809158 0.06809206768223112
P 6.337700235994539 7.653325227743291 5.838639023855363 -1.1088306615067034 0.11465860258786059 -0.36849461884055246
P 4.574957678657473 1.0294802768049702 12.609861525655232 0.8187248642886997 -0.4677057765250913 -0.902223239223672
P 4.122876072630406 6.555600738690779 8.411789769157389 0.5046139624053503 -1.7186317966743692 -0.2831334796652285
P 4.567343729977195 0.8251995764679206 3.8612747715195344 0.3584488045687762 1.49828414198711 -1.6469769513415442
P 9.176124038827032 5.613993960182743 3.5589447437375226 1.3365566109359046 -0.30097230761886234 1.3249997593362406
Ni 1.039081656666393 0.9866098434728707 2.3526003343642596 1.642701978115274 0.4853715692359706 0.5236452680051884
Ni 1.7397010606752972 6.597654419482682 5.04401684748676 0.3045376563726175 -0.1051717461433479 -1.3664737102103113
Ni 6.130716992252262 5.815659237385519 9.37431267271704 -0.12399247839427678 -0.2827915229447775 -0.0485560545318325
Ni 8.955337677155432 2.0416907748988935 10.106296281772316 -0.44820755859116357 1.3544499462765576 0.028870917398079312
Ni 2.5753931847762774 5.492960308753826 7.140628785696943 -1.3133099817031382 -1.1750052004512472 1.0351945240777913
Ni 0.6291898568545957 9.01941645144797 9.005093334401389 -0.6459022517655973 0.307873919834702 -0.07634196639584916
Ni 1.7393471345745453 1.4046056434890635 11.487567305187962 -1.4448507047583181 -1.7070937141277827 -0.4168323867139918
Ni 4.1822539823027025 7.011348656120506 1.465559885563939 -0.7165140005458887 0.33563412066710585 -0.5979923154581959
Ni 5.860889178055964 8.141725096724434 8.137538786204516 -1.2981844389156094 -1.1388927709994063 -0.6205100369447378
Ni 5.300705835819761 3.019071314667542 4.806118612595217 -1.0227835520079482 0.02758459448648798 -0.680224422086235
Ni 0.64971212568127 7.357061856329296 7.129338543082957 -0.20012875653722306 -0.013075345126719417 -0.8352737697863163
Ni 5.063702398711143 4.630233675572337 7.362241882439787 -0.5628041975928372 0.6830680621826171 0.5250722302597022
Ni 8.288858529326747 7.162466026113334 9.208935710875199 -0.25816241154218766 -0.21932049897432548 -0.1541242647826507
Ni 4.651932068056894 0.19135332263138158 10.315863186050082 0.014602323294207109 -0.03655903007095639 -0.11805708674644828
Ni 8.17923218837591 7.266030248210268 4.691506451137889 -0.11831831082763494 -0.3814120982331689 0.22564155609634687
Ni 7.240220867940054 6.001243564574645 7.179292943447029 0.1308274990382392 0.36948217956480234 -0.9833027203045065
Ni 2.419529575022085 4.944610803322249 2.865626199935154 -1.2918178732676333 0.3168079890995383 -0.5356548908715549
Ni 2.2650816696708995 5.266093678171872 11.579400238299204 0.025299655107053204 -0.628172438586002 -0.88047324914109
Ni 0.8875477428780649 3.160914005815026 3.874038798717163 1.2555388363309408 0.2222818955954946 -0.5531756733641376
Ni 3.691884832196863 2.6438551977012046 2.8119129228805333 -0.2848646034237223 -0.07571693121734056 -0.7991950217858881
Ni 1.2608844214991277 3.451487334532318 8.099165936860432 -0.6721948669135391 1.1000778550147376 1.8757943340627112
Ni 3.7116593186978464 2.7482996975359066 7.188563992281083 -0.7238393305627082 0.014581754468916824 -0.24730669977460637
Ni 4.032770117390268 6.968169671828776 6.190883521877258 1.3414234521099027 0.4035847776754663 -0.9062734980336455
Ni 0.707963824350917 7.134995915678053 11.444678721799413 0.4393971593883852 0.3771342967934214 0.15968196137608628
P 0.1743975398968993 5.412555558685579 7.968310382384239 -0.32113361305808563 0.44226882450922544 0.5660795259099992
P 8.648647098311592 1.9155115824667368 7.8510147350809545 0.6694769537617439 -3.3569063351459087 0.4967163048248285
P 2.0107540036818894 3.302638721595592 10.266931541366901 -0.6376801209661211 -0.05499306840642787 0.053065512366411834
P 3.9589719878693894 6.459559714991879 3.639713402437569 -0.36390417125639263 -0.91905496606903 0.839482151440709
P 7.072904572566659 3.770855727805654 10.257859235650963 -0.5678049932415382 -0.16608040870326235 0.5057401055899935
P 6.615323499435603 7.887669681582157 10.272788564582934 -0.9199232276065964 0.6304985156160173 0.6045470858575782
P 2.1358804928400152 8.587290832486376 5.958789675038045 0.5996054255815867 0.1127654993302058 -0.17480467595013766
P 6.755369334994654 3.896708219221732 1.5358632217155985 -0.544368616595469 1.7998971685137648 1.2316705143537756
Ni 5.5552150023732585 2.6759172724180353 0.2450938247706758 -0.34549070174621144 0.18189552135864803 0.1499855600239288
Ni 1.5055562574573684 1.4231005510104053 6.96939389313625 0.2540555884626657 -1.7835462379595672 -0.45679787136333583
Ni 7.103015516215243 0.8566118791638834 8.859693232189938 -0.012699964065171678 0.23214798975629697 1.1131930522404572
Ni 2.520525564131512 1.3423237247849573 9.156139011671243 1.441633483372601 0.8439067628709659 0.4936973154928465
Ni 6.190394377855964 2.0378157378470716 2.806599493855143 0.5282431717885161 0.20334726347452076 -1.319372128736818
Ni 4.144910241159267 6.777612229172676 10.640613071060491 -0.1698560736956107 0.8812312103530373 0.25000198721858236
Ni 8.22124049402669 6.9783155533836645 0.38121471062267065 0.3863740702241346 0.7976292199606649 0.09405249630173479
Ni 7.5418385060064494 3.6217530140786445 7.934334384214881 -0.3669977225800518 1.7358800422318557 1.0405249351517694
Ni 3.233677582118322 8.429394416409917 12.401821948627633 -0.2938282403749133 -1.2784923598033207 0.42542089971395125
Ni 0.03341969893920173 4.9251630178373444 10.221280519386845 -0.17874617709638893 -1.3562029244119223 -0.12409866495483789
Ni 8.721310849304421 2.425845794666272 5.772865034290504 -1.2389122835178534 0.11846563503877663 -0.311746772526547
Ni 3.625864001864301 2.736874237001378 11.593904855910274 1.61419795713831 0.9037062515271017 -0.14466749024512504
Ni 1.421557796212256 3.381854642966442 12.876051161036367 -1.5030116293697662 -0.09945695514675774 -0.04892372228389639
Ni 2.844803547674252 8.255643926025417 7.9768499839434055 1.0372035840880203 0.8392448386189224 0.31192083621056604
Ni 5.814624684167936 8.060793995019171 3.5207180023478526 -0.8456481710421049 -0.7366588509248797 0.6066870150187165
Ni 2.7264379545433095 8.385180878900606 3.794199422907296 1.489206605165874 0.1507116395566759 -1.3269625394895663
Ni 3.5925858733654 4.712172105410509 9.591397330375903 0.27006996161305097 -0.8835786275392912 -0.8274221349523814
Ni 7.393516244706739 6.169412912601134 11.573091278677596 0.9179190526923741 0.32170028419483304 -1.5257599788098755
Ni 0.500031332656366 -0.17196996984687038 13.509745861901557 0.5969854714602364 0.36784567240264393 -0.38728655473607493
Ni 4.758590874778351 0.3074311011469508 1.5329274500850028 -0.5266899683687832 0.8609508628374463 -0.10820153410860721
Ni 6.214216326945032 5.861097903705126 0.22974250702626864 -1.656621930630476 -1.0378119070959804 2.3725972850640753
Ni 8.245606944809223 8.839776267745831 11.553646215701159 -0.7849937905848416 0.24036832078356027 -1.0137584656912024
Ni 0.25005332769531424 4.946153558120398 5.807823858016565 -0.8689431370143035 -0.43488127379590263 -0.09828427499489525
Ni 8.20759165157718 8.723870007263704 2.499633941656104 -3.5386401341157123 1.382247170994484 0.8292090516494751
P 8.352846553337043 1.5022710972401332 3.7255304993388525 -0.3541157244110611 1.4896179816716797 -0.8795450808998659
P 1.705125203140306 3.0452164709820595 1.7330372674501149 0.7910258557115344 0.09909700070417772 0.14560568578867827
P 4.659890867809699 0.966998707479927 8.08026537557746 -0.6528344601090562 -0.4806440818533141 0.7374150123646138
P 8.708524134536232 1.7363070001193688 12.451896139364267 -0.2168237006944008 -0.21959072191657664 0.38075775247862165
P 6.299185816210156 7.837675351093898 1.4597827225962814 1.6507904115503633 -0.652196055194109 -1.3430064803263064
P 1.8613608890516993 3.462259393034689 6.072246585402407 1.0083324095796247 -0.42067130084410775 -2.055092527007828
P 6.596964717337627 4.131624399838735 6.0226243310713485 1.5854445391547016 -0.21966965478362815 -0.9013449503837767
P 2.320393966698661 8.404864615119344 10.383031099950209 -0.09534087609585516 0.7304884604481097 -0.19528042730598627
