# total energy = -340886.3092583855 ev
CRYSTAL
PRIMVEC
9.13279326487937 0.00000000000000 0.00000000000000

0.00000000000000 9.13279326487937 0.00000000000000

0.00000000000000 0.00000000000000 13.36676610004606

PRIMCOORD
 96 1
Ni 6.236172584919885 2.341310265303253 11.27474647066451 0.6168840101563763 -1.069674817242848 -0.1705636412855966
Ni 4.981984359186978 0.43936315551108585 6.094884620867555 -0.8380852710931824 0.24396477988556697 -0.9388254638277379
Ni 3.044325288111726 1.5844848249104693 4.934809829147942 -1.506084354757819 -0.8772465146736762 -0.4627875132878675
Ni 3.4466887584973334 4.504147485726566 4.406354449329579 0.730268888238136 -0.5738321732722247 1.0137682358832154
Ni 4.030292510105047 2.7268237322192315 2.5894363841462393 -0.7439762105218994 -0.9639826798196559 0.3362792104502724
Ni 5.21217641200649 4.6492127730499195 2.3863687271558867 -0.5556274773387399 1.2824400315971591 0.2924043634441932
Ni 5.5483453972170995 2.9062374547996446 0.41465438348556755 -1.1001580734333698 0.7104683085724409 -0.3871055490735204
Ni 5.708662449198599 8.241706575120492 12.44989950397131 0.5731557160304903 0.5166914623951746 -0.7747402311776335
Ni 1.7864017499565548 6.899322965373382 0.3843362498714063 1.5314336321558852 0.24875423085441029 -0.7210923639451903
Ni 0.7969476275162388 0.3179682416254475 0.4925854212127715 -0.779464119015864 0.22109173194213536 -0.7154518778299613
Ni 7.889043765375384 0.03322053529581329 7.054899184400364 -1.2230377783794422 -0.0003992923209476994 -0.6395436565374212
Ni 9.016751937964177 2.9076347721605407 1.3077968085873106 -0.5794952850952729 -1.417367925957017 0.6332601375215546
Ni 7.106180731545249 0.7670176376134377 4.794364821908753 0.601515498120106 1.7840131502936565 -0.138898963192464
Ni 1.3066013259563218 7.813789549337583 2.6025227635346577 -0.6594859039873029 -0.015953695115778974 -0.7224475924215042
Ni 8.018601569830755 4.211350135462985 3.538463284169938 0.2755600381933448 -0.0423974911296044 -0.2698344485634772
Ni 8.014610539198653 4.0866418442013135 12.683215885347439 -0.18410358475356034 -0.24482661366522995 -0.31775132684941404
Ni 8.672929672044868 7.566153861489892 9.029638309181328 -0.8892445675758169 -0.4857451505253054 0.4690257808880955
Ni 6.8970032358984295 0.9448605197619936 0.037015210873933 1.3683804403147208 0.31130608544470256 0.5469626025748903
Ni 2.2002360086120016 6.51741695177475 9.092595219163924 0.024328549443035523 0.8268364376522405 0.42308196716812946
Ni 0.32689372042808623 5.243867204439884 1.164751695121671 -0.37091376980500634 0.08460806305938333 0.5972724065730358
Ni 6.433249129565481 2.4312317472338587 6.612124930625914 0.8889198372465463 -0.7007297411284382 0.9118106258017911
Ni 3.746271774114808 4.740632033066714 0.34159843077304536 -0.21212809499094434 -0.9125860705152348 -0.32567598101312945
Ni 6.183047126826208 5.878523270082951 4.400793491544941 -0.15179458820820954 0.6360508128928142 0.10908393671356052
Ni 5.596329092734406 3.3244371886087403 8.773758448904351 -0.13018703724076286 -0.16566954641808887 0.501310094843098
P 0.3803260403735667 5.9678511204550055 12.016080867217086 -2.2227665054504557 -0.19875810144194156 1.4646366291359938
P 4.221405340785512 6.399293404416386 12.497285001533461 0.5280374835356132 -0.4551670206281322 -1.2386572300842538
P 2.8224349443187142 8.823492900879721 1.1119741964492378 -0.4476092628855324 -0.16130072792643188 0.8314222572507101
P 6.217870467330108 7.807277867779944 5.771542643718242 0.5753316406358866 0.5029874825455208 -0.5466455855551037
P 4.738257506832512 1.2107161300605846 12.579544069962159 0.029874418961929196 -0.5422770241737629 -0.4623295998148425
P 4.411641423317963 5.884012078801242 8.074115253348445 -0.5667040468678756 0.37451177156890986 -0.2994263032879811
P 4.883322794155865 1.2270912282833732 4.026925249249085 1.6595738141699483 0.08640166462469635 -1.6414128269902053
P 0.24983303789364952 6.042000268514583 3.512679582383782 0.4534667501075739 -0.065334559541752 -0.6759929005033907
Ni 0.7725247119181456 0.2050284676922116 4.744172816993639 -0.32235848660412225 0.0484840636433165 -4.8850960064431995e-05
Ni 1.8979496862048197 6.806296333751896 4.707774982940598 0.9347934598502095 0.7468131657500623 0.09855886881252057
Ni 6.445587533190125 5.773350023494199 9.041333764164097 -0.3229089597909536 0.0687034760139849 0.5189231799391708
Ni 0.15382089617231465 2.609741323286633 10.214708642633205 -1.1217021181527327 0.771621997263626 -0.24750981692434793
Ni 2.514869867437036 5.6901685429514455 6.854771373543818 0.2164915141659626 -0.14538534224775607 -0.6238087623006676
Ni 0.6523819039813886 0.4240465480211591 9.333732011364468 1.197034669447461 -0.010225020162117874 0.3217393649628846
Ni 1.9473033007033969 1.5017508512349302 11.492759030461205 -0.6939800811094305 -1.086541768201516 -0.05649382132167045
Ni 4.2794899055913875 6.984303606178204 1.3482523426628747 0.06782133051934772 0.9758400933788742 -0.045413138027476624
Ni 5.547970952695551 8.244044570181861 7.909436379330579 2.2952718717090344 -2.2087372810508996 0.7154184534888647
Ni 5.848759497016545 3.3449129109821323 4.519357239535954 -0.5702467699138114 -0.5471672623865286 -0.7201032605590437
Ni 0.6088285264495114 7.959302343528152 6.7642918779481755 -0.149160235909156 -1.4116230530534397 0.22653038645920343
Ni 5.555825154854837 4.8183612360640105 6.5218326572910446 -1.4245441319904824 -0.578007644806153 0.706673360306383
Ni 1.0874051561598093 8.01469273433753 11.669480405603762 0.015051237906167627 0.45545986927820264 -1.1430574439000574
Ni 5.262160189236451 0.20786785310072523 10.336801301919971 -0.24698376921754883 1.3891526398650655 0.36803387715405006
Ni 8.150734821970913 7.608411295665488 4.811421226504894 0.7830577499043933 -0.4873148090052704 -0.49934500069692717
Ni 7.335002865383491 6.389475651717278 6.869876100231308 1.7235575161107606 -0.24070256419452737 0.4923480005538036
Ni 2.5529170839435262 5.522262139813705 2.428501042064526 -1.4451728639844272 -0.022082176611020035 -0.5266657999990672
Ni 2.176454215097143 5.317495783286578 11.500511858615877 2.6104143001806914 -0.3074460882686641 -0.15373782797750943
Ni 1.2744630266557124 3.565460734173499 3.4787941797423922 0.6184526401950767 -0.3728536671401966 -0.5357356235108193
Ni 1.4772658326430197 1.1307311271407956 2.717837976981417 0.6735074150773755 0.5569140573606474 -0.6284490892861564
Ni 1.5057875458330745 3.9323433029441963 7.951180550527859 -0.6364773589072716 -1.290531550356042 0.09294795038364638
Ni 3.83938060087517 2.6664742346976547 7.033498310074953 0.5845747565007094 0.19335955613418956 0.5792664569139185
Ni 4.160562672430678 6.978084174003235 5.855725991675966 0.644706174574967 0.7737588411009706 -0.35165466446507826
Ni 8.617886327377413 7.4084853195388485 0.00021462064039906868 -1.1827352221056533 0.5696253342797287 0.8215728752604561
P 0.44340441650583423 6.093436159864691 7.721941048039991 -0.21448425392794673 -1.9560459199256122 0.2577122113786465
P 8.621758631697805 1.8663958856695522 7.887809011733599 0.39737402087906404 1.0724570079736757 -0.05925801433036892
P 2.2116154689497565 3.5175501010018597 10.040847658323544 -0.34111314150380606 -0.39716010509604505 0.6782079058768384
P 4.148215136012825 6.332852333824759 3.542313669786629 0.9207467519491561 1.1523218999211187 0.7045334311452448
P 7.110409214800772 4.022493104705013 10.30508128454831 0.8173794060043987 1.1951919598117673 -0.4344303023014131
P 6.680638231996543 7.745768505520891 10.019233076637054 0.0258562989414716 0.46293175217521565 -0.021828665839317245
P 2.445935544299497 8.598762258398875 6.11453382545558 1.8520370837421136 0.2030536434935019 -1.9813543167834136
P 7.032077247451716 4.3809552381375 1.4942710935971928 1.903997535969805 0.08220099627978747 -1.8678339415650542
Ni 2.7347783951038096 1.8650259666882818 0.5264635176195946 2.140427440930907 -2.7412474556458855 -1.5202300501305819
Ni 1.4053633517127273 1.1300461676501603 7.0556206750638335 0.27802675456628245 1.384794877117002 -0.0799260842026817
Ni 7.37335146406586 0.7542472528700327 9.292161363238149 -1.0579040498601653 0.6475511002229299 -0.5058825447051288
Ni 3.5348110801658703 1.6789361722724763 9.509731895843553 -1.1176783417053202 0.9704711157574769 0.1919030261933211
Ni 6.777190121796498 2.3038749459417303 2.280731534672144 -0.04974004753760466 -0.5509444700407736 1.3314858812812167
Ni 4.388334535049945 7.249757373575622 9.889281648794402 -0.0502817789736876 -0.7135811431698098 0.5448820658967777
Ni 7.423161718224862 6.286110698183804 11.429426762677743 0.6532041847436492 -0.5198865722937047 -1.3781190077587233
Ni 7.9152731474701135 4.016118415045501 7.87282483791646 0.8289095181311854 0.03737535532466466 0.29853927269733743
Ni 3.4213909213098685 8.359099499022179 12.15210103614677 -0.9007289140663326 0.8974962660616479 0.35570132373062613
Ni 0.35145362792430646 5.217720017484031 9.821378418010097 -1.259036307961238 -0.8727100602559035 0.4595546081728666
Ni 9.14055608269821 2.6851964607750203 5.443682673768699 -0.76365620544933 -1.5780418189327274 0.6483270591570061
Ni 3.8356270228664884 3.0028258757724338 11.629393836373819 -0.30832977642519804 0.4387171026022251 0.3093911278101768
Ni 1.3134965848287175 3.4868273846485636 12.905585700783897 -0.07964557684778542 0.47726642363033284 -1.9403231098737166
Ni 3.339241446399672 8.861512719006587 8.085115702768048 -1.014279628301995 -0.12656769532062073 -0.4353109051341535
Ni 6.021077039273975 8.360807331352163 3.5071451096994486 -0.9556011406241801 -1.289515964607334 -0.06814940328272778
Ni 3.5245092894267147 8.441687348006383 3.276034297883165 -0.2925357468157349 0.35930986701749085 0.9390429791551828
Ni 3.9240963906769473 4.8766010583544315 9.929622109675538 0.8034820791970162 -0.7547817857778356 -0.031726384569003424
Ni 5.6696654221984275 4.565912566195455 11.935265693394648 -0.7641609129998903 0.7771511546119713 -0.49756296909583986
Ni 8.257533705750774 8.869531311443623 2.6015601671304847 0.21153365594005505 0.8203181769177484 -0.4337916402761497
Ni 5.0400141272336025 0.48822816557300996 1.7285765564777997 -0.8885549977079601 0.9392435252017631 -0.9607613446688807
Ni 6.3007414329037745 6.294129290620841 0.051459636612450746 0.26169125063105253 -1.858829681183915 2.574836917296714
Ni 8.050301495057358 9.035793811803838 11.364665212757155 -0.07759717895918894 -0.3798316411199265 0.6108712283033931
Ni 0.6707936150896663 4.885167618383977 5.44139673562862 -0.6653606176005251 1.4019875868462048 0.7964897070395831
Ni 7.582446764573804 6.517992317746883 2.344356965117599 -0.32912485879367837 -0.768562898722328 0.08548095258263988
P 8.617146571127527 1.811589993625518 3.366193232437191 0.594845028078466 0.16303699389124826 0.576590195633336
P 2.2017063883185655 3.534619291508492 1.4412853672396062 -1.0473992936740995 2.1579250834950385 2.4725692321740387
P 5.132830704611293 1.1831259617777938 8.15400801505683 0.9846340375214204 1.397909045901457 0.7191874336129938
P 8.761545164546662 1.7605742107629987 12.307904661724644 0.5867625081806476 0.46923686845763707 0.7220938086265113
P 6.572432898062578 8.173137563711292 1.2307434322874407 0.6289044316560202 -0.3364753856214786 -0.03927745744338396
P 2.2942215835203768 3.379434869310153 5.828671918354512 -1.9651157434373643 0.688290229813505 0.40976725233709427
P 7.556326975997577 4.475196531255713 5.701113282332477 -0.5266328898786027 -0.7731386910184684 -0.07538937267459275
P 2.5368159695169923 8.568258729082581 10.0739430743524 -0.16517923704523166 0.6430922931206279 0.5528627701094092
