# total energy = -340863.11563112994 ev
CRYSTAL
PRIMVEC
9.35061738188262 0.00000000000000 0.00000000000000

0.00000000000000 9.35061738188262 0.00000000000000

0.00000000000000 0.00000000000000 13.68557371327581

PRIMCOORD
 96 1
Ni 1.837153196051389 8.713064220634879 5.5970298928409195 0.04352851941025406 1.2998700541481485 -0.9107539024025024
Ni 1.6109430607720379 5.2911403418143825 5.211575938660778 -2.417051401612392 0.18213206284948633 1.1927843788115393
Ni 8.143649025612913 5.736940375279095 10.547813372961881 -2.894533797908273 -0.757709758057908 0.4226929592598268
Ni 0.20666547486430056 8.583969597302094 8.355330171631474 -1.2448690153219206 0.8164291262759874 -0.5715436343483641
Ni 6.993326726828149 7.3763560659257035 8.375037532788664 -0.35772683880108713 -0.14169323810814954 1.3860596027620387
Ni 6.090309556096801 6.526712219110301 0.5379896401837183 -0.0855377739625043 0.6025364831854526 2.0164249352343013
Ni 9.064479122423426 3.3758533870661407 10.019605413603054 0.08719999215627564 -1.9585447750880658 -0.9610881318806802
Ni 8.867312004677874 6.387247761120407 1.9622784823129893 -0.5638696627428741 1.3021657921608605 0.8470892743640056
Ni 3.3468758238538925 0.6369883664674734 1.7795075750616538 0.2992684375538781 0.23902260538894315 -0.8372895146647643
Ni 5.232231452418717 0.18015740969798805 13.487789601710402 -0.02583084502017487 -0.19004103328391786 0.21811362315041788
Ni 6.279425792291613 1.417216970216582 1.8594450678480974 -0.9482300449710895 0.17895752177624663 -0.5762994038657946
Ni 5.323745944564014 5.300247843127298 3.905137602483611 -0.10702833973611244 1.0079603709521867 -1.206398112940232
Ni 7.217002844801749 3.4475165185468346 11.735106142681978 -0.555445957455553 -1.3247591040803441 -0.09646830483207902
Ni 1.6785854267860436 0.7619724584068713 11.98512762507975 -0.8311525485290912 -0.40474588786310295 0.19723626548077644
Ni 3.8376616774586916 7.801248118963638 0.8413620050157615 -0.4850573804296614 -0.2958933504340582 -0.9582146669876273
Ni 5.200785326222271 7.464223817298888 2.621088384523742 -1.1925447519969075 -1.1597181923851898 1.3029036987681497
Ni 1.6418468511613507 2.0515909040689713 6.911898745633821 1.4003014573930337 -0.17636122180398014 0.704430072798161
Ni 1.8075958945625485 6.418609731760575 1.7734446347625825 -0.14833542601501548 0.42121586049366805 0.2989308517088013
Ni 3.216556269646373 1.6354790807362003 4.010598540427896 -0.1407200755616028 -2.217481860012749 0.29877555707785963
Ni 6.8482799502717135 0.8391010257370517 11.788602894747132 1.3982774849844692 -0.7822334542308851 1.3895501324138004
Ni 1.7829570178073775 8.05901658784781 10.158281614549129 1.7457170829269353 0.14551389740582035 0.42975937918830504
Ni 8.649648333669578 1.6339736313405335 7.601063556994597 0.440664456136583 1.0894085482263496 -1.3688650932606232
Ni 3.0860777549436587 3.5861581222086625 5.030885543773019 0.5287694766056312 -0.6578211146903703 0.4460845987108898
Ni 7.507825746069044 7.548903008150814 12.479737881186583 -0.5589765963166309 0.461920794412198 -0.6604685796155465
P 6.045492047069275 5.1349382787422275 9.254855821838959 0.8836886707545942 1.041932099911941 0.7819125805563567
P 0.08947886274506833 6.4510189715455555 11.92526684283639 1.558274149387497 1.1413111506329119 1.224883316228613
P 6.504401646078864 5.394632974803463 5.574038594865354 -0.041977372873050284 -0.03700691624165239 2.563058179494231
P 7.158823303560508 2.7590866657108997 9.122694196010652 -0.3094536056169961 -0.6564957110107275 -0.20690798424258558
P 2.0544708942172036 9.04661944325744 0.3231002973474357 0.5631402407760172 2.0478502436231185 -0.9161645318951124
P 1.7408698890502532 4.1910869619805835 13.290238173591172 0.27221297609798284 2.0202301679130046 0.703980129744936
P 2.9689332206025663 1.8925462533180422 10.79112952764765 0.45273989924387836 0.19058842114695565 -1.9746139127357862
P 4.861114799843397 7.253442200670783 12.616278401126635 -0.9053299031734536 0.7570186455281543 -0.636913932224058
Ni 3.898132119954209 5.611819764326177 1.7099436571792657 1.2631284757527408 -1.6453957228973533 0.5833851070679824
Ni 6.17518510991338 0.594082123629228 7.3661227502821145 -0.07232024683096576 1.6949375383812226 1.221894408803618
Ni 8.139908778667158 2.7859977424856175 0.6793176762143357 -1.1153414660420276 0.9137330396354844 -0.7234613783979993
Ni 4.249902345202604 6.475816808795921 10.547156959622901 0.8869303176203436 0.9973769390093855 -0.39666825306129105
Ni 0.5103099426616475 1.4223224072975393 0.5550348805772669 2.0398001196251325 -0.7294528200947437 -1.1720515171395622
Ni 5.979224221807835 3.9180302337056334 0.6063819257103481 -0.7806506831247976 -0.11566621791676852 0.22434957675780073
Ni 7.926602495350667 0.7533549294438484 9.507108361539874 -0.9885724533438781 -0.7030946418161891 0.6834688971654617
Ni 4.905792049610458 3.171589150741016 3.1187095394219106 -0.4728415550897599 -0.5321849300450835 -0.5574172222493109
Ni 2.275641046737148 5.503548965863891 11.227644398069524 -2.610018093183537 -0.41196863086378727 0.6785159240355605
Ni 3.8064960697831753 5.11371237732506 12.944431772097786 0.3499173700589973 -0.09956417014858336 0.3944941282281077
Ni 4.3144309556342675 4.071716980706766 10.06701210857878 0.08937488832040737 -0.10606520449189476 0.23646178664030243
Ni 2.0108315629775904 3.566961304759567 9.416564463477002 0.017896934885078857 -0.400549076172936 -0.10489098167813549
Ni 7.854041704602991 0.04511205347450515 0.5972510478540202 -0.6068484802972451 -0.2202268128386788 -0.2146251503811852
Ni 1.104448169995062 1.0578446930509364 9.439829734541343 -0.27289791798014934 1.8935056352995454 1.4653439396156636
Ni 0.7645513586759703 2.060352432539406 4.610013321140037 0.11343141504897884 -0.4366188253122997 1.1726796376418642
Ni 0.4767169147183359 7.049795105091707 4.080354145966255 1.3468004001510998 1.0192526560365542 -0.09808398605863108
Ni 1.0631558437139106 8.93580527687204 2.103718725751979 -1.1494304373059365 -0.7220866095376596 1.3516929523567107
Ni 2.4473277321647338 9.204990849558133 8.205432294786393 0.20756310132808126 -0.7706195241410405 -1.7418771403555549
Ni 4.876945395041312 6.2060608484505995 7.849785303578719 -0.527453328897369 0.4000734220880981 -0.5575329218915689
Ni 9.08352632999469 3.786710163440124 3.365228280554983 -0.30378638002888975 -1.7135559248133587 -0.1879296433678699
Ni 0.4025403372900937 6.5487609748555355 9.271715920008692 0.2240994084202076 -1.8658040556192188 -0.23787537915837745
Ni 7.442305970196754 3.094670972301534 5.633652520810294 2.61912108392607 1.6020543797972409 -0.08544521424869801
Ni 2.9726267144615006 2.6559774080337584 12.902608330750336 1.1781892546061838 -1.7497915101066253 0.8144846009551069
Ni 9.109726759849716 8.889220501162642 11.111399393118884 -0.3025296248036532 -0.228846950407522 0.6834604125250293
P 2.9142788621077003 8.696008694562229 3.3067083768416774 0.6903350281576757 -0.816596247981471 2.1363226747339144
P 6.4597150456944386 8.615761696341023 10.297162594015484 -0.5662348205409409 -0.09603610239066686 0.17043842856164196
P 8.601735770294438 6.507936179442604 7.12703587983026 1.1493378775921304 -0.6849357115189751 -0.06905803113992623
P 2.5496515379832667 5.905831226114728 9.165557426009022 0.09411291722602501 0.02271903886407055 -0.6150531275952246
P 6.876546866564268 2.425381833210508 3.6538977346432575 0.9089674999260411 -0.26145830868464004 0.46439985208030987
P 0.27073309985989946 9.29465391946528 4.086073918608053 -1.0496412956307406 -0.13450134834540062 1.1684252332408844
P 8.836585876018486 1.7706890078252966 12.211828667770732 0.18858141801925588 0.09677606588048494 0.25532905585845056
P 7.877277988753503 8.817800485733423 7.061181351856327 0.35689251582524983 0.8823555537654675 -1.0521098117758914
Ni 5.442180864101393 2.127190645460074 5.443135562134297 0.0719914027366373 -0.9659557443856266 -2.04581058748527
Ni 2.9767596873365614 4.86244258750914 7.344773420715737 -0.1292113035910549 -1.0051254726065528 -0.5223792568085713
Ni 3.859046539371054 1.8129537983123445 8.632860235253549 -0.7556652168240534 0.07624760690982997 0.6588441566382459
Ni 2.31331468409828 7.795048659651047 12.496407226762086 1.5811148014310963 -2.4075002675888477 -2.201662633592305
Ni 4.50384641158474 8.464225591333701 8.84359042348615 1.543939992153012 -0.020556998215745238 -0.41573632543633565
Ni 8.686097040155975 1.4548158026387987 2.6367450582386787 -0.3320109220922217 -0.6486646450020829 0.7076079563055103
Ni 7.764023311235997 0.7004089287414563 5.237565044563366 -0.12765707173005758 0.49159955242355335 -0.19817291836243286
Ni 5.143213575109714 9.371562747287397 4.135698580022613 0.27671703461592345 0.2722505142041376 -0.29694390318575953
Ni 8.07733444726465 5.299490443120783 0.18900028853949277 0.029759490650619714 -0.9084936456134162 -1.8026747312589018
Ni 1.6455216437855564 2.5175508685713117 2.479456453428782 0.6382920435185072 -0.13161734192938623 -0.5236218709664208
Ni 7.619556272956154 8.008373644202267 4.139351866226881 -0.0013829963904556826 -0.9147049166304505 -0.10854786170443241
Ni 3.624710717602047 7.06104389778107 4.597627493379164 0.47169792840361985 1.8754567482176345 0.5124568554885368
Ni 0.6301633508532042 4.279440945456717 1.3753318147945282 0.058446317062350955 0.66514644470719 -0.9192629683147783
Ni 4.112999956370553 9.114177653715165 11.067824581139085 0.1459234741394132 -0.11699804935431463 0.5770234265160127
Ni 8.136392946538146 5.471953229789614 4.204386345057958 -1.3741116863715432 1.7200641582455216 1.424391665573018
Ni 4.020054819768505 0.6367143933786966 6.533602689046122 -0.913936413895542 -0.3785311771409481 -1.0607471757359153
Ni 6.216786006567556 5.48391266939867 12.227266537039341 -0.8987861885176649 -0.37479562135791583 -1.4703128535851646
Ni 5.936772418973499 7.9772080365267515 5.99630686467084 -0.6863606168909598 -0.9368565130268253 0.043246469393461
Ni 1.4281852443850127 6.909666753268941 7.139708771544219 1.0654412387774748 -0.3259354053221032 -0.49615169057061004
Ni 8.201043114995548 4.732637317256662 8.455686607556538 -0.6906507596258815 0.09541209565342278 -2.0672016515665366
Ni 5.911853023697396 3.7347020296593803 7.331512375169557 1.5443426269080693 1.4521531519570021 1.507723690133455
Ni 0.2861859301162923 7.907143860615369 13.651906962381513 -1.1553090075739005 -1.2098068815114649 0.17877343078989857
Ni 9.482928600097296 4.13179469727298 11.949955277863591 0.14392572698309405 1.101500189283561 2.0353821930630946
Ni 5.393856873562219 1.8522824949469736 10.426956643527127 0.28594780918557205 -0.05537667699809172 -1.4463298604070058
P 7.08229785105033 5.182654479152716 2.332637734881794 -0.6226566509740955 -0.42166991731195125 -1.1862121249106603
P 4.1384429862190615 2.8982799557972267 6.798541211325308 -3.168255497341298 0.22209086263061106 0.9146491236918506
P 3.07615674992004 5.290897225762907 3.7732359238180364 0.08741390793929461 -1.1623833979221787 -3.0854160961465635
P 4.925334839902035 3.0068032209283504 12.081337062203707 1.5189298432619194 1.8391306600930908 1.1255906545738614
P 4.25611115513256 2.3640604845348308 1.1719568221807568 1.271932704307932 1.6149381777384444 -0.8060758080661214
P 3.5867659123373477 7.85912844044922 6.612909950222204 0.7055960680818042 -0.44064183042876365 1.9462410180200482
P 6.779431354617701 8.636445261951057 2.322920573316719 1.0264365753795033 1.4205182986605407 -1.0591533488862337
P 0.22228942141846175 3.539601398351359 6.418725679415894 -0.3778788882689299 0.31578263315881744 -0.35326340371309484
