# total energy = -340873.748717475 ev
CRYSTAL
PRIMVEC
9.21747797291978 0.00000000000000 0.00000000000000

0.00000000000000 9.21747797291978 0.00000000000000

0.00000000000000 0.00000000000000 13.49071073032116

PRIMCOORD
 96 1
Ni 1.1820862443103097 1.9404265915538286 11.33217019628575 0.44471857160129863 0.07912904222268308 -0.07645818025873928
Ni 0.03878346029100823 1.6831852164702992 13.365220458679548 0.8418421670324533 2.3437358807476927 0.9956949233212725
Ni 3.9567683316381124 6.8040933628183335 8.353340328708109 -0.5155882020286668 1.6267454547860178 -1.7569188651800258
Ni 8.409400107951356 0.6737801261284696 6.586084339202771 -0.027173732201314492 0.23807438254306096 -0.12363689482707094
Ni 0.7235194807302233 2.4911155951725177 2.1388171350659158 0.28823223434437456 0.30296208435538147 -0.2528685101331
Ni 0.36474574235229484 6.870320942006206 11.528027776852698 -0.4013162933562637 -1.4470461697477401 -0.0047020334613596445
Ni 1.2722700487325993 5.5890177648666315 6.41831333574694 -1.4132348776252501 0.8520111371456552 -0.3175050151665629
Ni 6.326194782699524 9.025099983666365 1.8641869877989594 0.5156087708539572 0.10551627396696023 0.8034232009346227
Ni 3.2107517524355385 3.4570243287391693 2.0679642254345527 -0.502515942225741 -0.13027522607919498 -0.6918437514927182
Ni 7.102315644940036 2.676460642118899 7.759924627724428 -0.5630589939161207 -0.7801783714740692 0.1661840241606622
Ni 4.017824905686891 1.7511364640378706 4.832426894941117 0.04837504886927797 0.2304024678201 1.691236692490868
Ni 3.729290192907769 8.946336634444323 6.842367096577805 -0.7766621307906947 0.6199917025474226 0.9609240954989903
Ni 6.41224915699291 3.326514058214313 4.6102349798244475 -0.011286371547096693 0.6807558691096728 0.6604315557300239
Ni 1.8780887880677346 5.231637709157209 4.012920285661022 -1.6699268752694985 0.5931306164905205 -0.586701573035725
Ni 4.300368257787916 8.385287185591512 4.553573299270002 -0.7148232431070269 -0.23611391638258045 -0.6474667680392397
Ni 5.673053511485398 7.534163705139207 6.437551134010406 -0.9119504938137648 0.7696016243994874 1.371543668534051
Ni 1.3106792794181754 0.42710751128110114 3.367834168441647 1.5945876391065505 0.09996706201395686 -1.161388123888445
Ni 7.671559431704891 3.828617735472629 2.597231810259558 1.7182749275555826 0.15171565534115805 -1.2689764498930856
Ni 8.547855844483163 8.686053491631915 8.952948331389551 -0.8828008688330022 0.3522524459500772 -0.619746676416152
Ni 8.6149959539897 6.201021431917155 9.548427825689886 -0.3264889638327281 -0.2315160125992529 -0.958808334707568
Ni 4.403511836230825 8.094402015930983 0.899690371856745 -0.8849909345057855 -1.0795128863791925 -0.06552225007252586
Ni 1.851367319443428 0.9660193433022473 5.594975020876253 -0.2226747601585391 1.3498083337394882 -1.2407115415101213
Ni 7.864518115451436 6.343283986849046 2.6450161377846593 -0.6923548868011817 0.2965852342947602 -0.4070691366796409
Ni 5.030963996352869 1.1335101354279034 8.4774684174891 -1.2483636587387403 -0.23125504562838237 -1.0396386758920741
P 5.6284962229963 0.8718821625802115 3.887631716404075 1.8323691729995408 -1.4042118481910333 -2.1091841666459095
P 8.424350857212696 4.726759571031036 5.268473516353938 -0.8332585391285006 0.6291543428832971 1.4706049309042866
P 2.1082768653201707 7.723380092831435 12.18221984055498 1.6088217804280616 -0.12586886948138323 1.3797627140097335
P 3.0875417244599923 7.903434307425159 2.7470997062614435 0.309363359896035 -0.8829227391228471 0.26884560228764665
P 0.8343614967705865 5.125341753249826 2.042466837884171 -1.0211313611165058 -1.8672919530186551 -0.4731932820022237
P 8.61046095483028 0.6943701284095928 10.67328367105523 -0.008647391262352849 -0.7061676243145579 2.7344486875564975
P 4.637774038744365 4.092735349119019 0.5552534987076013 -0.41161973216480074 -0.20356889256702362 -1.1098269639817016
P 3.661698426980884 6.8034112694488265 6.101025622199739 -0.5300956516162226 -0.3869718517091335 -0.39203795337813124
Ni 7.40128454277701 7.944912958273514 11.06374525518571 1.3499839400854041 -0.8074009546354481 2.186747149933053
Ni 1.817778829734227 7.74230357509625 5.160345125826853 0.4176852216325903 -0.1162071780219031 -0.2596384818670819
Ni 6.664918663005154 3.2360537294530345 13.41162861674428 0.0870009887715921 1.4232994609501035 -0.22486354027974176
Ni 0.1650417082300099 8.653663274058333 13.110960937718119 -0.9176136056368132 -1.144162761149094 -1.2250375824182902
Ni 2.918640658205492 2.233957177390685 7.484309132062875 0.4387045041967348 -0.2909378062009957 0.44437790043242825
Ni 0.9767116177431565 7.095632973414469 2.698965114573623 0.00941075179093863 1.1819435794422934 0.8578560259622064
Ni 8.169524461356337 4.742438501051714 7.581415262437855 1.9673636589312762 0.3554041042051815 -0.9048082263420287
Ni 7.701073796152985 7.132972976655955 7.385395454258702 -0.26806475825756415 -0.1914152879236252 -0.19554267982843743
Ni 8.743201855022981 9.203762359087179 1.8589385558449476 -0.5958379881193544 -0.30244272151680174 0.0033462907644135915
Ni 5.548221207387784 2.631285782606058 2.3900413405330436 0.3478761712592525 0.27577369686604764 0.13813945931862015
Ni 7.992088010505042 1.7159164807286342 3.6997196018440786 -1.3569937957443339 -2.9294210967037615 -0.5022130662733415
Ni 3.973110920072364 4.660034248032983 4.357094460688126 2.289172700789832 -0.7118731593397675 0.7761898191399665
Ni 6.078465844877217 5.710301339947221 0.3311858268247895 0.34892055336336686 1.0555931423388014 -0.08799189192995167
Ni 0.46077342780521907 4.295289427428484 10.769607237550872 1.0881247964179195 0.4339374218253946 -0.32129122168187246
Ni 3.2463680872973253 0.6494939151828597 12.165585979816994 -1.6344145412955011 -3.6881490116135387 1.7807799880683397
Ni 7.5387355742104925 5.473237024131925 11.716453304935417 -0.5585045417762188 -0.030086020752103024 -0.6671940712648381
Ni 6.748346056078145 8.041447605014584 4.497829679521 0.6180127244441808 1.5910351458686018 -1.1775835027013848
Ni 1.2771737470106712 0.1661588665595256 7.49634254954788 1.298959369408421 -1.6439039688431754 3.0986140828940765
Ni 6.250786595457215 5.692705174509553 5.271589945654344 0.9259977159354503 -0.7247230187192422 -0.8553592276822817
Ni 3.453890386230627 1.7119437477251587 10.17897060617403 -0.26785547046023545 -0.12942779047723516 -1.5005873361989899
Ni 4.688507037470887 3.3543600591505083 8.883848586067378 0.1260295634289636 0.42373039938540574 -1.0268788051232445
Ni 1.3404793856832269 8.74492552340268 10.3146196206651 0.40364005639343387 0.3458406288864625 0.24401543061784425
Ni 2.2158724856208023 3.447475021566081 5.552034478022442 -0.43387108736383345 -0.636728298575813 0.41071290407981526
Ni 3.3367178063230085 4.876396108335967 7.030211923548648 2.0661058473991964 -0.6028095343411812 0.6223897704659539
P 7.372940798030636 7.620319471690223 0.4894250363156692 0.2611232939427245 0.7461235958822054 0.4389811548968891
P 2.2530926616487257 1.740748366369849 0.4673611593077344 -0.20732141763092035 -0.13730025124677644 -0.0868876031221794
P 8.716498821354607 3.9643543160043784 12.680782162778645 0.8923813134325858 -0.48215460496056967 0.941770919609307
P 0.5860970234784378 2.281712930734091 7.241989010311193 0.44235907023018656 0.41400802989131924 -1.1467672886514766
P 7.025165354362097 4.17287210255804 9.432705155066365 0.526981274356957 0.5168416148197936 -0.785398482222428
P 2.4355065506018234 2.373122659725898 3.657035304877732 -2.055005880831293 -0.17619075766438685 0.27781335300389576
P 0.5891719741279958 7.254192029390779 7.746137124182436 0.3239993646416549 -0.8428006742909807 0.31636858756927444
P 9.127174334665185 9.060854580697647 4.7021876182684705 -1.5560308618792749 -1.0780555851073756 0.5567911586295379
Ni 3.9587500894008674 0.7515489094779482 2.3291709595391845 -1.6416815072705597 0.2167375687384977 1.7041693413921362
Ni 0.18686593081082087 3.2182916494119724 4.340407138577935 1.440008031954036 0.25060542513053613 0.09636443226436309
Ni 5.394455239953951 8.711834777503658 12.389639825482858 0.4518829505602217 -1.443860315820591 -0.7226424820411296
Ni 7.8522219998443905 2.8208616519389706 10.965047266365946 -0.739534886921094 -0.6549851879034719 1.473348812198011
Ni 2.2918705914529545 6.157376673746721 0.7177972704087436 -0.6294163382954321 1.3386178643403075 -0.8424528040332588
Ni 1.6014446218651417 3.914598369942285 0.1488309297306763 -1.1499847671475099 0.16019643911865958 -0.25379025061642096
Ni 3.7499281260743174 7.711830592939659 10.53586766603802 0.028721279194092467 -0.3601806996582184 1.9967480256306644
Ni 1.1695873441880056 4.088624353946049 8.333805727654127 0.9063956254338067 -0.04835859380904575 0.5522199943190876
Ni 5.141582949426447 1.3380644064560558 0.5052099673329596 -1.018224471882356 0.5831341673994408 -1.9380669668496882
Ni 6.0792216780704535 7.034309092504667 9.47055949357837 0.45718276550658044 0.4115271724509945 -1.218862306845514
Ni 5.973561728142745 5.164414642348976 7.709253386100282 -1.8813612866275278 0.24869380993012008 -0.08856010572859586
Ni 7.175898771545018 1.0181718336355785 12.817861729850083 -0.131536866400438 -1.7406106149383058 -1.8989170361231038
Ni 8.656446952404156 6.809319672825226 5.111616928558003 0.7505824029845073 0.288908948696425 -0.5984610275644984
Ni 3.4316670468538755 5.529325377556867 12.137942763396056 0.173807602144191 -0.16622130515650083 0.25584379071134
Ni 3.4039040032193766 2.8431679486174195 12.202833808278818 0.1901356498802532 3.6978127599555473 1.335489603123971
Ni 1.8249223751581103 8.734039681924477 1.2037519262701004 1.4788548296179047 1.2323940227833614 -1.6449036137522832
Ni 5.748876485236192 3.8099062552010383 11.071407744619094 -1.4168354504923149 -0.5408562325668362 1.3139501863902985
Ni 1.999842454524605 6.026884838177797 9.871247869512462 -0.0208066523327061 -0.09521257804810698 -0.6933828138450638
Ni 6.330407170130123 1.350130085113944 5.806765933855749 -1.10630918063643 -0.792202906738771 1.1219492011665324
Ni 4.07102818850838 5.702982662441978 2.0438835642475914 0.9171281813599623 0.6489873184488243 0.8130866921663158
Ni 6.480357101685908 0.5575486507212102 10.153756195197214 -0.41670048912181784 1.238371837633351 0.09268775474372423
Ni 9.184709832130835 2.140445863422561 9.304799743814787 0.7304329246198259 0.18186209701755132 -2.345818217198018
Ni 8.882265945100565 6.064556670626069 0.21497278637346262 0.36673649849886514 -0.5601032537219063 0.8255902239499653
Ni 4.483261455595262 5.379854754855329 9.931887813557163 -0.8782132494623198 -0.2402081410566121 0.4423945514538123
P 3.09482353205337 -0.13375666626458757 9.108158677620704 0.4896090043560858 0.5840481945732781 -2.8885241013790837
P 4.914058723306273 3.2929716558949433 6.223480738729845 -0.38598917608089006 0.5844911956479676 1.5404615466861085
P 6.5494789689552 9.243286904606677 7.650055977357307 1.1697588644506436 -1.0828229245890317 0.39386857882896686
P 5.146339168057059 1.653781461757799 11.711946879957694 1.975034545212973 -0.5176743951337343 -0.16855766659916133
P 5.941908908806467 4.915146385706296 3.1424318057493146 -0.85653550737857 1.4904980702837878 -0.15378076540030292
P 5.538542855523168 6.4214205475693795 11.561714893576138 -0.27907370777355806 0.7385820360895216 0.6628129114780069
P 2.769123948114123 3.798319885397398 10.129729917130256 -0.586077566298481 1.0746956674962072 -0.015454386881857258
P 7.496731527118058 1.8304067745480594 1.3389151796723455 0.6014604765124545 -0.4328452172024803 1.5254437331210373
