# total energy = -340886.61788214603 ev
CRYSTAL
PRIMVEC
9.11148681962361 0.00000000000000 0.00000000000000

0.00000000000000 9.11148681962361 0.00000000000000

0.00000000000000 0.00000000000000 13.33558196372626

PRIMCOORD
 96 1
Ni 6.620943993079322 2.0529182354098623 11.153440418549478 -0.21006658447622534 0.7346631606510896 1.336317498341905
Ni 4.763512710107284 0.2013729730052832 5.765932080652488 -0.1695855936430434 0.5325135170290959 -0.3505313494939124
Ni 3.33202521891168 1.9317081245601595 4.774178616726894 -1.0908936174123085 -0.4871965382598512 -0.41308654651831433
Ni 3.6593098300310762 4.573820663367453 4.711247398684593 -0.5123678953191564 0.57239929748044 -0.38939305955611647
Ni 3.812938611436537 2.974526917077587 2.413087114067984 0.2528697956846806 -0.046892293676164404 0.2808215437026002
Ni 5.104756119228765 5.027344926131038 2.138480564729957 1.0905586026703928 -0.5810762564291476 1.1398924159085142
Ni 5.682807074090589 3.2955883826125025 13.640566564396279 0.206872760129276 -0.41687840946057886 -0.38317098990580456
Ni 5.891113888662183 8.093460509995156 12.633556826727412 0.18680761394828474 1.5876772851399625 -1.1040327258974276
Ni 1.6124780679014967 6.921285937297826 0.39910864042151123 2.0621640891426294 -0.4553176872733835 -0.21256723941089198
Ni 0.6525738065975019 -0.008472771711579244 0.2347911736790752 -0.8198108982640269 1.3021611641751702 -0.18922985023653216
Ni 8.043757348701828 0.15099373938052363 7.038159891509674 0.46857275251107694 -0.2092235197496397 -0.1566269765998464
Ni 8.912984091913946 2.351428770752113 1.2479702991594372 1.604331605867192 1.8802348863325684 -0.2770314805325487
Ni 6.983982078976906 0.9973980300889702 4.928751348180015 -0.22503888951534146 0.26067437933076393 -0.5978023109345769
Ni 1.1376238141960835 7.844990260963252 2.7246325426359417 -0.09621685094290526 -0.1349245519257483 0.16426186743728485
Ni 7.731953153904588 4.163156835200351 3.6176630454958723 1.5078653579176418 1.3145058017834523 1.0699874633872604
Ni 7.98651898770372 3.715318140291403 12.558864501334531 -0.7678141934817615 0.8471653790175797 -0.6941772847219013
Ni 8.645434389216007 7.597066701148142 9.184788859015915 -1.7858424901929115 -1.3562453476140837 0.10920760677561839
Ni 6.914926119409147 1.0353838191690583 0.24035100301384849 2.8994327778717874 0.38554617500620053 -0.9885236023838138
Ni 2.166456474250586 6.946943884539257 9.165412370875423 0.2844198025768198 -0.6614119173654222 -0.6065294063949296
Ni 0.3474610878137945 4.965423260842412 0.9865681167043234 0.30688121690412956 0.1427856998413799 0.9196352640525324
Ni 6.228885821257036 2.617402186208302 6.935303048816369 0.3784298756763934 -1.301700422488668 0.2811313616335352
Ni 3.7300787491447833 4.4729747258432475 0.05845201105938613 -0.9022746612868977 1.5950830906857303 0.6849046011707237
Ni 6.26360058652332 5.795060593271853 4.4782484544878995 -1.5082502520608865 0.6350146583188161 2.0765203578643012
Ni 4.888121405588043 2.943456746589916 9.388250184829342 1.4973683150410602 -1.0805127883986165 -0.07523022138890914
P 0.35819715288289206 5.8738111749507205 12.102334359027285 1.6061971983210208 -1.7003075444438847 0.9116185643956428
P 4.357431959874287 6.4571832381893195 12.448659244418847 -2.2630955440868057 1.2022339542602136 0.656350957902747
P 2.560364277923017 8.804347833050455 1.0933173866211867 1.1268798056989302 -1.5086950529077887 1.6097733457080534
P 6.430213236827587 7.905681875514096 5.86825590135942 0.5726916319098783 0.8641449442947118 -1.396024941504867
P 5.02090310485984 1.3738208903110083 12.652480473966664 -0.529018873612276 -0.844040974455985 -0.9040975734282495
P 4.21120170586941 6.511378362547286 8.131010769999198 0.07994485325575909 -0.2002208020303971 -1.3810438947150023
P 5.090569534053017 1.5166161137370433 3.3824108305773026 0.46807781515252933 -1.4211081097257396 1.3139044207540276
P 0.4713062406884341 5.808563816926612 3.4537155051234656 -0.3661371743519694 -0.04218100424342413 0.02388374859613306
Ni 0.35142367348684084 0.45376662831636183 4.794461697818567 1.3066325696829624 0.5641956786237251 -0.013574910470957267
Ni 1.9643728052634735 6.525246045679906 4.943113785053831 0.4858312824812085 0.8615661278239419 -1.0939437170925417
Ni 6.7672289160058785 5.9178196569024655 9.170225969429273 -1.196726908399055 -0.31687432356109946 -1.4702722301552162
Ni 0.14546853369614718 2.586887816424369 10.23496608839136 -0.21989899718561484 0.09450706734065013 -0.03555527139679038
Ni 2.538678938990273 5.318894285446138 6.959093141233762 -0.3894748206366454 0.9634142089106956 0.7485823418353431
Ni 0.998354736218356 0.005301974254186431 8.94097457981369 0.5107822959995912 2.005658954967049 0.6103490372513359
Ni 1.9114988465127536 1.1911720229808465 11.547333643842796 -1.7550136777375127 0.4392938010413015 -1.953649137558661
Ni 4.44144898100825 7.142649512663798 1.3883008653664357 -0.9978965589582814 1.208679452775241 -0.31772253049400767
Ni 5.977645680193389 8.165186135238248 8.136878567592765 -0.7303419075679163 -0.8018676835220448 -0.26445338675722196
Ni 5.472422840495187 3.2179767368019507 4.63036746250632 1.4171288133630175 -0.1283139885877661 -0.021834065155955946
Ni 1.0705541587826684 7.8540106330403185 6.806654320023518 -0.03818550993078585 -0.2828642851642419 -0.5109201071290362
Ni 5.0233540948484565 4.688588952945959 6.783903848266725 0.9376646107504174 1.7375594868168076 0.619588810682049
Ni 1.1341887836172413 7.748745624347045 11.378425809976697 -0.39525748875669353 0.42739190739739297 -0.147520643423204
Ni 4.912849981160928 0.2306982937426935 10.267157882922149 0.4871016645531998 0.36755462352478635 0.679580617854649
Ni 8.50734980454133 7.488129763215416 4.594361599539713 -0.4291358866716932 -0.6021510748215758 0.3474298277504533
Ni 7.713757514472366 6.5676691289029545 6.822363434668032 0.4366851597738608 -1.0345908290555215 0.8808997951555475
Ni 2.616263250339985 5.471830593843663 2.551603583223928 -0.7890286227758476 0.7810240073038163 -0.2920089277779875
Ni 2.592063141009999 5.651764238063758 11.268060190890756 -0.4575483763761153 -0.3174631061850339 1.367113400676839
Ni 1.3943946278362755 3.4520781709191737 3.467904823745298 -0.685513181289 0.25223139076973333 0.5234665763354792
Ni 1.6794474969585003 1.1751449174418984 2.3977643264700026 -0.43793882967530384 0.4294037956210992 1.6710851572436574
Ni 1.4163715343513086 3.362439362339201 7.945073567030034 0.10159097077062502 0.323727599037507 1.1079395171510016
Ni 3.732192614116378 2.9039311162158645 7.083847620505665 -0.5945220975214084 -1.3737262780076664 0.3979972562853597
Ni 4.341249959057248 6.876830992485701 5.927746621930711 -0.10503547767579974 0.5748619000883196 -0.11295010453718611
Ni 8.442640024247066 7.265973488485097 13.408927965200704 -1.8791794484848605 -0.09596025484740892 0.19578179242243704
P 0.521395729028294 6.053107015084559 7.9617557884804375 -0.01693020009643536 -1.1021470788389405 -0.8578511408662001
P 8.846661578430146 1.8841734971601067 8.163936950377877 0.3358644915103571 -2.0557355599084657 0.08685109345728914
P 2.3533604059847777 3.4224931728037875 10.20137385831689 -1.944098003535116 -0.8602042144794089 0.39311061761701976
P 4.223766446368677 6.519214241321302 3.7161463744548424 0.3655298797852737 -0.2854528718270245 -1.2007064618720935
P 6.956365162041971 3.966640284737569 10.105464524420315 -0.28517262158244433 -0.23211559385646477 1.2075607657897653
P 6.7339719886510405 7.881071749271515 10.276413331362434 -0.3812084668627951 0.9620055014886271 0.2878884778517106
P 2.618604902485244 8.717260240815511 5.151041561768449 -1.2080348772127065 0.4137565760021455 0.9196869432260741
P 7.376869396111325 4.447417004958228 1.240907985627181 -1.195311001888135 -0.0639685324321608 0.6480354960585162
Ni 2.5567925750399767 1.6144461490819475 0.2849690434423165 1.542376504320634 2.2006413914166423 0.4633220456350988
Ni 1.6935794132125699 1.0812783789187352 6.971041945215442 0.015355913630780007 1.093396329229504 -1.5490667718566162
Ni 6.862316393779876 1.1693864576916908 9.04779218588265 0.49586526967844274 0.006790026338639918 -0.9696504196283945
Ni 2.9185186068172606 1.424252970560058 9.20013806992604 0.2932163178225273 1.8282212122694383 -0.39086861566037845
Ni 6.827155165653213 2.5756715759931894 2.2991743931137574 -1.6600132157002119 -1.1720029232898137 0.46045757960311023
Ni 4.493794473516071 6.820476445721405 10.237112754715962 1.0298461152816845 1.5987206874383175 0.4142767101716736
Ni 7.5680283922495475 6.094345605004559 11.284769746801999 -0.8761728219935233 -0.17726702144770115 0.9706505787581348
Ni 8.03303312856576 3.8312253657382245 8.243643327037438 -0.15873553830241696 1.3848732957634213 -0.7456345720609288
Ni 3.372653339206262 8.599348488240453 12.333572963945908 1.5112221902050167 -0.8399161536543343 1.1164730085433094
Ni 0.43116831839157543 5.164272351963507 9.991298504128974 0.045431135749605625 -0.5622313558085027 -0.2347152362628409
Ni -0.13142044312198556 2.619233595084555 6.080585437417907 -0.6027290588122329 -0.32335221797595926 -0.8273974523620332
Ni 3.8029433102561923 2.8879222336508095 11.7028803932505 -0.15900524702403585 -0.936384458486413 -0.4567137962899618
Ni 1.2897309772814733 3.628221436569512 12.35022967323286 0.7609606608950379 0.13199606542504363 0.056160863462283925
Ni 3.3242986779810217 8.675994316434673 7.75472093748658 0.09795568801088292 -1.8709938273502746 -0.36911142648894496
Ni 6.037726825118814 8.20289857970994 3.5186066040079647 -0.14123018242880195 0.24643381025134978 0.1694462398517017
Ni 3.653852049350104 8.74626210376632 3.120419134916748 -0.8338959156021832 0.05896413723903393 1.06710319986093
Ni 3.6414148696680892 4.791375637189776 9.30452928702114 0.2386672789320535 0.31396203501031095 -1.2701298467712383
Ni 5.214139520021871 4.771476149698551 11.622507055746455 1.6793887920133463 -1.3217282876738206 -2.8314252994835623
Ni 8.23304849001601 0.47595856592333285 2.3083760837810594 0.5236858914351368 -1.1468374797677798 1.5706457835789724
Ni 5.066934336913715 0.6440217649494878 1.4206931126100482 -1.2868443313124418 -0.6184582966220317 0.19604841582026236
Ni 6.115283802007688 6.00651087084 0.07251468001266219 2.5714083512311396 -1.9714740815552243 2.040120736189345
Ni 8.356235793533111 0.2371446707573642 10.97418375780951 -0.12322140455620714 -0.1295997972787252 0.35590084133594185
Ni 0.19154805663083874 4.9696874367333885 5.732140309013888 -0.08685315033981816 0.5494951391887568 -0.12076291571338557
Ni 7.413215117541038 6.342014043185166 2.656328280741272 1.4163235438529025 -0.09678635029313008 -2.559783622508017
P 8.553317256186578 2.2377811940680314 3.7892259666581896 0.7070777948336533 -1.7729175546011275 -0.35398202704667425
P 2.216551429482614 3.747609250029909 1.2853337736810773 -2.11707128270347 -1.3016505430873389 -0.5720370290450149
P 4.844568497983625 0.9987738646178965 7.890811017668662 0.9721708720574032 2.173970052773043 0.825975889424158
P 8.886305658134502 1.7296882359816725 12.54747605380006 0.34360993978373083 -0.13135663206883183 -1.7816857877120607
P 6.93705792120227 8.14038466776979 1.442310115390693 -1.3952484683501583 -0.23391742295189394 -0.8880952844627221
P 2.032453835727954 3.56432257861349 5.756517181190636 -0.4237864494343218 -0.8650417450773682 0.03199943572473198
P 7.071999042880396 4.424273828114039 6.075091210789149 0.6641141467879337 0.00474291400162409 -0.41876122830558854
P 2.8164699530161124 8.70237207114488 10.258502881471639 -0.6511809836660334 -0.3825572675812056 -0.25785645026599463
