# total energy = -381170.94454300584 ev
CRYSTAL
PRIMVEC
9.20465169250471 0.00000000000000 0.00000000000000

0.00000000000000 9.20465169250471 0.00000000000000

0.00000000000000 0.00000000000000 13.47193817242746

PRIMCOORD
 96 1
Ni 3.186254642444989 4.685278206305835 1.4326736725134621 0.40151683940284394 -0.8997138425382569 0.1343188000209493
Ni 6.322472797873015 5.486874510271852 1.4838533772801505 -1.3930753719582396 0.27916883859052566 -0.016361986297791176
Ni 8.34419171709539 5.447432577441151 2.677709598248135 -0.02231074768205835 -1.2297385874383853 1.0185864832074651
Ni 8.263743060633239 3.8011069713189984 11.589989410904495 0.6730551580313053 -0.3892089685697684 -0.6954260695273378
Ni 8.753053144028152 5.501914911262602 5.705419636761008 3.2075357829981597 0.940521106362606 -1.1200627827770968
Ni 6.887343867640675 3.259735377517914 2.0241590724063707 0.7490081165188519 0.662983118507284 0.0892537893615108
Ni 5.83569399371461 1.658300858073784 8.37272889897521 -0.139192840283799 -0.09068589382234704 1.638095075470882
Ni 8.293299197463899 5.899380979305186 7.947931458434561 -0.024644280911241427 1.6030673944427876 0.16697566682402212
Ni 6.675563239736649 0.1607169017496295 10.773454877582365 0.2537092608668404 -0.7533679361494444 0.22452595443466491
Ni 5.442590930610591 5.571796627493797 8.78334013020928 -0.37916546829083736 0.5006948298566022 0.39474095413159116
Ni 1.1817760359861846 0.623910626680005 7.9846966785308 -0.2884034698149162 0.973054560213937 -1.3381239554230244
Ni 6.258297965738676 2.4558563199131545 10.705839346616727 0.4116711542280265 0.6034294273133672 0.5114479546080481
Ni 2.417003484795678 2.8982871118479148 3.1950588918621574 0.21426133928386323 -0.21903099275836474 0.1665612049944228
Ni 1.5592588050379992 5.310706680062569 3.250967026242645 0.4606532405536841 0.3782254729750712 -0.25809350597746517
Ni 0.26390657087258174 2.423999020140213 13.27105797512921 -0.6149117169213539 0.41954361499756776 -1.1715285547565566
Ni 5.607317378670851 7.119742915507543 11.521107319855425 1.0024273569490993 -0.7587968204744997 -1.902576744362878
Ni 0.3467880167973137 7.361935712856759 3.7626177199464026 -0.36680386140169086 0.4484762388715179 0.5808533417850642
Ni 7.863101387730306 1.1997066976324402 7.395339394126913 2.2894696632049603 0.16342908712334434 0.660573737734843
Ni 8.470267832377095 7.97024353432292 6.296892150141439 0.9846859738052783 -0.020574481717241987 1.037976971918935
Ni 3.6883407824954486 0.11536098015726622 0.7591076313997356 -0.01344866930573813 0.10818970703406527 0.20819173605101562
Ni 9.151181946998115 2.7547589768119494 2.4560017534111065 0.30492229340554583 0.8475692993242178 1.148567317974693
Ni 1.870283988316732 0.38163314653451313 12.486910929521924 0.8529231074369632 2.2083379887299515 1.2232645496782677
Ni 8.999811448654855 0.8922998629641506 11.094181763825757 -0.3879930938847963 0.7122765654257732 0.6577779201572608
Ni 1.595396267883584 9.016343003232203 10.355865599842119 0.9513968727348453 -0.7451460624602845 -1.7030149160727188
P 7.346536330447012 1.2737397118115121 12.531677753401063 -1.8329440716664045 2.984809343666079 -0.39758870799303137
Ni 4.283191403075149 0.6068553274169933 10.012061731148357 -0.31704273081816364 -0.9732273383463754 1.6510068984365438
P 3.1816339072568884 7.678106296474432 9.733165384869755 0.6345094365476234 1.433037514173474 -0.4219907909864797
Ni 5.356380162140967 3.8789507113304884 3.608256630243354 0.9147468256119793 0.46879900958927007 1.6083618100725074
P 2.7585328840372902 1.923339601113968 10.993424884165384 -0.32578808111096147 -0.4989274535435343 0.48103283265130053
P 7.820419417476874 3.827367842816312 4.329867271731205 -0.09200384130282219 0.619498822071404 -0.9788475127466303
P 4.318859428680509 0.3180704237428207 5.804573066083199 -0.36545480357296417 0.819789300997472 0.6865205395075918
Ni 3.8445989509281135 6.430047563098778 7.3174855289984775 -0.7751194688939231 -2.1411208674535063 -0.3326570403166529
Ni 5.564810296801032 8.170371073087235 9.106329519857523 -1.248173139994489 -1.69014937296396 0.15835141549012086
Ni 8.433679341594823 4.599822219281279 0.4429131156874625 -0.28418943173356864 0.2555925939324824 -0.6261551510456571
Ni 3.589887827172888 1.817697812759721 8.379505363607638 -1.4906801043876068 0.8348400246830074 -1.9007705443920746
Ni 0.20368421620790478 4.479618671828276 9.30412459986354 -0.24646260660675615 -1.3919978226233447 0.4665282112772224
Ni 6.1995446734963515 8.930371555708575 6.912438509758841 -0.7774234344367514 0.7095121153067586 -0.7780456414017826
Ni 4.2576669037193655 5.8477520875321645 3.3987679606298387 -1.67170196489205 -0.00650180567425977 -0.1258668125988542
Ni 4.840763183989894 0.16414655499880546 3.669298198915483 -0.5234820029544468 0.18760825547270915 -0.27734027002221917
Ni 4.057125155625441 3.840346401810778 12.498388209812845 -0.4179063365044609 0.08140498274105334 -0.7017044463368819
Ni 3.795354063963295 8.575357341625196 7.59848329727597 -0.375947732684488 2.3005153794961606 1.2275667765980471
Ni 9.047233814569386 3.5933119576310024 7.061289694912892 0.14263786140960596 -1.0310082539105856 0.41232370021036086
Ni 3.634622434770835 7.821560794296245 12.316288902003539 -2.077068002837655 -0.0235908999460626 -0.6053945214595381
Ni 6.340191752528582 6.663413099401403 6.721055390175195 -0.06173218690247433 0.4118593589794326 0.7695805413535649
Ni 7.268738613694368 5.538402150875413 10.17256600544212 0.011789022215128083 -0.2443594442208243 1.5192520024880287
Ni 7.160050085604541 6.416130129623862 4.391111342742255 -1.6320612105719765 0.5221519712891136 -0.852060759436668
Ni 2.280949526996242 3.292264616870001 6.8803483322961405 0.06833375137939199 1.221405899202974 0.5725602485383365
Ni 3.6488712357094406 5.8521795250331134 10.497401848235247 1.215133693041017 0.3163081666449843 2.658882422984408
Ni 7.027687193164524 3.905386471211415 8.47686664723038 0.3399844272160016 -2.2468819104414206 0.660849617104049
Ni 6.127776003652484 2.3197655435066418 6.238881673296883 0.689096013544252 -0.8316158613187549 -1.550596321127265
Ni 1.4845814652350886 2.515833830840773 9.168570454655168 -0.6950550593411642 -0.1829015940256592 1.1725078879506905
Ni 7.2229638804465095 6.757944873070317 13.145620662680283 2.3480242237104014 -1.7311607823793156 -0.19039044620353662
Ni 1.6088258548147372 7.675556607934385 8.166594404466363 -0.8121747218750077 -2.367280243726536 0.9887858549062649
Ni 1.354620986906813 6.081384558736094 10.331764139649842 0.3020290310181508 1.1474995388318108 0.4158360842389935
Ni 4.555133634942177 1.1371242702541595 12.319171798937628 -0.23057267484937707 0.09701363581258776 -0.23192764621537476
Ni 6.848757967424504 4.562865542428242 6.223348823436486 -1.5623645174067866 -1.7580758616026047 -0.6071613835519737
P 4.2284421343523935 6.030492039104602 0.02798858463437827 0.8466411310829935 -0.3878583680791449 -0.4970186665565956
Ni 0.5718472753434805 6.655313005844573 1.3552901650904285 -0.09047609180438611 -1.894672659024453 -0.7513807305160867
P 2.846741061940815 0.7096132983719737 2.5935367396801947 -0.38102283321455027 0.5819650867920041 0.9222094525376118
Ni 3.0521980940794533 4.281865933220395 9.105791047729028 -0.45369532117861217 -1.0359429722080415 -1.4131474601177663
P 1.0659170841682089 4.185594480367118 1.3778691758800923 1.4803306428324827 -0.04590241895906933 -0.2945445497156476
P 8.496491885267332 1.9696850227715124 9.36895204180831 -0.40639705031328077 1.2291045533988123 -1.4149762857963888
P 4.868634869546804 5.3693863350907405 5.351000043181913 0.6489906608829339 -0.9604039613294622 1.5028133973160311
Ni 4.743552856656165 7.579892662097869 5.263028424828855 0.03567431347315792 -1.1001177071137378 -0.9235011747658418
Ni 8.045077353205906 1.2007008000235055 1.1479664295730119 -0.5029972527375337 -0.12731588634055493 0.8903118324980667
Ni 2.1877432231820824 7.965447910751206 5.9266157029596735 -0.6998059437625883 0.06790386293082498 -0.759043389267667
Ni 9.231529352290806 0.541472844970545 3.1859923098695693 -0.23106247000160207 -0.6559706917451928 -1.176258356132058
Ni 8.501618876302736 1.9345968902276078 5.111522618104589 -1.0518221053321435 -1.0509404740581385 0.7122320853410831
Ni 6.575048442417804 1.6137135249041425 3.600456608334197 1.0184273319217816 1.2821932056936756 0.9395538573533303
Ni 2.881230892119726 8.060154572803732 3.6585738591392754 -0.8564367770171767 -0.5380077073744476 0.1246509379138821
Ni 6.356060572178552 4.64755754335596 12.63031940408489 -1.2002382639864233 0.4974578109765433 -0.8825077630726157
Ni 1.0879806344588012 8.703467684947876 1.1925224669266379 0.30242189558119525 2.348757245221684 0.2022702283602581
Ni 3.0195215802990596 7.141659191369829 1.5579756765813835 -0.2472606770280193 -0.5901316817631965 -0.8540659627921549
Ni 4.58003221797766 2.3171330131006718 2.1951584906472896 -1.2658857267829038 -0.34937126774754024 -0.4654429486328436
Ni 4.159112697227345 2.1103321018037415 4.886864682375556 0.7138865902253705 2.537580861158733 -0.9666985360889222
Ni 0.8621040028355361 3.5452268567890934 4.844737752623802 0.6149515690203539 0.8873090411160008 -0.22984222444125577
Ni 2.218495964742729 1.3639821177560134 5.697848810680902 -0.8692532120555546 -0.6594067140099353 0.3794562600583788
Ni 2.6940174797874934 5.347681766219144 5.387481760003663 -0.7799174045031987 -0.013945663546814691 0.47100733009449847
Ni 7.6692422168207655 7.906261999875732 1.9046357487191061 0.40749259737030463 0.1555154887032225 0.4076417213536592
Ni 0.8585924281856151 7.562854851673218 12.451573350915076 1.0440465751517827 0.6223226646734443 -0.22998337800481036
Ni 5.924675362366742 0.5320546452803763 1.6683919178082756 0.553024492498254 -0.5482005887470495 -1.0482809249481042
Ni 8.491604215177926 7.488140693263231 10.296090591253423 1.1541715515353477 0.8652975698419162 1.612392014277823
Ni 2.0373208039710424 1.8229352596163528 0.9766512917764119 0.5921577110542898 1.0789377306020127 0.4334494264453825
Ni 1.5358973988479603 3.7338761947973094 11.44551595813184 0.27183913769833185 -1.012848038061791 -0.8990810940502644
Ni 8.237997649634996 8.78537067638955 13.019294180870457 0.95351777573259 -1.7181021494231443 0.55911877832145
Ni 4.7375698330062335 3.815144065266914 7.2821488708568065 -0.7140467699523186 0.4082248475506389 -0.47703322457360425
Ni 5.903808416806135 2.618051488736905 0.15911529234180175 0.321014313871402 -1.1424717465999163 -0.9957342611996399
Ni 2.0441138369766567 5.516651558744971 12.717307965629006 0.6068093995291938 0.5162859994266399 1.1772094071914179
P 4.924580742999545 4.06311738392714 10.302692167502238 0.3711821929750446 0.23494817820925343 0.06672115547663347
Ni 7.086007866773699 8.778623666642781 4.63814578692203 0.03661533723018855 0.1339408478562403 -0.765773508902649
P 9.012624323917477 5.895515025562154 12.020822341610158 -1.135067226605729 -2.061652439613533 -0.6573950828965452
Ni 5.572496181028252 8.087483183906265 0.08154769188338568 -0.31957423899076576 0.8770218002573799 0.7710913215711365
P 0.5506259506897628 0.17338710490982998 5.137361916550876 0.005787810326370677 -1.9916598124744798 1.2059620538440778
P 1.3836892771937097 5.472349569780173 7.540054929241096 0.0325679066336923 -0.6213613292014395 -0.5007200266675829
P 7.526827844648864 7.964619492091985 8.585881940458012 0.7151330610379619 0.042414974631101145 -2.5736205283911096
Ni 5.337041188774035 7.450981514071273 2.3870929688719063 0.5000517969559647 1.1035524438268993 -0.13001348777737606
