# total energy = -340892.9755323211 ev
CRYSTAL
PRIMVEC
9.06437051291187 0.00000000000000 0.00000000000000

0.00000000000000 9.06437051291187 0.00000000000000

0.00000000000000 0.00000000000000 13.26662248626445

PRIMCOORD
 96 1
Ni 6.278916704566767 1.9156550172677702 11.3549814603122 0.18390638114108973 0.12714336531843265 0.32949998274490994
Ni 4.767895190679034 0.19285989384780453 5.882181893723591 -0.9872969290655642 -0.2749483727512748 0.9851030067380389
Ni 2.902384271545187 1.471836239803687 4.914102581946273 -0.24699585340240687 0.9801245796868411 0.4239821103848956
Ni 3.5216530062544296 4.3684737003913705 5.256169267291347 -0.31698513810735085 0.5271903050439695 -0.76378038973202
Ni 5.119828443417234 4.600222463404752 2.264068574903764 -0.09018478581621242 0.1857236368554866 0.25193828500934673
Ni 7.387960575658929 6.1897776841313 2.512021713230598 -0.41118033063453696 -0.6116363886041918 -0.04355782998629273
Ni 5.255005402106894 4.555752661263568 11.426130424426917 -0.1908920684303035 0.03424760832896037 -0.8541999172668578
Ni 5.693077368613474 7.908844631925365 12.667356386164009 -0.5304355514541444 0.43014607310376246 -0.9853845425341998
Ni 1.8950970247573329 6.436863362192151 0.3558907569401651 0.1356496030172309 0.2756752236149704 0.20762197959047465
Ni 2.7423890661652357 1.3802498393074534 0.41425442633002557 -0.8163669055794843 0.6675851360556696 0.22138098104778
Ni 0.8560355332842556 9.067180550315479 4.6626741639331515 -1.0199568811924304 -0.3714573010133022 0.5197130228303178
Ni 8.69148051787606 2.4617470881601 1.5409312175414782 -0.26764643977322294 -0.2708124962060304 0.5858183990998233
Ni 6.730548969484112 0.5683831710606134 4.760117054271094 0.8468984985094382 1.120639481216173 -1.0287785932491185
Ni 0.5070717683531188 7.57039009826257 2.3154100763933445 -0.045019502133483755 -0.8011482888575171 0.5497476215191951
Ni 7.660027659080787 3.9215911656660323 3.843725502940102 0.26356198529120417 -0.504635302561589 -0.340115296366911
Ni 7.634611163931199 3.793946698941174 12.281655633646649 1.1915065405403802 0.4179891260262544 0.32915416936971703
Ni 7.9327655059267075 8.883781140058126 6.757539945806127 0.47036943940018344 -0.3501623961902679 0.24744836755879318
Ni 6.797888178637568 0.8694299537131238 0.5500459493460567 -0.0797183390672498 -0.007198831741284376 -1.1076548960310473
Ni 1.757753681495364 6.58567313425734 9.388218802316212 -0.4957374858513268 1.1311375525340197 0.08055343337403546
Ni -0.02842314687609266 4.894823572126852 1.1385366136985144 -0.13328135989537046 0.013789854695240767 0.2632416258373079
Ni 6.389329802789711 1.873641659557948 6.866617862240363 -0.2995111496923035 0.13156514853521212 1.2145325691219082
Ni 3.3773572907457656 4.015896877340895 0.23264976145056754 0.19371102593633735 1.520618543818252 1.4726780113832314
Ni 6.065124459702934 5.685853065248915 4.637666471897417 0.11476067538336364 -0.773043817311817 0.3569837899874755
Ni 5.141936443299489 3.170263615751956 9.286436797774238 0.16925906354156012 -0.8563660716802411 -0.175769096745936
P 0.25964526995787984 5.588275115789101 12.347033313003255 0.6548586896279367 -0.014930138947271063 0.09066481077642449
P 4.207091646310319 6.0828453042170025 12.679720187656176 -1.1811061711426627 -0.7248916830866226 0.18072232698615326
P 2.3245850323100394 8.44074189846525 1.7290921416726115 0.6325433139601879 0.48746804675368305 -1.333662062996929
P 6.475160327957847 7.612929189466929 5.799331733607233 -1.0485105244604074 0.06965555551460907 -0.7386933648564051
P 4.6263097219784015 1.0877516645634937 12.696622519505476 0.8440564010749528 -0.5002561996572868 -0.2761614192227696
P 4.282788205152762 6.17347088143012 8.146448978343395 -0.8962577656688565 -0.19729565796380216 0.3866864592582308
P 4.603811954160543 1.068779936907257 3.533763911806985 0.1528947632509238 -0.5264230878606417 1.66555548567468
P 9.254903665346854 5.685200430566044 3.562432703126214 1.3508545156158154 -1.500967345246228 -0.30409311263603117
Ni 1.5145747471611437 1.260844885453842 2.701402701643876 -0.11223533785834865 -0.3467693113483189 -0.3206294197281575
Ni 2.1306165659384138 6.218964957448588 4.800487948029024 -1.1423858717543294 0.8630514541202168 -0.4891048110261576
Ni 6.297870303481814 5.693784389519918 9.162207785889738 -1.4948776874087222 -0.5972500379755328 1.2231257101075579
Ni 8.672173408507792 2.3102542623986633 10.036411943595475 -0.413489695494004 0.05445082274971267 0.46215682168240413
Ni 2.3041358122467477 5.511572411810565 7.153004838328884 0.4390284631950568 -0.12706623222359406 -0.2666930747210181
Ni 0.3777494866310467 0.006752956093596017 9.350036954057078 0.7918403811930298 0.001845023628538758 -0.030950168524611216
Ni 1.2184689529202026 1.159740895832406 11.439330867325042 0.7157683806291156 -0.7419658649600899 0.18993613227493739
Ni 4.094693450926976 6.9220791201655665 1.697199153732588 -0.6430259586590669 -0.749202234807529 -1.302152679534738
Ni 5.744408899295399 7.7795595141227345 7.935098674917971 -0.09486702178323017 1.1947178483888263 0.5687375323581366
Ni 5.222092672474884 2.9923572140754335 5.068645568413073 0.9922087645448847 -1.3773381637286408 -1.2200984932454602
Ni 0.821125016373013 7.5791734733695435 7.210024261559441 0.058491568477989586 -0.47311974845181104 -0.4016304821625728
Ni 5.113184259770782 4.458800153374839 7.098306800407816 0.2847046808070903 0.15972078503382167 0.1905010036394719
Ni 8.177594155709295 7.118386194150814 9.25985009238078 0.4826940224038074 0.6593496355197548 -0.8361075785415213
Ni 4.460150744593559 0.16810962993698048 10.613988199313976 0.6417522341529657 0.709180700109269 -0.47506427377269145
Ni 8.343345236417345 7.135662884505705 4.738267388950807 -0.25819660721423277 1.0486316234193038 0.8851197467741659
Ni 7.426320992018792 6.1061407366472595 7.168460496631154 0.1647138673730389 -0.5520726701079459 -1.7133620636349978
Ni 2.209313431447945 5.199132621756657 2.387700244766025 0.23585294941170992 0.6714754722490113 0.538668223776582
Ni 2.3836212779980808 5.110591849780488 11.515707253962143 0.04326472422590613 0.5912791651040784 0.031804803215422645
Ni 1.1443042727083872 3.4916227464717675 3.768980703010179 -0.3710492669416061 -0.23626766835162535 0.7662465918843254
Ni 3.4952484947099394 2.860787874882754 2.88920467669943 0.5181541629836302 0.37429065669703926 -0.012841631849358529
Ni 1.1897439625032824 3.3758163477445424 8.006035532760754 -0.31330537526291846 0.021351726202898713 0.9600748601248176
Ni 3.6329000265721536 2.507730640190721 7.261087486871742 0.1538113615279222 0.6435895444720207 -0.44029678838451913
Ni 4.35627305756992 6.748006947250912 5.967393322380058 -0.7693085186391009 0.44216186661771584 0.12482500159790116
Ni 0.6012795848255512 7.713181128252394 11.866608981326582 1.7243784693501594 0.11088730847088644 -1.5344431084061703
P 0.2552372665373218 5.504728812011015 8.009988504777422 0.6547062232104724 0.735329590590495 0.11369906688806872
P 8.495255023226171 1.5031627045814964 7.94454465551547 -0.12711714006618752 0.6714806144553339 0.29288670239725045
P 1.6902785067829764 3.006941786363482 10.258880603993257 1.3153082430800895 0.9376738667217981 0.6568793196023913
P 4.004040680602071 5.977354159227377 3.582425985348556 -0.03586457510709307 -0.2672440621284817 2.0335425687511948
P 7.057537074343687 3.8133353876448006 10.173483355739583 -1.3878267219647904 0.5817791960334432 1.1019694156104958
P 6.084322796624058 7.716906584567116 10.371089354031154 1.0349811225154049 0.18690994385410392 -1.123714520597071
P 2.5077668976731027 8.503793660327068 6.039218488541194 -0.07623963649002999 -0.6151156054020438 -0.8227571253765443
P 7.0006672132279535 3.84624811727681 1.3965901801798368 0.8649782388292845 1.3471485275191382 0.8502028802923228
Ni 5.481297414021826 2.9767574322806976 0.2498874750118985 -0.587433308995427 -0.14335905584634664 -0.5378020191215448
Ni 1.3396777165223048 1.0582562026459617 7.05018858910197 0.7936010726378784 -0.21174680039212565 -0.1121036973764908
Ni 6.867402836733929 0.8642215663689893 9.202711019458363 -1.624392638283125 -0.6332064014654837 -0.38744416335986176
Ni 2.6989344735307403 1.3428955680836827 9.26524973794448 -1.0329337530680724 0.17018028980424887 0.7869342021406641
Ni 6.113002465188001 2.2661379707107008 2.6546513974238217 0.8311188670776783 -0.5113312265245259 0.21203939193187998
Ni 4.021834040080902 6.806653425003351 10.533565477643075 0.32424413366260935 -0.6730320181028538 -0.6994405900033697
Ni 8.023436404992802 7.467446041410263 0.1378618252600276 -0.2815694776122183 -0.40955256522312683 1.8267857653744926
Ni 7.713906277900029 3.7347744876942013 8.173447206161887 0.43693378544955713 -0.12778459844685736 -0.9868392727028553
Ni 3.2755553445884815 8.136768230547476 12.499453423876604 -0.7108886839393112 0.6272514694336294 0.9517758533408188
Ni 0.23864856191062372 4.830366832822743 10.165934547907709 -0.6498260123000356 -0.8570078190292982 0.1877380961823541
Ni 8.703237006538334 2.3717560168886616 5.853658132333889 -0.3432232458682734 -0.47399032398222235 -0.5542177414754068
Ni 3.6341327809731316 2.7335694335758816 11.591034892921353 -0.5202886928281297 -0.6675041463060891 -1.4049181302294385
Ni 1.2892344941587317 3.298125627371104 12.595252037388535 -1.6664049781591685 -0.09513030274694584 0.2615534395016076
Ni 3.1751583758734885 8.315970837219144 8.046485286542865 0.6552124734229295 -0.5442302912453917 0.6262304843682828
Ni 5.611661191925314 7.869206139311546 3.5560912694576503 -0.7353802413227722 -0.16257368110158454 0.12285836478983359
Ni 3.1186510895815722 8.387017373946131 3.9292025176550154 0.7224059405502914 -0.699713384048782 -1.3481715694670138
Ni 3.1359096511952727 4.696730817134305 9.330349141123804 0.7884066729211324 -1.28477305060571 -0.21013137627588974
Ni 7.5377764928602105 6.4002795624689925 11.326312668992973 -0.49879298484819906 -1.4140041516911066 0.7077737924594133
Ni 0.45045480317699793 9.370021171908826 0.5391378857715151 0.2512726264008899 -0.9243380688448404 0.3026404393499046
Ni 4.50752114532528 0.16568763011388135 1.5177681249219142 0.4892727040625896 0.3424603995603199 0.1226454774480791
Ni 6.237193406716 5.500051596783773 0.12190943944912876 -0.0629460047049174 1.0345962283721601 1.1093626227507734
Ni 7.735751411035016 8.923193023407059 11.217592795197255 0.19304253911440303 0.4710870342924984 0.7012879276247536
Ni 0.2073275357551718 4.689017037757593 5.779657517229851 -0.1617316448162634 1.0801047543269207 0.4630747055109832
Ni 7.627205573154732 8.976545908731767 2.5354902751392276 0.5809602996765736 -0.14747333512503635 0.23762726770331333
P 8.48954446975105 1.5429734202366288 3.7153441028858354 0.33712973137602587 0.7618322648667137 0.26459094077635076
P 1.7718759708830454 3.2375393743112437 1.5807047692771694 -0.012797408874984411 -0.40188913514059815 -0.5940832102117769
P 4.638138725605439 1.0551924453847061 8.467965829111568 2.0560705746503816 -0.6133320311390599 -0.7369452718170469
P 8.510918255615076 1.789814360291403 12.648464424969012 -0.6354414614435895 -0.7650726261808823 -1.198134330269543
P 6.193557526669594 7.620715483808403 1.4342680494338642 0.9686443469613835 0.5758270922150663 0.16878546633925123
P 1.9565081355413774 3.135828071859914 6.0176733860729135 -1.2570835551102415 0.10182365560672141 -0.9469334376468529
P 6.970781983374818 3.9669583404961637 6.076882761239327 0.20625672381183188 0.15231446526742157 -1.3846143856750799
P 2.3511527025252477 8.385277014791809 10.4827279551586 -0.8780343006822944 0.6861477295492053 -0.36363112010066406
