# total energy = -340872.32423581596 ev
CRYSTAL
PRIMVEC
9.23984176429464 0.00000000000000 0.00000000000000

0.00000000000000 9.23984176429464 0.00000000000000

0.00000000000000 0.00000000000000 13.52344239956675

PRIMCOORD
 96 1
Ni 2.325196879749392 7.987288607268714 1.8131821494899558 2.1762117976193682 -1.9424324429072353 -0.2646001967477314
Ni 0.964371499733056 3.8788207930118404 6.673210357476284 1.0319433641303453 -1.2705576783372763 1.131546100826348
Ni 7.323369034381427 7.651060014040842 3.0412864458512 1.9803880962154023 0.5963493805381342 0.6617489889898668
Ni 3.1302180725543143 0.1709278283580861 10.694689683702606 0.7725964453617533 0.10667609860301626 1.346716839298358
Ni 2.6900043028119334 1.8658104388440824 6.0264510182679345 -0.010905334058594122 -0.11387852988872645 0.478582314228279
Ni 2.8119332515666398 5.955835529418446 12.72328672653771 0.898702370554607 -0.5119482912832345 1.0667098210772532
Ni 1.6670799273393677 3.6386033930630037 4.409305042494206 1.7029321265509254 -0.21428627898452773 0.8113108312128158
Ni 7.214560660591232 7.347411102027664 12.27421379674183 0.15628142033496958 -1.1046865574313425 0.2032325922735274
Ni 5.682188382834681 8.789306851578237 7.312571355576127 -0.05124337155600853 -0.4566184083626781 0.4308456702739483
Ni 7.0168188121296176 3.0982389810387008 4.251148523091012 -0.3108792823199291 -0.0017583774520034234 -0.9078205308057914
Ni 0.7504359050159479 7.257877037657166 0.04766187453481353 -1.6715890934632696 -1.0633200786694141 0.2858498501551271
Ni 2.24664898695129 8.79616281398927 13.035584130217636 1.6359338061535051 1.2114374751363524 -0.3863802408717217
Ni 1.3249470753774666 1.6269050963916973 11.83065890030426 -0.5617469599729165 -0.5576103120967235 0.8654256107793483
Ni 0.5705786938087751 0.8301932930695813 6.991944234762041 -0.004312511332424831 1.7602368738096652 -0.8912847379342974
Ni 3.5130893857968686 4.094580332445846 7.485928338270952 -2.4363403317489913 -1.1200514699231872 0.579627439797763
Ni 5.1306992016151165 1.747337190819466 6.394234594285454 1.3663091596079888 0.45582573725805364 0.7323090585966162
Ni 0.4258411962513267 8.778588635410046 2.4472967655722973 -1.7775103161781323 0.7795512794130317 1.7726427036731858
Ni 8.967515675057474 7.152995596514799 10.24522406064194 0.03217838450475749 0.3886376694473307 -0.029559715934987806
Ni 4.588052548734311 3.0488150687252022 4.47761149494677 -1.1841110194072575 1.810518138562721 -0.36281710883980095
Ni 7.262164324124442 4.918986712768756 12.727439111318732 -0.8481747941187004 0.708353062001651 0.1990280672738766
Ni 4.670647492120057 2.049304451675221 2.199872289234505 -1.6424132432302618 -0.9599468191873854 0.018539967785716458
Ni 7.590095539663489 0.7446212727447038 4.5736014365903 -0.6112458380339925 -1.3993475781201965 0.9296245140547602
Ni 9.168907260921188 5.4237038161922975 8.035831962684945 -0.5420978182834212 2.994690607335533 -0.24906584855755817
Ni 6.987436116082334 1.2527654333896094 8.677005817691855 -0.9782723569694506 -1.2219933962753275 -1.5854633082077791
P 6.37080605211643 2.4566798246402275 12.675184111562187 0.11046101956674524 -0.013475408778615503 -2.2831054115498293
P 1.629427573127832 6.532540238157835 8.949461948703137 0.7070001475181824 -0.4257350885202604 0.15913277374083562
P 3.8231415079863886 9.024405379322609 6.271523030953639 -0.5090360027324459 -0.44455916320529887 0.5657802495020257
P 2.5302936420643514 1.7660940691138016 3.668517379997936 -0.5314475376584267 -0.08486234516203449 -0.23695672399884998
P 8.86100802180683 4.341838491636201 4.224155250061912 -0.12465685145115306 1.2852623315373026 -0.05649330710103819
P 2.435030875948785 4.014563304845379 11.856379847155463 -0.3579309843920932 -0.2441190460752441 0.07064285912854285
P 5.203028681067363 3.6202900271618352 9.045343784200833 -0.7528256904927293 0.2991853909217686 0.5420535953090471
P 8.084362382323043 6.486045355607541 0.8007570059414559 -0.9452570783856947 -0.3525743480658702 0.12825073944999849
Ni 4.1588526700888995 5.819889741071373 1.176059041007301 0.5831817328079246 0.18000010410814807 0.5682194550711376
Ni 3.0087788354003964 6.366564964856775 6.939094189211331 -0.8082813003578725 -0.23526699500125287 -0.861404148324781
Ni 2.1523656440372996 1.0929993335928816 1.4550006167844924 -0.16044429346340755 0.5528316597611577 1.7226558302320978
Ni 6.92567701533389 7.5837200490117205 9.16493135711328 0.05291947370685079 0.7267865861164903 -0.8629185280867784
Ni 8.238963410707685 3.5044686136546934 8.61397254279721 1.0518082213750726 -1.473036680274231 -2.0168849055898552
Ni 3.4149160696011465 5.245568911445255 9.857574825347168 -0.3267296190886244 -0.6603150847568177 -1.182074705703519
Ni 5.782745578143674 0.07204674030160227 2.7830975541375937 0.03604943742438953 0.12274755024358214 -0.587217336329879
Ni 5.8556202082458535 7.972680417818791 4.889021906705441 -0.6113489392707601 0.3926951273461559 0.8322216132235537
Ni 3.640201885646708 1.7249305751230304 13.050324449401357 0.7511891833305708 -0.7297325561186917 -1.237884099363655
Ni 4.021382307890315 1.2375936136067036 8.676058733935614 0.3933672137125161 0.6077105711872243 -1.2082289955013839
Ni 4.712254498503995 8.657805427004352 12.628758527823326 0.48591124378952444 -0.6138557648530137 -0.2858827602755915
Ni 1.6998166858599741 8.977864297564693 4.949985457098641 1.6931963873204001 1.593732747305423 -0.0826231714188706
Ni 5.559501767074982 4.314091247538719 6.961178334438569 1.9535491216456868 -0.4286154953918489 -1.0679300666375995
Ni 0.6272660455445281 5.415350999454327 11.80968353605994 -1.0051534976310108 -1.3230140963647794 0.11662343962371527
Ni 1.172378812128171 7.812692561825479 7.087474032297659 0.4425465036506443 -0.8255282603637784 -0.2393105689430072
Ni 4.719091981231979 4.399596741004621 11.618922387869935 -0.7741928433145957 -1.8289814874742307 0.9697962011776394
Ni 5.136825216545729 3.6102555592664416 0.35992231884864234 -0.5789399268124352 0.678906731716076 -0.512365324215995
Ni 8.43359143257561 3.010940958317083 12.41888753939276 1.0986331521484112 -1.4638627270844466 -0.5320108663610644
Ni 2.6709240300642474 2.640931504476359 10.265455617643553 0.9547986993275427 -1.4712829308079178 -0.09890931017340385
Ni 8.731271406964089 1.0843785614507069 10.158607014240664 -0.21768604869469604 0.17182502449652343 1.1623036937241789
Ni 8.125498156789241 7.96306174279199 6.523248653520996 -1.0145796760409171 1.639394511008596 0.8660125936310699
Ni 5.415674393907678 5.562929748280499 4.682045760624438 0.048794395794883705 -0.38943034055195513 -0.18631396214131782
Ni 7.23924951714417 3.159979602104095 1.568476034528613 -0.9408432655887151 -1.1059885640722178 -0.06339131977245213
Ni 1.1452783569373897 5.835403434990678 5.266813155077934 -0.0793144187606118 0.7248654578343775 0.04947882345641801
P 0.6251279462158044 2.1482539145589845 0.5629160932326704 -1.205294338353092 1.8805932981132516 -1.258477607244291
P 5.043807731920569 7.1740531953486855 2.8717168741971864 0.08742084991783008 -0.5741643598006628 0.7488669629552974
P 1.9584398501252227 2.347806771959362 8.184914957711275 -0.32510699588353686 0.7967337047295892 -0.8984863978890592
P 8.159510013440201 4.655854505839648 10.457664649000415 1.5406152986551531 1.0601679061936775 0.6925924567332845
P 7.815621591588683 1.125634453856721 2.472613007364736 -0.4568271819393745 -0.5933674150916749 -1.0525862371916774
P 0.42657114373174665 8.679121741400921 11.878504647685407 -1.3903134929423862 0.678712870537715 -1.344109226472182
P 1.6444977546539705 5.764617009072991 1.3179053921517951 1.614155019715517 -0.5458413444862535 -0.5731608582368128
P 5.066824177157608 6.318942821640516 12.276283521243274 0.903608806717289 2.126998826229827 1.5394107368240906
Ni 6.236948467953849 5.703606335488017 10.4464807448194 0.7980300549435094 -0.330199837025412 -0.6835033499478229
Ni 1.3045917044994266 4.172407517605052 9.59105529251525 -2.270248610191819 1.2960851331844194 -1.004623850379786
Ni 3.1720745546594076 8.193466431042017 8.527584644465737 0.343260526864112 -0.24016597496476705 -0.9352112641139183
Ni 4.804070803730996 2.203803841803096 10.754341176599356 1.2043862247165258 -1.8658793889418446 0.8563146496170156
Ni 7.952740839809344 6.365955135316171 5.033086743799919 -1.631718225410261 -2.483994957512477 -1.0789660127367868
Ni 0.07327194328772488 6.2488678635202 2.8135520718016975 0.3477666422645817 -0.9380407631429135 -0.35632404491628955
Ni 6.2176187194850066 7.668320038008241 1.0009751319315834 -0.8046557877901432 -0.2614950754598464 -1.4159551047698904
Ni 3.1161827532788977 6.931682912324686 4.056247925898121 0.6505834592913505 0.3755767224983145 -0.008986776879642588
Ni 7.17459834599862 0.28896587984690786 11.812943352149713 -0.3675674790405928 1.6460001892505718 -0.3358128123368152
Ni 2.6962227161577896 3.4451211115440934 0.6260260588119667 -1.4350596868098253 1.7009714032801286 -0.03688633150338809
Ni 6.7595723842514905 5.437665216735519 2.5434751999829226 0.724860572738371 0.26723120661267524 -0.4889829407363127
Ni 4.31353685704726 7.2349345111523204 10.374360085785602 1.2567662809801388 0.6891296949956648 0.8781589991856168
Ni 7.856664967639639 4.180002667338029 6.1515298289982745 0.6045568560495911 0.3679384892267663 1.2043404590802549
Ni 6.945653552709434 2.906373671786543 10.229307509632177 -1.0004990295781349 0.2203003463890916 3.131226726722775
Ni 1.9908809337170514 7.247694732297383 11.072954011961142 -0.13601495677644962 1.0679349517336059 -1.4577067347853798
Ni 4.951741950972411 6.486941620235398 7.976396682079865 1.5402710279418568 -0.19103296488354196 0.7632268312213952
Ni 0.046724030620096745 2.702690605224802 2.9167629495964698 0.37299070693869313 -0.4756545990585227 -1.99344827183347
Ni 2.724709147577217 4.688822260398362 2.7777014866874006 1.2386878262118732 0.36570677168277016 -0.2481500216115081
Ni 6.3064043566920365 0.9747108823987514 0.6093934200840684 -0.21826351846472086 -0.7103474667238605 0.38417474857997064
Ni 1.4095655440570358 0.49008304241735 9.171450065308676 2.17758245271465 0.43379395426899486 0.8184189030125066
Ni 4.317694785733197 0.6979554531262102 4.3540212226859945 -0.9965122770162452 -0.8309036657430787 0.5075401349132098
Ni 0.23373842307199483 2.0268054375635423 5.113497388649321 -0.8171968576799474 -0.1068679028988482 0.8190747914289507
Ni 9.079844428468428 4.296249113555288 0.9151517879172448 1.606397487257285 1.300955059682211 -0.21171209049944828
Ni 8.725302469339388 0.2488039846773713 0.43995967410046205 -0.19370202707527284 0.07670037817653243 -0.9740308080842772
P 8.970527863394397 8.831773163223936 8.37529727239878 -3.364759769752057 -1.536256250355509 1.8637055212189777
P 0.16739636092749738 7.768442960765591 4.454108110061401 -0.8495259088299564 0.08424502329300974 -0.15396408505570258
P 3.997663634697429 0.12204167482130238 1.0870470276829256 1.6923160415979757 -0.5145283933055848 -0.4383136965162193
P 5.314211694129304 3.977382182551583 2.436220967537115 -0.7159694408963283 0.9445891057843926 1.615315101461889
P 3.3403228289754456 5.012484669153181 5.205862540462867 -0.16123902145056104 -0.5165683065537491 0.34744114060436293
P 7.022593713082307 5.995169534787406 7.15271100939585 -0.06552507828600328 0.9511796145177167 0.011886981245573077
P 7.371129775220551 2.105704444339568 6.559180549240706 -0.16305781982685466 -0.583322372150847 -0.052136572794239236
P 5.355948058294581 9.042515468710244 9.87243711043901 0.11742845202351389 1.2315375883203372 -0.16817482933844585
