# total energy = -340869.2403260082 ev
CRYSTAL
PRIMVEC
9.21455922413341 0.00000000000000 0.00000000000000
0.00000000000000 9.21455922413341 0.00000000000000
0.00000000000000 0.00000000000000 13.48643884644051
PRIMCOORD
 96 1
Ni 6.475402350865736 8.64822301259531 1.9372458529805434 -1.616246612137223 -0.4071370138030988 -0.6055706420260861
Ni 6.727779907996525 4.4068075662659 10.746965069956648 0.23537575266497526 0.7739653006848219 0.5722761416390144
Ni -0.14606826820554028 6.566948994777321 11.691231613304566 -0.8885467701778439 -0.8571096347144851 -0.019295100784186125
Ni 6.3082133919194066 5.4263800932441555 8.186335869829 2.1322086525655406 -0.740998101730182 1.0709397999982007
Ni 4.545928978422628 5.663332478567396 9.919963004758587 -0.2333191272462627 -0.5838515051814397 -0.15326423077520057
Ni 8.026747079166341 7.852932852281166 5.777671334226872 -0.5793199358596733 0.8962683071918178 -0.8042207571352536
Ni 5.148468993055592 2.297207994005615 5.263500783553734 0.10111300269294199 -0.9692788952215888 -1.2033711531884503
Ni 2.207596407489243 3.0313042678359308 1.3091437301568272 -1.0585812784328479 0.059949641080754824 -0.4654241795797662
Ni 4.271685272725943 6.50714650670624 2.851330108242663 -2.492127099701308 -1.842950290949497 1.5791232249223643
Ni 8.812371167063448 4.064118116132853 12.467241230315176 -0.29687808294483065 -1.0538401642034367 1.1873621793547033
Ni 6.194892745032173 7.5981687243629485 4.300689940168368 0.5895691243915072 -1.9470707130101952 0.03606949202904756
Ni 2.8880455186770573 4.054442829156792 12.160748410943427 -0.03748925519470963 -2.1695660101680767 0.3195819523002496
Ni 4.861168257220737 1.9506299999640941 7.684478734380728 -0.10542062892936037 0.37252173772207453 0.13103627261493564
Ni 2.1578746469913153 4.877505670371742 3.1810196585034944 -1.1922714437308628 0.4501875651356698 1.2043800540689384
Ni 3.0364183480947053 2.28465776461381 9.634441600271426 -0.2578857608420333 0.21194837487997045 -0.010718157748452509
Ni 5.2024570943820105 7.3565722012912 8.097123273718402 0.8394315007084318 -0.009083707468823065 -1.4772666591951784
Ni 6.343468294748367 3.9994503408966677 6.369415571506357 -0.7113707657820522 0.7189051264858846 0.751259374446874
Ni 6.218085790097645 6.094500124456761 2.266557606321357 3.119209647657241 -0.7096455555608295 -1.0043819095723088
Ni 7.465783154853364 2.5498343442300735 5.079249225661147 2.155173231781514 -0.7920676667124875 -1.394937621977959
Ni 1.8246854072128578 4.342655806335104 8.166415836129143 0.3806335681959315 -0.49513816170443115 0.06215513337250585
Ni 1.0594162802015772 4.7954592368147475 10.761489979347472 0.4998353100697843 -1.7107922460252925 -1.70482522980858
Ni 5.8539909193499415 -0.19030183734828504 6.158380054896325 -0.24805874744928247 1.3454585414112248 0.29345774440937206
Ni 4.249450541799052 2.4484834095160806 0.09233080288459644 -1.1683766393911363 -1.0411651398389292 1.9837765530716611
Ni 4.177927134648401 4.402578083673507 4.5264936305274786 0.39414728641165026 1.0496423240720052 2.2752260088017526
P 4.659885429882574 6.218666307316208 0.6858958370273859 0.6284694010011306 0.2856135657746049 -1.0493685015853282
P 6.097126273778836 0.5676573799886062 3.935733508151844 0.9670723744885732 -0.8979007005889181 1.9177256841891746
P 5.853622336988948 6.241905425176804 6.05491161451843 -0.20919806582834294 -0.06864794018570113 0.38153731095712357
P 3.143998324709476 1.100669860955695 1.917002388258917 0.8335364753802356 0.8243643219626642 0.10714095405457677
P 0.25027848058493435 9.169932915462553 12.00357752056888 -0.8673770780787642 0.47999590674635395 -0.3387762658405133
P 7.401106165058154 6.414844268954621 9.947731999835785 -0.6171776301373951 0.30867610402102325 0.5862937960743452
P 7.9313856078184815 6.965911756874942 1.1762154231206798 0.7077933328434391 -2.0969922525654074 2.1284892947324243
P 6.070404052606858 3.7376831481195882 3.279726936233266 0.35753503450525526 0.971086894964605 0.7918041286384557
Ni 4.060828518560992 5.021252791158931 7.317606595542944 0.48815530262869483 -0.9815919082609869 -0.787835630909011
Ni 7.181928664093791 5.687686558069994 13.056234921725753 -1.0628755349328276 -0.2598405705755589 0.3538462727997584
Ni 7.51556020270544 4.136019320203522 1.5140957948986733 -0.23256502268905757 -1.2102617096606962 0.14115562043712465
Ni 4.984228692997205 2.8817704039811556 11.528895041140707 0.9121330421382162 -0.4239198896883925 -1.2446342736032951
Ni 2.8600885465957546 6.922769191520736 7.9180502979977625 -1.784532513132236 0.35910469298522024 0.1590831514498228
Ni 4.096028134035803 4.027812753575063 2.3702951118227777 1.822151866146907 -0.9181535373006832 -2.1653419447844
Ni 1.7023713507174003 7.771863161980802 12.90587451192645 -0.5400185671568892 -0.9438589124865875 0.7511344188332354
Ni 8.025493899138965 7.615409164298387 8.117810880185024 -0.8936830629631449 0.5491434122762929 -0.1969498445886092
Ni 0.5307659714768378 5.124741503566681 1.3462968321449005 -2.1593967829445586 -0.7760815756968763 -0.4316000319414696
Ni 8.596778129559741 5.7542064596701685 6.361688242308143 -0.045812430348424325 0.0896458825936069 1.3057108291996415
Ni 0.9374615915080875 2.3691736999894575 5.724170683072866 -0.14858945100735055 -0.11239191804087097 -0.5411100004488553
Ni 2.7193453720506575 5.471688079969195 1.0803462295705526 0.850777007628238 0.7948750542542956 -1.3956205069775967
Ni 1.4048332398059704 -0.11111283854488656 2.573090969752816 2.21826810335947 4.609030489368346 2.772139260128735
Ni 6.224793989067713 0.182482362559823 8.732050620411801 0.23332092701847557 0.6493909816451462 -0.58777115195082
Ni 0.9154120732175964 7.361262411834834 1.8339939547397306 -0.9125269351425251 -5.27599110446614 -1.7241892361574886
Ni 5.780587742158227 7.106424567444418 11.568437478283917 0.6613892916576029 -0.7136981283636482 -0.33381635073207666
Ni 9.23179025019617 0.6460207543033808 7.067648781612074 -1.3120874221499466 -0.7543359564896687 -0.4250352342397583
Ni 5.693169220689763 0.20571595168500356 11.129858562570886 -0.4487400340558659 1.835641673103226 0.03410825453761868
Ni 2.6040896677682124 2.599943116207043 3.750282214674224 -0.7201428555477274 -0.801948159050993 -1.5216271875884246
Ni 3.14584123651444 1.053988904935958 5.334763418683982 0.19117206156456754 -4.339127135240147 0.937963630048075
Ni 3.928977393474846 8.544190641205095 12.325674274193261 -0.7686060932554376 0.26376458822031346 1.04237381543505
Ni 1.1058300140095942 2.146743459689333 11.754402022699217 0.6216953155020906 -0.5693067745980454 0.21888701098133267
Ni 1.8464409810704574 0.019307265524704836 8.54523649365441 1.4277546685079798 -0.3279555210759255 -1.0688767468215852
Ni 6.627424145657213 1.8402948702009025 0.41880078622215544 -0.6525462394446762 0.06728088463484541 -0.5770650783872255
P 8.705316420313093 2.9325702678849868 10.555431246066744 0.8266387198191376 2.2066821982940836 -0.5509341856281286
P 2.3941359403876943 6.357704788441714 10.101504560841978 0.16801619227339454 0.7529064231319936 -0.8384773643252785
P 1.3988069182037381 5.501082523258369 12.812331994530092 -0.8140128035250109 -0.28028212625936244 0.8753415843414795
P 8.689163298342583 2.2700619031184956 0.7471496181448752 2.1059821147688442 0.8211303884063987 -0.6297284702192122
P 0.24378129501653395 4.330732166956988 5.0411230662400515 -0.4585534206018618 -0.6785272368894701 0.3015112108414678
P 3.0526359719783884 2.9618449219068395 5.864280817412958 1.2748714752212817 3.456788036534911 1.5173709834152318
P 3.3697826644946347 1.3490022266745876 11.601102168570998 0.19203852332992088 0.9465431441869698 0.8053612984976002
P 0.3037560953413783 1.1622046861234414 3.8195885989235037 -0.09586615247170585 1.0265149940259226 1.5846837497292772
Ni 4.31219247419905 8.547028725384738 3.5736096315795502 -1.1084815056974007 4.163009139795224 -0.7308201327559155
Ni 0.1586138903178324 3.43034074640575 3.051293410728472 -0.08361304613596568 -0.7885174874673839 0.4253617643412416
Ni 3.6958490501469066 7.5883552190015156 5.50554144837048 -0.14712186532288854 -1.032448585901538 1.252575897047875
Ni 9.07502295750691 5.550518632426527 8.832834859745768 -0.2372814543281204 0.23631446242916077 0.2950356304194532
Ni 8.63507383686689 3.753320254784707 7.439079362799436 0.3180218069019813 -2.1371354004431966 -0.09273840547600157
Ni 8.632549047694091 8.950654054348918 1.106586529305532 1.7413721756946785 3.3161805752917726 1.2281506741259751
Ni 3.3945053263582263 6.219477188510392 12.222166211211558 1.3026491595551823 0.9588265895400132 -0.5525737781140806
Ni 7.238699562245706 5.176085026452977 4.475016496535322 -0.281062970289445 -0.15982182938806025 -0.7263566976679232
Ni 0.3341604542996736 7.829831952805943 9.880798364535396 3.1012841735270715 -0.8789542413934024 -1.19072621073093
Ni 7.754125135858024 1.4654466090712348 2.538525315938912 0.8144514337243264 1.0124770278756174 1.3638493852135865
Ni 1.5826373707488923 0.6600287269329118 0.37836085102992895 0.09092809174014017 1.175850322060362 -0.7519831399867759
Ni 7.12241182735248 2.6431317543563737 9.188539874501373 -1.5912032960153497 -0.25061108155749096 0.12380350231192226
Ni 1.2041493588044208 8.433864726000927 4.99560590902515 0.44710172712149454 1.0526541143151356 -1.0616560607034295
Ni 9.083214700479976 1.0412543843636572 9.47304952040761 0.025850642514516773 0.5694908655843934 0.14297493303405054
Ni 8.314729692369033 8.517164339585298 3.5172091587004335 0.22270612761710679 -0.1804932416944827 0.2931096170413339
Ni 7.834199653783707 8.01936621738746 12.894950652202526 -2.8044526275494603 0.8892224560886298 -3.222550768349753
Ni 5.476866662141143 1.8473624369729391 2.4423133407930613 -3.000662765758568 0.42797426226342417 -0.46298728800349936
Ni 3.3807203460570956 8.117952784394006 1.4458002477744167 -0.23913933347246558 0.5947740656312144 -1.7088706035225474
Ni 4.103980298474223 8.012298650615424 9.95791408755821 -1.0168579305521326 0.44955687353020646 0.18988368177044718
Ni 2.0669822367704933 9.040247211747241 10.885403683289638 -0.06203711973740284 0.32370703021221664 -0.2605039151911707
Ni 1.8560794098104187 5.728682131171418 5.7658168040414415 0.8646162275041754 0.3631035297319682 0.8621513109034508
Ni 0.23154804645518326 6.20761805104545 4.073794324564816 -0.6773090482116529 1.165385417973296 -1.5855293855590242
Ni 7.56897700137232 1.6645824441566146 11.764193413118992 0.3064806390316012 -0.8160285484034592 -0.15458012137314667
Ni 7.6279778228082415 8.572976923598631 10.450371451345264 -0.8717402401434664 -0.13077144898932316 0.7539644320828628
P 7.168604411743902 1.9561310917019117 7.191603029613949 -0.5207561193828515 -1.1886053077331853 -0.6694926374910276
P 3.9257891560522586 8.911031450542193 7.372914221721717 -0.531260361348285 1.1073844159784798 0.13316668869437712
P 0.7011422463898526 7.6216474207581895 6.813794130669607 0.56149036387742 -0.8575788610414198 2.4486746849446277
P 2.2793870368516136 6.994338671466511 3.6390726232595774 0.1700208814082491 0.7398807002962869 0.47329201236361723
P 1.3671088351583582 2.1469830382239787 8.073427113730176 -0.7008220437319285 0.5577771766918911 0.1608757245738713
P 4.872152011578322 3.5227535588656673 9.491472188265933 0.7273828249395925 0.418806222610911 -1.5229171100444416
P 5.865463045335842 3.9409839638841864 13.426073227113626 0.04616749969499791 -0.42040853410102436 -0.866336809739708
P 5.670639623874077 9.190619600473275 13.329483455047757 0.8280091178041029 -0.09751962891472882 0.48547929845842835
