# total energy = -381166.41561986966 ev
CRYSTAL
PRIMVEC
9.26935452185888 0.00000000000000 0.00000000000000
0.00000000000000 9.26935452185888 0.00000000000000
0.00000000000000 0.00000000000000 13.56663730346246
PRIMCOORD
 96 1
Ni 7.107601811154125 8.01517355673067 1.9442350072148296 0.39550071511575113 -2.0864540720382454 -1.3363882036788404
Ni 2.5030871567417834 0.4537172795667015 8.41406909435966 -0.07112854051570977 0.07149183739239945 -0.8723503629236395
Ni 1.0978993967283386 4.632202215606048 6.882640144721391 -0.7033067578269953 -0.39657389357527184 0.19283865063371305
Ni 3.442211784241122 3.1244027038636624 4.013404225102922 -0.23592879695496788 0.09761347418011575 0.4901800463682074
Ni 3.4091109201558423 7.525492109545801 9.129111717146143 -0.09315003909212345 -0.38601694399503195 0.5062342716175926
Ni 3.5472799148506566 5.425862866602923 10.12450966746131 -3.1495666626825436 1.6362127708465046 1.7458273832525546
Ni 4.46553922589635 5.113596860076766 3.092867433713976 -1.430620162981233 0.697815909915753 -0.1989056827633994
Ni 4.148545848694333 9.345270277832086 0.4340847872304867 0.03792454295991533 0.2207407763606198 -0.3768468474599897
Ni 3.776538853921289 1.6015868382097238 2.154680864866396 -0.3611798303466941 0.03203003185235129 0.3457892068232367
Ni 3.4069604299660394 8.496086194779535 6.3306677099309505 0.7973299435526914 -0.9349297283177577 -0.6555400319656774
Ni 8.808760052893414 0.2584444279137892 11.972231231119059 -0.8774339480941339 1.178039616402197 -0.21117421571810727
Ni 3.971760724125736 0.11289424641664798 10.220453045731011 -0.1265784939538981 0.4246074026737204 -0.5007593645459505
Ni 2.7367861165060168 3.634319151412062 1.6938892141235857 1.1549004592815721 1.8470530002639607 0.5568803759092344
Ni 0.844946134281959 4.81999006368885 11.16907319974084 0.865852928124754 -0.043306633207435094 0.37109554679850926
Ni 9.121952994846211 8.87571259875955 1.0870996720725672 -1.563335108850172 -0.7787866333328652 1.336677452784485
Ni 2.6148014143603198 8.00538511862536 3.939140939526882 -0.24748179189988992 2.067462361427091 -0.2171134640206777
Ni 5.707540004049993 2.833789908903792 5.4158964568957 0.2113994443550359 -0.9792311213382942 0.7793486764839224
Ni 3.1735210121212645 3.317909743528827 6.564285099377641 -1.0196339506353729 0.6256003069834516 -0.7680707895772578
Ni 8.431441718125727 1.8081265899734333 2.9736301681728365 0.007256424452097181 0.8502787278355809 -0.18146589002039715
Ni 5.304564096672939 6.06073947901653 9.179769665147393 2.4784202916381766 0.013420387170963983 -1.8815870294850887
Ni 2.9700123392026643 3.8902738307698987 11.844759071247658 0.4381943973295357 0.11602977190377436 0.35458520784831193
Ni 7.759394995103895 3.754690985915407 4.7754016888612325 0.22017436233418855 1.2329990033572118 -0.8638747213524606
Ni 0.42982273813880045 2.5281607600323692 12.258704332463559 1.0024741510266346 -0.3354078635889126 0.7400969300721512
Ni 6.310993505500538 4.90265416503652 0.880820389163743 -0.23822222097483492 -0.19227455060012694 -1.1817530606980422
P 8.853716421085407 9.287614894295139 4.029019379300083 -2.079365026401948 -1.458574996322946 -2.4410552207261573
Ni 5.662926601965856 2.4225828149381834 0.5276088640366587 -0.12411640556665075 0.013074316685454902 -0.8278412247676711
P 2.8286454172859457 0.774859619738355 11.84398600710184 -0.992563576781142 -0.028132753680474132 -0.6690910311772348
Ni 4.597015746810831 1.1940967553049375 7.099068443616486 0.667471750406257 1.0234312128942762 0.23042200820412573
P 7.8161049045056705 7.960030168199914 10.773280114984813 -0.14821355572517056 0.17573695795641991 1.1239695740306705
P 2.118724112731641 7.462506847305678 7.486368945993647 -3.182742892324196 -1.0355413658942487 0.018022404719349606
P 7.957564519965055 2.86807725033517 0.9052525531390947 -0.40703699789012476 0.4245858054071655 -0.16454057501996824
Ni 1.0658181616123616 1.7978376067377402 6.949007794333319 0.8765888264850193 0.8590415616298754 -1.3668205520267684
Ni 1.3273437228842988 8.755859848095124 10.326625156433671 0.1616632534721732 -0.40593116642045574 0.28243054006093293
Ni 2.137003279344963 6.241343577542881 5.310321292607794 0.13328187411600273 -0.5745348557662041 0.048832448121670737
Ni 8.25411897100968 5.923339840725827 10.325322812159245 -0.6564005801937599 0.2728686074041107 0.3300823376109412
Ni 7.987652843913757 3.311634390690481 7.15013331627003 -0.9043829658791522 -0.4018819360517466 -0.644016090486478
Ni 1.492903659436297 1.1552210835116965 3.66959924068537 1.2230465201301903 -1.4606156809020587 -2.6558603483286323
Ni 0.21119945615342423 7.384542308571069 12.229821024569485 -0.5585847601948509 -1.1533066324318912 -0.6567443366864237
Ni 4.5114966843491136 4.774551689075006 5.504568026743417 0.8034643385852033 1.57523905937661 -0.6170081944390664
Ni 3.4398295601946596 7.91733552244892 12.175975345636024 -0.13745940253246003 -0.15223398973847332 0.1988663448850317
Ni 0.042601952208330046 4.052200180449472 2.483820803899091 -1.751384565625358 1.2101385538192708 -0.4966851944765768
Ni 5.762340426472893 3.371319762811768 2.7121602230264976 1.112391382274768 -1.6808826029500534 0.5767105232612841
Ni 5.322416872990007 8.523087823757528 7.987981905990214 -0.5225150110554873 0.4401268384655581 1.3354122129188164
Ni 1.482744447160333 0.376970733982696 13.518651507412358 1.299323437616059 0.08527912098447894 -2.276520816353776
Ni 3.061676983542999 2.169890948282116 13.405397610050175 -0.23600670138075483 0.9522903310833922 0.5481792485908108
Ni 8.555567641106961 6.163740543624661 1.0504523530449663 0.5518404994924818 -0.10604823521103027 -0.021895771631826808
Ni 8.986397958054518 6.216483169400422 4.524175307114682 -0.6227679797409791 -0.5813480220332956 0.8426235252831681
Ni 1.392599976919687 4.628503743253759 13.615069476620498 -0.5371502444701588 -0.25643308755590677 -0.032463005624711834
Ni 4.722828692268547 7.130293190398247 4.5338478782916605 -1.4673887379598343 -2.309354060833713 1.9688986075185637
Ni 8.87990234688796 6.727576824940653 7.217980354822874 1.525523180208721 -1.028578047202538 0.10211701847742413
Ni 3.4223475580482474 5.68762016173152 7.481810277565436 -1.1912985382946324 -0.9449421182484371 0.5718642509125765
Ni 8.321729641028732 1.5145290629397856 5.457994156231939 -0.7899969002263879 0.4438076297512551 0.19282322401474533
Ni 8.31549136560745 3.4197243307908587 9.951670507003916 -0.8953542800179806 0.8017378428123999 1.771519645812336
Ni 6.466422037839371 0.16488976223853802 13.196213311514265 0.3765537416996031 -0.6046918389655586 0.28920925354566324
Ni 7.797139805676636 1.126337775617624 9.242461088857272 -0.33401098324138606 0.3172077956411182 0.9420437136547195
Ni 7.057343372321756 5.528409732851999 3.015591608001359 0.2834211861089764 0.024990094286434384 0.573427224524322
P 6.3588048348065795 2.268359298653981 10.332255362215077 -0.21302952375929116 0.6550147555898267 -1.831895318686916
Ni 1.4991697429203767 7.024446434030336 0.4160345736675448 -0.32065847319388 1.5324993544162382 0.14304409570908913
P 4.554608451042095 5.140644835826092 12.951213155028448 0.8919141439881801 -0.06627249797498909 -0.733278364488421
Ni 2.9643487637459 1.2587226932502111 5.454520929188322 0.08835801702011879 0.15595900399854432 -0.7074549756674139
P 3.5112592041714636 2.4567033079927665 8.355610057807816 0.10627063563448148 0.07226599655426263 2.4868313985200072
P 5.3528296243380336 6.927906109345881 2.504238410541669 0.4647058133565029 -1.4673617413766404 -1.9448911888603733
P 2.0288299150561877 6.714748038635968 11.164731434202462 -0.7804979595970172 -0.3740466590070332 -0.6520248197235674
Ni 7.228019992428801 2.2825043332644923 12.183640174678903 1.0406087531148271 -0.170192631099423 1.2890505949351412
Ni 6.998927901734963 0.6742537562726607 7.125170945230641 -0.6699086419825236 0.42963570912624716 0.48267062536503963
Ni 6.126338699159775 0.047253314179204725 10.816557803119162 1.4678749335676335 0.11147094888849834 -0.08069510115822232
Ni 7.401078836582309 7.8806844956796125 8.709807842228843 0.25302611875688685 -0.13741903621282783 -0.17853714640937637
Ni 6.86946283069629 7.705113656519913 4.17661159954211 1.4047420096628904 -0.31836299229148396 0.1351613505269027
Ni 5.223040125900036 7.312751159777875 0.1693872529285906 0.5334792233764747 -0.9102265691441227 0.5666783358362628
Ni 1.9348293934407232 3.8548834361808204 9.260613265317144 1.8666728313774177 1.6099474093920725 -1.209625618738594
Ni 0.9033996092212433 9.204969331656002 5.495600853426111 3.0234810492046638 -1.6881045746197896 2.4778924441591648
Ni 5.480496440649028 7.027913172525966 11.174241791679778 -0.2311714847756406 0.12054437194467627 0.6514789745224264
Ni 3.273018260816699 5.9250546712651095 0.8873284027941756 1.7196396691135931 -0.8204187070513549 1.0057067990313195
Ni 0.7741152905907639 2.9131355814240933 4.688032463287945 0.5063381441853086 2.0109646834506787 0.9323815079746071
Ni 6.235012608578936 4.48533856660936 11.08854104987444 1.2834229643357187 1.130558540102098 1.5394816992713423
Ni 8.376733989245492 4.354028894071674 12.605372620413997 -1.1835379205126069 0.7924098805432547 1.1066737630647006
Ni 5.424796890862288 9.241916977761834 5.277896164448534 0.7907965133095478 0.42757676971468944 0.9808282906220849
Ni 8.137009949208105 8.330609682415934 5.928715139264907 -1.2268594661183774 0.19875938699352222 0.3025784757637176
Ni 1.0667358276847343 2.1874378359083932 1.508351965256663 -0.7615340169000046 -1.2083845472426415 -1.2802761911766207
Ni 1.0919577406435823 6.901265985184275 2.7445167579641865 -0.43797379667829733 -0.9412273884010113 -0.6354386332301122
Ni 7.207432756603148 6.51198091405868 12.647971791816046 0.25426693314252335 0.06648718508895647 0.027211784528101527
Ni 6.643568667224357 0.8127740594941714 1.9647341841749517 -1.3258068286185685 1.8353094865747877 0.2321798714354969
Ni 5.485353582284616 3.9340807990328597 7.73282068335758 -0.5759985847959241 -0.3018431402595898 -0.5166354123462586
Ni 0.013875296401359715 0.08088160452224227 8.02143685940847 1.0156235439243992 -1.691958658258557 -0.6869113471881073
Ni 4.7849333658533615 1.8488561326199526 11.683370344115536 -0.4183956174360536 0.50436559383997 1.6819886915300388
Ni 7.397816023880539 5.231706972139111 8.300448130568526 -0.3097618808860343 0.5894984190545719 -0.46366965878250466
Ni 1.4252837200629795 1.9572983081824535 10.186509597342916 -0.13795125456721402 -1.905161731481235 0.9473347868503298
Ni 4.629857068976651 8.780525599797988 3.0587478675948194 -0.23092671575468615 2.103405355180603 -1.613341522675286
P 6.924003711199731 5.562409724301119 5.811417949571723 0.8508901361673347 -0.23619542035279323 -0.14349815252737222
Ni 5.33683998822851 6.654321118173369 6.823896538993568 1.5108447522609398 -0.43356204076384686 -0.9794460655625776
P 0.26890860194511723 2.9248798532796103 8.43102737799002 0.26547797136699436 -0.33726857094673524 -0.09924278225342263
Ni 1.1238721273827643 6.11569748046196 9.139246829101015 0.5296171693179073 0.9570872382514032 -0.6727689942494542
P 5.160926182960954 1.5245863123188192 3.8685130946941206 0.09911062755093253 0.3151151747781476 -1.0502470475355397
P 1.7735426292055312 4.4935419451351155 3.5073688561858596 1.0164732935192042 1.6348230895878297 1.1600647770913313
P 2.4063336369092014 8.953881063288021 1.721375630329713 -0.2722695403675311 -0.7061074605005839 1.8939782040605897
Ni 4.583250755725241 3.588695389712888 10.027359419266126 -0.8550447817656565 -2.954521748426131 -1.8139737012114887
