# total energy = -340868.7138983856 ev
CRYSTAL
PRIMVEC
9.24764895096530 0.00000000000000 0.00000000000000

0.00000000000000 9.24764895096530 0.00000000000000

0.00000000000000 0.00000000000000 13.53486900641366

PRIMCOORD
 96 1
Ni 3.3401860870034805 2.538757081297438 0.35842130489430746 -0.08164152423189165 -0.15113664290923648 0.125342564664268
Ni 7.859613879805551 7.264749609920514 11.019183209330693 0.5376657506539966 0.36616571359705974 0.9891429811353674
Ni 7.140146787229364 8.680167023653592 13.448273345844688 -1.5802874204337944 -0.7062308734523257 -0.5337970117272097
Ni 2.532320717590073 9.13071248316917 4.8329092225924795 2.697620462984554 -2.2739322296909936 -0.3602370068174505
Ni 6.803449134612315 3.721660856101942 1.9633544887430778 -0.12247758441164713 0.5710522965342424 1.0719533288643797
Ni 3.6777992568720084 3.3096873405855343 5.202437878706496 -1.5186241390960427 1.6835146412562618 -0.7050175698705148
Ni 5.955106805504742 5.899232510217527 4.44070903017821 2.1187293871321833 0.11127477371729223 0.34933038720727577
Ni 6.779312770709694 6.022753357975113 0.4645427010492951 -0.44172375063903274 1.985700509567251 0.4583081373602752
Ni 9.187890696966067 5.326562597944096 5.318418193465537 -1.5240867048725106 2.7844653857942556 -1.780894402159017
Ni 2.881095799807437 0.8586035204433374 12.20815436664727 1.058349107817384 1.9407211166430833 1.1747504041279637
Ni 3.743207878283209 7.675317482788188 2.117016198902123 1.0334772842763686 1.0181576232001626 0.4498967733681284
Ni 8.472261378726886 0.4687429832272913 7.479936853673629 0.08610315954767106 -0.37495502975391554 -0.34096324618950313
Ni 2.1323044122369166 4.846951777606322 9.308782438111576 -0.15401242179513475 -2.110946914973287 -1.4140419469075776
Ni 3.4918567783317846 8.821193670977332 8.856392997384436 1.3534461876023918 -0.07833225735300058 2.2657345243715494
Ni 5.867291130554826 4.027314151009759 5.94787144492336 0.6302434621824178 -0.14932118696705252 -0.6837306354672806
Ni 1.878687638279308 0.19855627178281898 7.434473561636057 -3.167351240359474 0.770874320464324 0.849868893991672
Ni 1.662902996400481 5.580105390709666 3.0616552218619453 0.09693521716616854 -2.5253280119333086 0.3847437337095632
Ni 6.443364177662037 2.1113492395919597 7.55100873533539 0.5254586670648435 0.6468522743836924 -0.8247561580844441
Ni 6.15708470741935 5.277799744741599 11.71149180630948 -0.14353594774384312 0.4578869906624566 -0.06051374111434095
Ni 4.0412041198150215 4.242978573451523 7.425703091319872 -0.8842545705603931 0.8968198088199135 0.7275792572211147
Ni 0.8041635355167724 2.862988903055969 12.773032209869227 -0.4544553392730883 0.1838117645447544 1.5156558004963383
Ni 2.168869616402035 8.214658868048193 11.47825962505323 -0.7764050204745662 0.3749835689990058 -1.3310030281075271
Ni 6.42470242197028 1.2828338699507544 2.4637521745139206 -1.8786441448066806 0.14344390225066908 0.03264478261821475
Ni 1.8906356007935552 6.937475311639393 -0.007153981270140598 -1.0640235324943417 -0.9346242812621967 0.1057795549306759
P 9.124572044229959 4.287071363906578 3.1151445484708136 -1.5028951583965602 0.5545676686156578 1.7249320278607843
P 3.1043063038371463 6.67229897642574 9.243719678773157 0.5156079995230088 0.6964619669910199 -0.7569176011739157
P 4.262315407520633 5.904882823759482 6.036227182575157 0.5101024963237473 -1.1473432157596046 -0.5539374912308267
P 8.238684260162755 0.43103384488027435 1.8264624652894013 1.5967756478968047 -1.0962188862799638 -0.09272683551177578
P 5.488701627945874 3.13611821641378 3.8582088670126393 1.0360848971025447 0.3520087053703873 0.19151016163027662
P 1.7818555055496774 7.052321864630443 4.7271207418016665 -0.5968258059539204 -0.09167448298786147 -0.22882226781717363
P 5.635138149937441 2.540532629906367 0.5913030002532741 0.596645057401682 -2.0243323630068364 0.40053673487776176
P 6.068094581045821 4.1297133684403 8.146231814001814 1.3636010166482064 1.0186147653422395 0.1532495754871812
Ni 5.066601936769171 1.9329713379376912 12.127012719984142 0.8210897649764504 0.41427053952408655 0.2106221998693792
Ni 0.7670795382424823 0.5897456961608599 3.28898647828821 0.0019676652493320953 -0.09617905572643436 -1.7779072945062349
Ni 8.199178303614099 4.0266668155794205 6.920757411768452 -0.4942971538603744 -1.3845981877251639 0.9548038415338653
Ni 3.55444486679651 3.285107089530682 2.8594979155566436 -0.41450065325702157 0.5622190145133285 -1.1931402194890612
Ni 2.842107711603051 4.809702247414846 12.64174333694758 -0.06064358182398588 -0.39600722243852443 0.29222695732606446
Ni 8.694195707193927 7.4575168534263065 0.9675482238395012 0.8930711404107586 1.8445130074509264 0.211573508039055
Ni 1.4309164734651825 2.4695661714432604 8.943272810255062 1.2017922387371043 -1.4228790855832334 -1.4835692043744386
Ni 3.681285620546831 2.3095818436596094 9.266864694702459 2.1032204928633065 -0.4279639778507791 1.2262277460716495
Ni 9.511207001473117 5.415959620873839 1.0960933193014135 0.6787645497112569 -1.673545702969008 -0.9740511197992515
Ni 8.415573290327245 2.19947933460804 9.019609378495277 -1.7350488045798118 -0.7668137772417051 1.573186033502323
Ni 4.910390649779493 9.290743049197845 13.824379854695843 0.5157486388659311 1.0130156739879068 -0.09730879845550339
Ni 4.775818861461129 4.999417766749041 9.662732504712046 -0.23924166337828479 2.338316509504334 -2.010401868968673
Ni 1.0240938984444674 7.16869427970729 8.488501175144277 1.627908107635551 -1.5847282298139675 0.02161629271819503
Ni 8.025572188846326 1.4903233706722443 -0.11630583200401276 -0.36189099748110576 1.152698052313615 0.24958855383024758
Ni 4.7216646288888136 7.897085353573144 5.344026783089728 0.2163526745952532 0.9429587692698213 -0.12174456290036452
Ni 1.5576462554274455 6.116857434248317 11.050327441649177 0.41114947739660157 0.9261499252425984 0.7080753828602322
Ni 7.348819987023472 0.521516541803185 10.822995260458011 -0.19826753495876823 0.7243535511949654 -0.06361166331337431
Ni 6.34158455271482 3.2806959609553754 10.286378232594831 1.0543813814188874 -1.541458877602371 -0.2609500015896538
Ni 0.12372244650589066 4.466013372150141 10.913963458953676 -1.8671577414336358 -1.4890713651395904 0.09691541967182664
Ni 2.769763353438224 7.3615262567561155 6.949505578229783 0.6474937646224334 -0.05433100934239675 -0.6545000207369372
Ni 1.4903603612682637 7.671137545438002 2.540170122065377 -0.8398966132703084 1.6636143027879093 -0.4507380383225011
Ni 6.586314335978782 7.891425792382184 3.059854704600704 -0.5513738442687085 0.8034121451910292 -0.6557488055423739
Ni 6.214494112441368 9.005499315643698 6.908021549558992 -0.8123205034242527 -0.47247902954401855 1.8870169422514085
Ni 4.324385627641088 6.611930323722175 -0.015203134963949254 0.40365239768860806 1.7045475506671612 0.39046598090532114
P 2.3459435995466222 4.240444717624198 1.2298725841000626 1.475061938234376 2.3874433489379725 -1.4241414972354247
P 5.688746771218471 0.993789352655622 9.101820053383362 -0.16404255233762716 -1.7760949238878445 2.053698474873779
P 3.837404431046461 0.15720725878749883 6.82352300630711 1.9381942364561713 0.2609813690482215 -1.2510514899835485
P 1.9542409306488127 0.9889805751731076 10.316223170228135 0.6833159165273651 -1.1704008689100167 0.1866147812111883
P 0.1503880424113333 3.993338288565994 8.733983717037232 -0.7188372493624265 3.2963118613923035 -0.5960593601015413
P 5.29407560699011 6.182802419301797 2.093262687668303 0.9808375465934657 -0.8153250945785313 -0.03316723078058804
P 8.330874073091959 2.5194757331223565 11.50641224291865 -0.8165913628854645 -0.02654484036806396 -0.6867205713335398
P 8.002277361003145 1.98948372100624 5.859718230784767 1.0959959716358803 0.4873096667989478 0.055206212858498464
Ni 8.441050563335565 2.2658589591647478 3.35760865772859 -1.091082850604979 -0.16290869584350007 0.6909891168019068
Ni 5.112174351064999 1.5765022117483045 5.541418775862837 0.25242190951398463 -1.2291618889993088 -0.41093556161358263
Ni 7.903133316022306 5.993521539470829 2.6679532112492907 -0.2583079359811164 -0.4258739280909698 1.2284630631600713
Ni 0.8359162631397749 3.0580680588129696 1.7533477779624718 -0.5347596327507952 -2.9471827915625566 -0.4825143022928335
Ni 3.1538367119070445 0.8639107462072124 2.0941689572707767 0.29064907131598333 -0.3689466187763065 1.114936517294125
Ni 7.201172023012272 6.1991615103913515 6.940775797569218 0.2632390547341466 0.9973867092013985 -0.3675805916667153
Ni 4.849957263532893 9.156485680945645 10.942860512563987 -0.18216600141121533 -0.12061327750939872 0.04408413480340795
Ni 2.0576758847678955 5.32376056029563 6.009089031805568 1.2975846005480813 -1.276023586547854 0.07961986581617254
Ni 1.1983288533445693 0.7361119360199904 0.49166882987517857 -0.8212879970301856 0.12230326361731196 0.9323426843168717
Ni 7.124647727497259 0.3270976681851293 4.874610571014884 0.6813878462667168 -0.8709154302493259 -1.0446320153416073
Ni 2.3127722825662778 2.9795925093579374 11.207764966896896 0.619674685527636 0.4219064588027895 -1.3227855252937413
Ni 5.050353817467675 6.945493023326585 7.912714805156216 -2.2028754229534835 -1.2338361545465266 -2.8685229756668083
Ni 3.0594459585146905 2.24327620029494 7.1252423513282706 -0.6576028280319771 -1.1721847002833168 -0.9438658544651228
Ni 4.986979678837539 4.460705221621366 0.15853707071439416 0.03027011173845109 -0.7347536634823669 0.44296816456909516
Ni 7.35659725983654 5.454725765502109 9.512238114337157 0.08255066630972234 -1.527544581514124 -1.0317394756496554
Ni 3.8948045884194737 6.684061985959891 11.215371158203373 0.8746563853489969 -0.0032671007870459863 0.012187543205127398
Ni 0.7484399769083363 0.8679686145905342 5.565010453239073 -2.5859638804478107 1.5215711375395085 0.8198975444405621
Ni 7.726891621288154 4.1464423654900475 13.309527168765541 1.177143586950489 -1.6733479851359052 -1.4915851327003795
Ni -0.09188926433654607 8.76285950105483 12.36262802038894 1.224585582482536 -0.23121879307380822 -0.5404142599334112
Ni 6.065070599821239 7.537287073742016 9.591768820543642 1.2733316415379878 1.5831269467651186 2.075136075922265
Ni 9.66610512230411 -0.27731202500269797 9.585570121415701 -1.3975388070462318 1.1989118318655156 0.8403113322102238
Ni 0.25281870184849115 7.808668581437913 6.334481433514205 -0.30918518244695786 -0.6084821592459263 -1.1201226894807548
Ni 0.6413059631873193 3.245166493478798 5.145267063028802 0.8170019680603219 -1.3347930912775787 -0.30533881211767416
Ni 3.8473733966736736 5.967461664575202 3.7605148533957578 -1.5651770471549173 -0.6715191810027532 0.3604311251061277
P 2.4113799639048366 1.831626352493701 4.117036691184472 -0.9765438043141182 1.714010495852274 -0.14927387866888484
P 2.9304042643012185 8.690866553552187 0.30417552059684405 -0.6967399032427549 -0.027455010887159167 0.2971045971333399
P 7.8892340995680375 7.257850863762907 4.812065946500482 -0.7948807106812504 -0.42841829177937824 0.4264999917107429
P 8.238258868308533 7.260088794822078 8.833518937570975 -1.3613477018376556 1.0639371434281224 -1.1335659594698544
P 5.845586898340478 7.457655568161379 12.032633988535494 0.07581283336525653 0.2839351496309175 0.3181575611488972
P 4.344813684292769 3.650999570055996 11.048108005888016 -0.9476592600692841 -0.5345655144621181 2.582003353138166
P 9.135290069426564 6.250485962368186 12.402270842142865 0.1440825642759325 -0.14200279892876835 1.761500056792805
P 4.8432712133023985 9.18598568127107 3.5489647099962447 -0.06276319927014996 0.5012314190863625 -0.500384497705035
