# total energy = -340874.9936261778 ev
CRYSTAL
PRIMVEC
9.16978411893670 0.00000000000000 0.00000000000000
0.00000000000000 9.16978411893670 0.00000000000000
0.00000000000000 0.00000000000000 13.42090595404534
PRIMCOORD
 96 1
Ni 6.389441499811429 0.7436438299444849 4.369618617694985 1.6678504523564437 1.8219752313597268 -0.925287320131987
Ni 2.2830928907481125 8.708947603946806 5.958775245139176 1.4154627385145042 0.11983577591342588 -0.8793872151657629
Ni 6.742835816288823 1.0063196365546234 9.602658621594115 1.2947592152841443 0.8828913716642796 0.964068554665243
Ni 8.20110661079309 7.16939584155921 11.791809823299545 -0.8165358270571809 0.6454471665060496 0.0035694625188132075
Ni 5.303766550072879 2.54801712846441 8.100415960518218 -0.14880465234195017 -0.2549127942566384 -0.7625835412104415
Ni 1.7891991394886375 8.034069820296393 12.481094255036767 -1.4130009072375729 0.5908127669906212 -0.018166643606697747
Ni 7.575241324134599 4.11736151998704 1.4819233360834927 -0.6151557146113599 2.847016726163916 1.0272413306689856
Ni 7.9122308965299455 7.555031119575162 8.66179932409959 -0.1071016161762091 0.5180490048643336 -0.4473490672456102
Ni 8.607007112074177 0.8356681170936203 7.6348852690240765 -0.055375134336194946 -0.2774058331528319 -0.013527602172789607
Ni 7.806530793101342 0.24688452109661402 2.1534248051609532 -0.1164660881102446 -0.055644585947497716 -0.27539600181165474
Ni 6.2830261532087635 1.3447855442195105 0.6114109556934079 -0.48343912809994805 0.8276357936250843 -0.5109121367092362
Ni 4.441770148346292 7.4496978075178735 11.105853106278573 -0.7944747334920834 0.12048240835848928 -0.10698823052679639
Ni 4.024242360594529 1.1807472731833106 1.6885644248978906 -0.18264088416510482 -0.02153993095430484 -0.6832999756877652
Ni 5.532020820441994 8.224205297401632 0.9177789504545489 -1.025329972578886 -0.4463221686429926 0.838848374511452
Ni 6.652898572042467 4.4171217681939465 12.73792982603715 -0.34788285612747183 -0.10359463146421515 -0.7866539518960839
Ni 9.029092282614524 0.26029441363187805 9.925229625183078 -0.7840106007359658 -1.096353354975299 0.6561218726110765
Ni 4.094180305319953 4.811019021848762 11.64906470834659 0.03507601776752669 -0.2702432539661217 -0.1317770074357021
Ni 6.142049889643973 5.808068006493407 10.8263094814801 0.9685458737103061 0.41083785969345377 -0.3143847243700263
Ni 8.221078400961174 2.6621809427860983 -0.042916424400672004 2.078035251846931 1.1587645702226688 0.9777846186997546
Ni 3.8413968619941703 6.028262036477882 7.350254247905471 1.399836601941473 0.7633990951332014 0.09307367732823325
Ni 7.430496279229551 7.727322196465941 4.0970935457866196 0.5290304435765018 0.09369845539642573 -0.15095717990857874
Ni 2.8391852887982716 0.14366942920866818 3.677287983618993 -2.502622085695361 -0.18530300437830022 0.2962445631258898
Ni 0.620365250045627 7.21069654996924 10.177395025048197 1.7183636306146473 -0.8008130170052854 -0.32970438544623215
Ni 7.432614499398894 6.4391325608402825 0.4965484038093649 -3.2735177463159233 1.6484699909473028 2.1588072289896756
P 8.333371579289157 5.750069120904277 7.170722709344941 0.526765301691409 1.2938356750286104 -1.5976271972638227
P 0.9615619194699517 0.8090977501555863 2.3004907224679956 -0.233887598155223 -0.7487111541037235 0.2954395507260912
P 6.528391241049706 8.179007430671382 10.435506113042324 0.11904824701512401 -0.9765283776951503 0.37927782549898553
P 0.7017846816716273 3.623632824844656 5.463705010556209 1.423533688448097 1.654862524737208 -2.3734053827876673
P 0.7415411984084236 1.242845052346883 11.53057183886496 0.36993237972834353 1.0034133750114524 0.7465416572562303
P 4.513551219712571 8.279462417490185 7.383833997949328 -0.4437479801579132 -0.6255427142726387 -1.653968552168029
P 3.157551029315115 3.2683403630207084 8.082391832531815 -1.0875969489389075 -0.07604011888471421 0.8728527564813547
P 9.075849012672862 4.913225437465592 11.153967881389203 -0.23085755307964756 0.11914800581778191 -0.512329328771737
Ni 1.2523082697268013 3.4393751794647356 12.218621100659279 -0.05973546818741971 -0.9157212737101068 -0.7297181579409884
Ni 1.8132789930154452 5.848084945103837 12.037465593302255 0.559270730518282 -0.7537672284703921 -1.9120126929647974
Ni 3.1896269347365824 6.45799480711014 2.4403501063071324 -0.4365818014267771 0.14646083470012194 0.1303886117286077
Ni 2.7172454974047118 4.4162047897656596 0.402692910738941 1.525678731949979 -0.017676077123524397 0.1046277007144198
Ni 5.080207209256592 0.5861711244548177 11.61374086533213 0.3334368559054709 0.09202878100348666 0.8618654042319156
Ni 4.635096710381967 4.582021998952736 9.004461325052317 -0.3200840887476487 0.8490659384744023 1.4580466346233019
Ni 3.5414073691801917 2.415376198812745 12.902631072476998 -0.6790291162265532 -1.570740657285624 -1.713818434446126
Ni 3.817610441564415 6.796680789597815 13.320262478791157 -0.2501027744625048 -0.328878290000511 0.030294537218483308
Ni 2.558938341545304 8.385520142505818 1.3088253181758212 -0.9407244806226638 0.9636494648499532 0.8335760703689192
Ni 2.560322978972017 0.09606174316888165 10.747193499665956 -0.119774069437555 1.5705041157947857 0.18382050629550278
Ni -0.1112707473804441 5.278256210197943 -0.15400469307388706 1.425151683667494 -1.4263806709785887 0.12827850736414037
Ni 8.956990268798345 0.6714106882130603 4.191375433826196 -0.018193383079575118 0.7717564659589612 1.050461477539191
Ni 6.208604183969018 4.057116037248607 3.9897135378773956 -0.20130040824782106 -0.8723789021687298 -0.1494217171006588
Ni 3.6815766917280897 2.500242552350675 10.36862995928895 0.388670322457479 -0.47266672007479243 -0.4138087693963196
Ni 4.984630547676274 3.415799664073486 0.7895239286253793 0.8227926066001701 -0.06492189748436561 1.8279314489431615
Ni 1.7109717097715031 2.3235774883569684 4.146228000909503 0.5374456642233906 0.4049253508637607 -4.267505971358734
Ni 7.655559464668229 1.2632569921605439 11.964965610848198 -0.5986134939819626 -1.685544527202097 -2.683140524200824
Ni 6.131284562895887 0.4273110306031528 7.499830852149161 1.4339039759388272 -0.471224331201311 -1.53089935691897
Ni 4.149116482958607 2.217648140321294 3.796197161307065 0.9114470718147851 0.7014902734435466 0.2627970821007216
Ni 9.262490801966328 7.953852547389876 0.7556764208804623 -0.04298370265037759 0.07905653711353482 0.024807288851666952
Ni 0.6999736492757612 7.884859090445588 3.2092878692174764 -0.20281478800981842 -0.8035926366329516 -0.44702819357108176
Ni 8.636377931132198 3.4239791116538028 3.553158447738685 -0.41139090398344635 -0.2091345595802592 0.8565607041895508
Ni 3.677000969370939 4.752020629772798 3.943142954440001 -0.033792523069412765 -1.3206278555207902 -0.4752416798908203
Ni 1.3436026420470206 1.562843014466077 0.3072638826855771 -0.07877834375148367 -1.1047204959930714 -0.24325824073684557
P 3.0700621174722853 6.139821632063237 9.889650862165558 -0.19441782219537482 -1.878490649947952 0.7075984432238136
P 1.2928937349627687 8.36600684155188 7.745848828631044 -2.744171571271216 0.8115188334585636 0.9919215723217691
P 2.1916976508007817 6.987155548721519 4.485079039514271 -0.6919206274772406 -0.3264198011576895 -0.4368831347172799
P 7.037836946452924 2.3964772734057576 2.4178703801376855 -0.6374636340799408 -2.1810858378822178 0.6710237294235735
P 5.111402815386904 5.4663743347609515 5.336340374780906 1.118241670407958 -0.33856389271939114 0.6454667068900755
P 7.271198786667593 8.72962546750467 13.234745070569144 1.2509190781707422 -0.9687237940490672 0.7174269992784612
P 7.825824019232494 5.97486638259875 2.8128203250281736 0.06178463740696456 -0.1550040962844427 0.03972354384186707
P 7.500113281505073 2.666123950027731 8.243187667845593 0.5987037397029237 0.7034090877328143 0.7933460192042788
Ni 9.13703898319243 2.838717629799845 10.041052253481539 -2.013692109684171 0.7250719174182287 0.7764366450434499
Ni 1.288262993899921 1.5835392175925067 8.812234220152156 2.6270999883664885 0.19445381763963285 -0.8133522871228767
Ni 0.7978821869992122 3.8922524856269485 7.48889221647813 0.4141021322670223 -0.913028300258976 1.4121110484334518
Ni 2.441372537254672 5.304426774541245 5.874531519954052 -2.3191623051733865 -0.7788198005636457 -0.9450470192574176
Ni 0.4588211603343671 7.297873689146453 5.9535007852196715 -1.641098123963264 -0.7749276645980911 -0.19897844498286377
Ni 2.986598740929634 7.974814674260509 8.879996175067257 -0.6919126570574406 -0.9902130742710946 -0.09005134556214167
Ni 3.1258144059121142 2.7463320531499646 5.97317547437699 1.1921547156473404 1.0551439706165247 0.2976910657644292
Ni 3.215201463101497 1.0143798769392631 7.630992695596 -0.269692009448342 0.24745993752301895 -0.11777297984712622
Ni 5.461083369229737 6.468503379898305 3.0765277323701348 1.1369739567101385 0.019754556919107914 -0.5412557819981001
Ni 4.572595460709949 0.5060858964419744 5.630552903496679 -1.3408909766452004 0.19275200445717772 0.48479384235562967
Ni 1.337046246284771 6.051397402223554 8.093893492957815 0.33113880389991357 1.4466113962031666 0.2743390213020501
Ni 6.368892013233525 4.644569097546168 6.9117395748655115 -1.0522990449685619 0.281406983892425 0.9731656318705046
Ni 6.697353686245806 3.5092397659158956 10.188078740716165 -0.1963651757297328 -0.31614541581487493 0.16182214764754066
Ni 1.0974214434049026 1.5985960033849735 6.07968435277934 -1.4037559916005373 -1.2469130423351427 2.741276509111608
Ni 4.236046037960181 7.312343608744816 5.104574994009882 -0.4734089975574557 1.1051174743211742 -0.2447191415530882
Ni 1.2250098219167076 5.123470251503156 3.4395769147189585 0.03693184002934285 0.46033853752674275 0.7901568228430198
Ni 4.608999504312929 0.3287835324406083 9.306768022354577 0.2580533967681491 0.17464115378907988 1.0905310918665672
Ni 6.443552396864625 7.278176992506855 6.449188146284874 0.11296450271488931 -0.7125514163537148 0.20141507944881443
Ni 7.992457339220745 3.211451021329805 6.144158023050604 -1.3191872664195217 -1.5609126154516084 -0.15769321308083162
Ni 1.9694312495683794 4.103643522699871 9.779626288469155 0.49567089427944955 1.0348152863615017 -0.0311784824853334
Ni 7.961986146048779 5.4581857173963515 5.0222376669771664 0.25707123536053794 0.11837538931781548 -0.1056725970391664
Ni 0.8231128484535195 3.6588447964908637 1.569535123035713 -0.005338381493777903 -0.5137254377883153 -0.308625710399062
Ni 8.232256368001988 5.148402894968271 9.092046519630117 -0.030047968425315996 -0.6801249203938933 2.082232063537098
Ni 5.465136413882765 6.956996128215171 8.82785586465645 0.4090529998788891 0.07981784075959157 0.35491328061169203
P 5.437498684054204 2.763369512347531 11.827428933367912 0.10921763407794739 0.3908447044009785 -0.018704518388038754
P 7.704461924248755 9.050329503013643 5.984731236530258 0.13880743191992223 -0.6076244392313213 -1.3547888176732152
P 2.9028786104270625 3.3527482273444953 2.2905323367368022 0.5821419786895007 -0.48183167440351204 0.6592786730725032
P 5.431474135780362 2.600504973699538 5.657193877773691 0.2213352154115091 -0.19309267562604812 0.0021381293889253497
P 3.390142607650025 9.351162615981645 13.017513797886465 1.1913802993751612 0.1719057571357878 -0.23751928137053932
P 1.7169687486924978 6.195335506111711 0.8755621805946595 -1.3120930785769016 1.6009133242142624 -0.27521782436257763
P 5.1572425670169535 5.475672496023778 0.8835343910501837 0.9147882203728762 1.8276429711684652 0.1870816935452778
P 4.7713046861196675 8.941869294515898 3.352395190649605 2.4506919724849734 -1.166378892234817 -1.2021974445953232
