# total energy = -340860.76042313414 ev
CRYSTAL
PRIMVEC
9.34315127615861 0.00000000000000 0.00000000000000
0.00000000000000 9.34315127615861 0.00000000000000
0.00000000000000 0.00000000000000 13.67464631286160
PRIMCOORD
 96 1
Ni 8.304575858566604 7.604633686181986 12.923881200739785 -0.18060328490978575 -0.45166852055657053 1.682229089675619
Ni 8.77700295600311 3.513837706542271 0.22872034145332007 1.358599449668557 -0.9666221743250322 3.3487124864812072
Ni 5.21953273334209 7.55187291133775 1.9476658252894585 -1.2299388763746495 2.5704295322576374 1.2404037804617152
Ni 1.877926676078843 1.6623521483683668 7.211584132737274 -0.48139330131451286 0.26524502942058187 -0.25610270079968156
Ni 9.362117800100911 6.87869886715018 6.62714386415634 -1.083984806107617 -2.116015587745446 -1.3042614983476248
Ni 2.0373021493023207 5.589568236743182 8.369649038066363 1.1967330790466422 0.6627622607457295 3.049420137667929
Ni 4.176482019323881 6.335628203466592 4.051770571379242 1.171969241838401 -1.192385600711224 -0.47017300711866117
Ni 8.82246672975768 2.196985946515502 5.721663577083678 0.8989792783650775 -1.7037790479322528 -0.32027846414664196
Ni 3.874137646389672 1.9764034897601335 5.823867373779908 -1.6920990404911633 1.0090291785363332 1.0603139448532384
Ni 1.9769921082859325 0.3063077376745889 2.900843833569365 0.10458682017415537 0.831036077555885 -0.8854426773312235
Ni 9.036079195715494 4.9024542109605 2.7195044804975024 -0.2431505115143877 1.151392960348946 -0.17725442304221087
Ni 4.4349135816032454 3.1765873207130615 1.044182169628911 -0.38581254129370973 0.42825708361116566 -1.3754342618377087
Ni 6.543289082107993 6.011392827263382 6.565033397903104 -0.3657214269707895 1.2741693069479345 0.3756571980272627
Ni 3.1901442331088448 7.664289706614153 8.0657845344314 -1.0751864910896967 -4.603856401366574 1.0593631509041948
Ni 7.878715026726641 2.72313616337017 2.9753844281832844 0.24044802498156007 -0.0779195952956142 1.4440701178385518
Ni 3.1788763927578354 4.427495119547938 5.055475407050709 0.13885988242441244 -0.054369061669183795 -0.09867559689604297
Ni 1.754970806245277 3.3083724684336127 12.44042731625331 0.07868295582419997 -0.09804541951121179 0.9817924543075673
Ni 0.7600999200363957 2.33018191006773 9.502429507609465 -0.1157909164200909 -0.37756392813167233 0.042107984913643606
Ni 0.26600605495976476 4.143005508562965 4.9778861421992 -0.23079610371409284 1.8337904788271 0.448618420876337
Ni 4.283563875263281 8.796688975588166 9.829035241272916 -0.2908735286219636 -0.020118368016429865 2.077147707035655
Ni 1.5854673571175755 4.655318518485754 1.0163498565098223 -1.146906128222186 -1.2105026220269088 -2.188035015506541
Ni 9.195445325787768 8.797968987302998 8.836432872176161 -1.9805647310025827 2.0488264914934584 2.0605116411408706
Ni 6.771177883104231 2.4977326405939713 0.8969182233100877 0.4951844415613343 -2.012347165620502 1.7687202286903283
Ni 5.873880327855296 6.992591880316681 13.54157841602836 1.5357530854668453 0.34133734169947016 -1.136006964811179
P 1.887307199886814 9.149224756785742 9.37645860288264 2.45510527106132 2.9820086409924906 0.10176837688875376
P 8.590691177860927 2.3847085404893633 7.821473276565369 -0.21043939443461177 0.4090357734877085 0.5177384156024503
P 4.603286509435365 7.354545557927042 5.988360090917356 0.09503388637839763 -0.021838178921014004 0.5158453123447956
P 4.60942495977584 1.977674158323763 8.380151674333833 -0.3133318576254797 -0.37748139572019507 0.11836767600833163
P 9.393697651167587 1.7002012538923619 1.7621697042473106 0.791678658804185 -0.04623254860497844 -0.7868408710959095
P 7.808127519386777 7.321610949935909 8.235952281609645 -1.3111188875890902 -0.7139128154776156 -0.02722104049948215
P 6.090903044002261 4.578358982025338 11.359268691422779 0.4305739046698004 1.0540972745195654 0.4334517404382277
P 1.1034635296978315 4.6438825014130884 6.948033457913699 -0.7946588244784314 -0.9477240518689484 -2.6308730822556754
Ni 2.3646301085537753 6.525910820870118 6.193246987966539 0.7074876286775622 -0.6057974133249114 -0.7489844623697681
Ni 6.021978617576561 8.461494083023652 7.318246481187651 0.13369890704876328 -1.562470961077664 0.4031212077754863
Ni 6.799188650411301 2.793340601510703 12.307905928217952 -0.8960397361207793 -0.27155245969584846 -1.4130749550086181
Ni 2.808000005748459 1.707815922122936 11.064538986719146 -0.16174758565586336 -1.072406100131082 -0.7698425367656999
Ni 8.304968270917136 9.005732640607635 6.743610915479312 -0.8616422324775161 0.909765056126672 -1.1022419525455922
Ni 2.0268658494083924 2.516661864931571 4.382587263289956 -0.6656136141515957 -0.2245483230321681 -0.5050186540429367
Ni 6.6584807932917345 8.340575020152373 10.117884366609283 1.2090664038010146 0.8373093121591064 -0.4559617486152857
Ni 5.375554015283634 6.632880558995079 10.959832159815589 -0.29209891638863245 0.20480970695266018 1.7184644178585693
Ni 7.810715572270053 3.649845958606649 9.920162732217802 0.9998135734753362 -2.741467284966175 0.42458966206190746
Ni 1.2914010161493648 8.579451366963529 7.16081064615395 1.9742773553319741 2.0337019771471945 -1.904035331186276
Ni 2.278233989378169 2.747689964732071 1.9630913679258732 -1.108870256495387 -1.4619567683109853 -0.17423851903402252
Ni 4.204128403734027 3.4243770337720285 12.01502243019206 2.234612091935132 -2.193238928304984 -2.2237003301186347
Ni 3.405989712204212 3.9678214235037426 7.373054340460499 0.2693346261089232 -0.8762964920555812 1.4540411130083344
Ni 8.260896626691839 5.0417886248532024 12.483543156110526 -0.08372334646158484 0.7635078527969238 -3.1229811988845313
Ni 6.175664111717315 1.4701168123633805 7.025267683019488 1.3113991378336705 0.819573328331924 0.06490698508603014
Ni 2.445065297261767 6.198694979433101 2.1322052076484033 1.6271807425512235 2.1550634456765274 1.5051428167801564
Ni 6.807242446748424 7.879901606929441 4.599029769747205 -0.42945238947084746 -0.21494653827634594 0.2355667856298588
Ni 5.027942074770122 1.2615403049040703 13.702132060618558 0.8653230237632129 -2.212623246368867 -1.374637476968026
Ni 3.0566399455669133 8.139276827480325 4.4662075322431045 -0.16843296809583896 2.5290214016244956 0.46017732935853006
Ni 4.622094272807322 6.113989970625266 8.852856263361074 0.21821389617370807 -0.7871823135957282 -0.48906624447873837
Ni 1.1280173310597321 7.0384480664217834 0.30305632105588975 -0.1919426211820049 0.439632672437959 0.26498766199413715
Ni 6.949846963562231 6.116549994054932 2.2171251089339106 -1.401680340018431 -1.2883471411102134 0.621910002616058
Ni 7.407642686214592 3.8860314778712928 6.503880604648191 -0.027542685504959016 -0.7476698573234027 0.7472211998217583
Ni 5.261147128800958 3.540232108691194 9.636741977730471 -1.0381623484568636 2.0298296386759818 -0.6188501327438116
P 1.722662189384755 4.583815382327982 3.421314348807633 0.7867238859020709 -0.18503226721541682 -0.6719531832163782
P 5.19586653134449 3.8252355929923407 6.142295981510355 -0.16675815149657733 2.565219448811608 1.4933609936538799
P 2.9440923461736657 8.247965705426667 1.641859814834479 0.29861023514458895 -0.7507742072803393 -1.1678174244535566
P 8.322570767783887 5.861276416882235 0.715640535036166 1.0629297852095307 -0.2989547629682013 0.35215422980931604
P 5.885690070976088 3.6646455101124524 2.7148543941436905 -0.09961456377054458 -0.37868672888220584 -2.1818173167316037
P 7.449752268687227 8.906956846087843 0.7497299565160102 0.13231642487893988 -0.501162256411324 -0.4202270142178376
P 0.9010693853896512 6.53955182162673 11.917905045010828 1.2333736130878115 0.3078628640911085 -0.1403441802794228
P 5.234463088964738 8.911992804586344 11.973465962270652 -1.7344929320763418 -1.2077823948822681 -0.6566342934711208
Ni 1.2795258709701502 7.2730732794355 9.757489126619609 -0.2590666685240119 -2.967904340380624 0.36500228941657786
Ni 8.337052652148785 7.828458216404851 2.7420943514764993 1.0299417603192844 0.3470631884396539 -0.48458378322735246
Ni 6.396022332843808 4.4795458149007334 0.11931577812481531 -1.1508244894399857 2.846341811584079 0.18115761475135897
Ni -0.36846211673848056 2.3107014398091446 12.088510051665384 1.4885499454184816 -1.1833178340820008 -1.2317957270777302
Ni 6.670355938470948 0.4538706648319133 2.459754599583373 1.1778588678499586 0.5578160003496264 0.700735140445077
Ni 5.107629811381861 0.26014322757978275 5.233355925547163 0.9206559920075628 -1.9791951043485656 1.2391686225030336
Ni 4.6030062148992705 5.365734363369114 1.7114233128024756 0.3498602915688168 -0.10457113644487152 -0.2427188232936078
Ni 4.323309640481517 2.2011810214057204 3.093177272661985 -1.0337739895811808 -1.4920276195544369 0.7646016000817348
Ni 1.1408081050568561 6.94617510513939 3.937231946464602 -0.8650756836390971 -0.39662325875596854 0.5282102616680516
Ni 3.909314610669564 0.09953258976724749 7.672105252595595 0.9672734347557859 5.493172702720591 -2.3055917655778035
Ni 1.039939444667557 0.3823563168926975 0.0645994817337582 0.19874293193328998 0.43416830688927804 0.3563875511643733
Ni 3.6076896603779978 7.246165003970403 13.293150565742218 -0.5842883356085421 -0.2351091292671499 0.49555133798244977
Ni 7.06538437134049 5.61159938728023 9.571882756393265 -3.6428235482038613 1.8978384583469443 -0.5966612553515982
Ni 0.7936380955952534 4.679022093088168 10.736881214230218 -1.2620216158418072 0.7366675926756281 -0.2782928637434755
Ni 7.086088794406689 0.3935054992234266 12.427449679232124 0.4168035903585854 0.5412303280768034 0.38412384073737715
Ni 5.718017879484206 1.493969877385044 10.454841377490714 0.621264141501943 -1.5838969921619237 0.22669056618615152
Ni 9.13199598596712 0.5564295012738638 3.7017537037460366 0.9262185736970049 0.6834691542757778 -0.11176534020046558
Ni 2.1630422781944274 8.447329865799663 11.56190015177152 0.3932196323910582 0.43539600864879213 0.7518671832342019
Ni 3.107653551136158 5.794893327583794 11.206263378689615 -0.7408253235977434 -0.42826274003812054 -0.1377162557382725
Ni 8.497026087049264 6.7469510920344415 10.785357219932687 -0.07427711344702047 0.6974484992740053 -1.203658345411566
Ni -0.3121836454662553 9.044161021506225 11.349737742880437 1.361382925950965 0.9212234344752587 -1.0127292530957397
Ni 8.83423910027366 5.268939316904392 8.34399554780785 1.0298116624993232 -0.839500149162838 -0.5744916612330945
Ni 6.1908747618760565 4.8440221433359465 4.3239645953808585 0.9027282038845486 1.6623544622388788 1.1336929719660218
Ni 5.831583882358597 2.51884816231311 4.790598004756286 3.218376582367405 -1.6101577256306656 -1.912465978452132
P 2.5173158855157913 3.852573653412782 9.897969010849819 1.2084357121955511 -0.7051427825944694 -0.19435637282982013
P 8.450198213219032 6.367721927849441 4.607371335141385 -0.6657331704485954 -0.45670171210510374 -0.5798197583142272
P 3.3803521053027454 4.612554915428897 -0.392663681300022 -1.5963169630928316 3.843294261461536 3.2224834054469276
P 4.847572540793147 0.017570730152659877 3.271125996162221 -2.4441364307546425 -0.8890093116365592 -1.4841101644795731
P 7.509081278827284 0.7114108904864961 4.949510991995208 -2.72300959248162 -0.3291099463953429 0.4684272280721481
P 1.6995378901569376 0.5708076766604044 5.092779806859561 -0.16421250225658815 -1.094004395127148 1.4590277675896488
P 8.128550889899099 1.4505802831975763 10.29781570679483 -1.0738163502150475 -0.9025166020943747 0.29748692017342315
P 2.9954329620350215 1.664192749155389 13.495029902419105 -1.5272861856464148 0.21813290642412755 -0.49771389285140727
