# total energy = -340897.74164879095 ev
CRYSTAL
PRIMVEC
8.99502777753306 0.00000000000000 0.00000000000000
0.00000000000000 8.99502777753306 0.00000000000000
0.00000000000000 0.00000000000000 13.16513238376604
PRIMCOORD
 96 1
Ni 6.361958247089784 1.8909167421253685 11.32743753754104 0.8659400885219216 0.744007577980467 0.27496817024561676
Ni 4.550332674520948 0.21316866497282844 6.061885021078557 -0.5522503333363908 0.09119908601333972 -0.25360615963007294
Ni 2.5775251998212543 1.457374394957388 4.756602153214722 0.847339956922231 0.7186333608817365 -0.053380472503669354
Ni 3.37914408224202 4.454751509721434 5.115786204040555 -0.04102169382800032 0.2551033130008897 -1.090134884869413
Ni 4.91923675232611 4.568592580839694 2.6326179457429615 0.20592607994529052 -0.4924577866587906 -0.13736787125991826
Ni 7.212671990933074 6.0631164403766045 2.5569319833059136 -0.6760206684175325 0.5673709910279131 0.3581893802598025
Ni 5.154033961507524 4.57485312014898 11.48291839108824 0.6581908393249631 0.28317924530149935 -0.2570257268345832
Ni 5.743172298577818 7.728626782284485 12.054561399197963 -0.2917129938041234 0.5631811213162817 1.3676469045828057
Ni 1.8214391478366954 6.357370782940738 0.5008134611512407 0.29410206286159024 0.8387452732746844 -0.5267092516424929
Ni 2.7003523036549977 1.710674376206617 0.14522022540050336 -0.12656949509283363 -0.17379731773154586 1.1178048399808556
Ni 0.4677711262392763 0.07139083668965747 4.861133370618744 -0.12027954831906382 -0.13369813571781491 -0.08758077253446207
Ni 8.529696968012916 2.4411605792339564 1.5521298162100736 0.3237491963040618 0.06194610268549332 -0.3032567327776648
Ni 6.6630757958219995 0.7374456559922727 4.917176890972911 0.2956256985949683 -0.20273482670150247 -1.11242712060871
Ni 0.799485261840073 7.421599500324971 2.6194141445186805 0.28410612799114293 0.4402078282151386 -0.2864322050211583
Ni 7.524160806653229 3.81360392223981 3.6602099151290375 0.11366744231918488 0.03545319860128733 0.37440147124329065
Ni 7.510371429122864 3.9694337828634474 12.461561218501233 0.016298480049707416 -1.1261241584798283 0.596894711518643
Ni 7.770858437538929 8.7138791560832 6.975650311390761 -0.25907078228907 0.3017582938552674 -0.3197596155286945
Ni 6.780991614507941 0.7884231767214545 0.4475503038725055 -1.105889062379876 -1.410961508210041 0.1859167267028992
Ni 1.9301440581135747 6.336367393160307 9.347586056615627 0.34041482988520083 0.2881095927235812 -1.3411406307621612
Ni -0.03997930030753986 4.989721789722024 1.3861697553420154 0.1922562957676818 -1.5183091789587853 0.035971275888286434
Ni 6.190468043165191 2.097982280774419 6.902281468100368 0.8430840098593545 -0.4487246074368982 0.21473339382427534
Ni 3.366002346709168 4.529338279768259 0.6001446530169051 0.9028001947730645 -1.1893241881770809 -0.640837178537864
Ni 5.899640806171225 5.619985393634345 4.674332729972408 -0.009976137376105398 0.13452114583974253 0.07420666522040123
Ni 5.372298309696889 2.863495121833878 9.147318060432132 0.11425776760501612 -0.1547205036057529 0.5802380767985684
P 0.20922704381574705 5.517388107195115 12.45322822479991 0.3997031832328729 -0.0864857396980704 -1.2133192655400975
P 4.054319859676266 6.238708376952109 12.541196897620331 0.053921689719120036 0.07970496933081113 -0.12384335441092219
P 2.355770780867517 8.37147443000958 1.37836297076367 -0.35075426413799593 0.45818652418074635 0.24916406469831928
P 6.16966254399511 7.679810766722001 5.7153128986515 0.3300653683300767 -0.017613599316705152 -0.07159313885695412
P 4.652831015655002 1.0149539554068443 12.511707598666941 0.630277914964779 0.12116632179939131 0.2620848865250454
P 4.098827256949746 5.999260738427447 8.300655677084391 -0.6262394832293473 0.4870209319139355 0.2857765737150304
P 4.613990485859754 1.0641567571622874 3.908701154546738 0.35797032227046094 -0.7862063228357041 -0.7292587018060667
P 0.17346101450313398 5.628179863908424 3.492630749267198 0.1495009070780264 -0.9792342066620878 1.3307042659201858
Ni 1.3957944350272669 1.045420114373149 2.6656494866216343 0.01883461620799982 -0.14351563602886896 -1.2270597550546416
Ni 1.7891649882940024 6.504250590959868 4.96358403810576 0.7214667165654737 0.3609479168415461 -0.8970782046876228
Ni 6.147372865247397 5.721242420939834 9.18174473011378 -0.10586645821752735 -0.3944964422209528 0.30579158338437656
Ni 8.614834905602544 2.3133322399749794 10.111255816490502 -0.08018473718070705 -0.052068181450149034 0.07016463394054367
Ni 2.419365627012121 5.182952975701993 7.138069029836311 -1.0879581889330683 -0.05423716407700981 -0.05403610380979726
Ni 0.6042652752260766 9.09298359534918 8.998868620071812 -0.006681782895549783 -0.006572511011195133 0.3827256748382699
Ni 1.3465916332718235 1.0085674857091542 11.388971622829672 0.34869301073359305 1.2539856329112082 -0.46174210274248867
Ni 4.038695496486284 6.725249427583173 1.6349650266974372 0.21351263404329682 0.8746784968361839 -0.3868718357961595
Ni 5.635825637490166 7.760082394302546 7.946026708307728 -0.7164877752936435 0.9029596031690642 0.7039677884497618
Ni 5.127462649554036 2.9981506871499626 4.785275603151802 0.5699040418624121 -0.408341061413529 -0.5076113544707774
Ni 0.7195941239330675 7.4941623891295714 6.943935642573696 0.5727937047053813 -0.7772915368445774 0.38424699657880274
Ni 5.089440667283422 4.43639265809751 7.198720702903332 0.2562603094234684 0.06463779058504351 -0.36141714316848084
Ni 8.44345264201087 7.004203227956081 9.08561306961638 -0.26519849245336263 0.23182917296429753 0.2896684525702689
Ni 4.7710436702564705 0.3603111278020591 10.471137881469208 -0.9020139514263433 -0.5167197445299488 -1.4589092397339134
Ni 8.099887557358374 7.172662107531207 4.786999949970178 -0.36495652378030696 -0.3437310387426274 -0.32401504837093875
Ni 7.132328403130585 6.090020568356591 6.877728640372459 0.7062532420498289 -0.5999324699037022 0.272777333241885
Ni 2.284593126335374 5.127624560053413 2.687438142324049 -0.6118323066650818 -0.05972029867876812 0.25872805423767054
Ni 2.6966463522247888 5.049035002660853 11.330610983328851 -1.261903602206704 -0.4286414635337779 0.16858080652761287
Ni 0.986817508626035 3.2439758003445713 3.7472835826890085 -0.09328296512556192 0.44756015481515177 -0.39398813512596664
Ni 3.584320665064993 2.479047636088422 2.589225931909642 0.42406078614163095 0.3271517942277075 0.062114252832241416
Ni 1.1226784076597123 3.1966619544152053 8.113289249193006 -0.7193877225492579 0.721047626750184 -0.298232540090196
Ni 3.6450820774704806 2.6187943871071724 6.857586074747055 -0.6228800798388111 -0.46076199821740643 0.471026356257892
Ni 4.2080268937525025 6.606766922149408 6.1503547169442765 -0.5043830773414669 0.9550732931451682 -0.2613660060811499
Ni 1.092787930468974 7.267199849112507 11.344960751087617 -0.8976860134749509 0.07580100629071461 0.5549628471715474
P 0.31434923454249997 5.463651811457087 7.864902352097126 -0.01493939491865169 -0.2926388480525025 0.39579227821424096
P 8.513451947908651 1.6110814290336246 7.783002624495058 -0.4852090755161773 0.5530568883980862 0.3535917335867911
P 1.7301396162429568 3.1471893018274653 10.427745867635887 0.49971883909657805 -0.2882396905435423 0.21269913700306592
P 3.8615834002221745 6.178522646322187 3.775351667258969 0.2176114867030188 0.27224382933591823 0.7830338386449933
P 6.939555963565519 3.915715477180905 10.277057564870278 0.010343033797220897 0.24039197493264405 0.5113065439341775
P 6.618361512910425 7.748460818458298 10.058410928001825 -0.7597704972416786 -0.10156937350407022 -0.2400865278770833
P 2.382423048070694 8.495479882477685 5.838288420443006 0.503125550785282 -1.4371299390752927 -0.8424404627380846
P 6.7527652174497 3.8803380330667996 1.609305810557112 0.13214776051155952 0.76328828058695 -0.6516255274026197
Ni 5.248733613588201 2.8410255425313005 0.3598020092317925 -0.46275820271182877 0.7175812654681383 -0.0901665309837673
Ni 1.5753261937543037 1.0816610811506042 6.928151167889884 -1.1222772739299125 1.273566383256613 0.5787293534635258
Ni 6.938962291734467 0.7285594680847404 9.112246447261299 -0.5764030193231944 0.040605175115872 -0.31942974299310145
Ni 2.7966350806184828 1.6012948388489956 9.17037051753247 0.25098877661188385 -0.6742201248736841 0.1507239808518501
Ni 6.1851249966857145 1.8992191527323656 2.4886705167681247 0.17185690617572338 -0.1843756074680244 1.1308076799984268
Ni 4.154686379235176 6.908442162601703 10.277650337198557 -0.009968938287253799 0.47640124741656015 0.2791233300645709
Ni 8.249654769283078 7.210432229025011 0.2437922369246395 -1.2187296379223913 -0.1860069724238603 0.6167166313405765
Ni 7.494261334434747 3.884556701078372 8.13955383070045 1.2776593223790642 -0.34718865827392464 -0.6321789886422339
Ni 3.0796816186145586 8.410314959804827 12.44098419303583 0.6013761443287643 -0.8740953706392042 -0.5928825050354564
Ni 0.1203021995462202 4.698633696923506 10.111769432574638 0.08038965410266155 0.5112209261989067 0.3851551102153689
Ni 8.413652115097564 2.425041489518096 5.605278523274172 0.5892122552727207 -0.1500117852761739 0.9542322853011113
Ni 3.8225899549552915 2.6893243996418033 11.32814904423553 -0.8497547370113108 -0.25830382221605835 -0.5895871221136362
Ni 0.9020663572293647 3.3375510739573455 12.69724353841258 0.36457702895370114 0.1937753035153695 -0.7229026776810518
Ni 3.0641202206187783 8.373138510142077 7.935191297888238 0.522222676626049 -0.6833246582781135 0.8142110355787461
Ni 5.511127567885831 7.889655768943709 3.4664579170427356 -0.3308161304531722 0.1820436169007381 0.405771758024456
Ni 2.9777139841173548 8.325284962548118 3.58917078402414 0.7295062990404985 -0.37062709180252296 0.059727497767619715
Ni 3.3418956723573237 3.9881794206803294 9.10033163351262 -0.1846121489588627 0.9797196309389385 0.1989959284843605
Ni 7.374474549978213 6.082032983720607 11.35928443326593 0.1944191077469555 0.05113461389228613 -0.7153991702151551
Ni 0.5506782969485853 9.034605865295646 0.2609925289752352 0.5863562738811644 0.6799562560265128 0.7856468507878083
Ni 4.3806144910617695 0.23632636389776238 1.412355180605319 0.5979630048821573 0.11507152175556311 0.5084359072546017
Ni 6.040979677100527 5.667011398675928 0.3988179420680329 -0.32053763134529956 0.38531117617725896 0.03513155359581046
Ni 8.144574855186717 8.91592546925153 11.167771297584919 -0.1518796917228481 -0.4865748455154523 0.48132028198473226
Ni 0.07989653492365145 4.947535109606297 5.652318020857369 -0.35957777596689683 -1.018548430880678 0.3387001611869393
Ni 7.7913131306270245 8.597150681059363 2.6371739272949046 -0.03936307517865478 0.9253983917885547 -0.05002184044408159
P 8.406950819428861 1.505641713827536 3.5689490621545947 -0.7562593987646266 0.3485114908504062 0.020182388485145884
P 1.8752474037966698 3.1976064323282443 1.5442303828459731 -1.3617421090625967 -0.08255272319225136 0.4387523267155347
P 4.7630470905927424 1.0027656928147737 8.199270920384949 -0.012741615936384508 -0.298096528732964 -0.35883009916759495
P 8.281191336550826 1.6887534935963766 12.53658964441025 1.4226821390810789 0.7067242681489765 -1.3022691505079445
P 6.272169880156907 7.769617123710365 1.2942657578839325 -0.27613956484589863 -0.668587609178255 0.04117518868672909
P 1.7177444680127922 3.221155414960008 5.832890504294297 0.025872754001703826 -0.119210226514285 0.6516347833740003
P 6.80499934355461 3.9991443594993212 5.866382590593423 0.4692034441165403 0.331129547928533 -0.07596015757639821
P 2.4423299328405754 8.590377425168715 10.147288998127086 0.3957578254318797 -0.9445754789376378 -0.0012724389545203895
