# total energy = -340887.8457725773 ev
CRYSTAL
PRIMVEC
9.17426713292286 0.00000000000000 0.00000000000000

0.00000000000000 9.17426713292286 0.00000000000000

0.00000000000000 0.00000000000000 13.42746729817027

PRIMCOORD
 96 1
Ni 6.620242768737154 2.3725204770610726 11.551085564122378 0.47621278555483787 0.08838527071362842 -0.7817156340542022
Ni 5.065874243385745 0.7015250006234898 6.071081241222901 -0.1587800183871072 -1.3971035192810262 -0.3544299132173702
Ni 3.013691645173352 1.8563670445810332 4.499355920242033 0.5722555728137242 -0.8769256409991478 0.6581728416028342
Ni 3.650165588610817 4.353354801257766 4.733652019139106 1.0949703585848432 1.1919312867826244 -1.1798049358327358
Ni 4.115099088748095 2.9200957738208815 2.2592247023019008 -1.7471368460925976 -1.8892836267983977 0.10536560732170885
Ni 5.222488154369674 4.736252006390752 2.2573724178061094 1.2244038054890334 1.535991940950529 1.5601366565175325
Ni 5.936016765861382 3.1259479754878816 0.25886845547720033 -0.08096789520363475 0.21359799466825147 0.3377326550673474
Ni 5.69313722281244 8.072786105288221 12.665995693783824 1.0092322956860749 0.2643716256766931 0.8210437422298634
Ni 2.1750443811130293 6.805957454464273 0.20951640388403414 -0.1084668719548519 -0.27260352666818216 0.15166037662319043
Ni 0.8882607822613643 0.24085386490792846 13.547508802708613 -0.8374070140792352 -1.7678095439506003 -0.18408275881795394
Ni 8.864314334329304 0.3844843533141245 6.708241419827701 -1.8981436482921892 0.24970759590661512 0.2355045649333557
Ni 9.23490884749173 2.313080401537385 1.1830685110610668 -0.835799046162167 1.6006112195928113 0.08163458225335618
Ni 7.257835972741665 0.9882520350997993 4.780903163602326 -1.1721965273578585 -0.5080906081000411 -0.9899402802256823
Ni 0.6198116398155907 7.631320379991133 2.0694549905859767 0.9031992299836961 -0.01700116254368685 0.40348913263786634
Ni 7.782649913215894 3.6892479657879904 3.5862209480181173 0.408541093239477 1.475198206701924 -0.08044750392379048
Ni 8.200317590062845 4.418409528150569 12.573252111830358 -0.6372129515217154 -0.5759052537511694 0.9500282745220928
Ni 8.521059136657014 7.686953134733477 8.727692068440865 -1.4491285061980657 -0.052018559159136224 0.6059971880405434
Ni 7.117855007725393 0.9769309896921392 13.492455861637067 -0.9376401852703852 -1.0872495929018178 1.022157231277859
Ni 1.9389537956019058 6.914342244128857 9.029810770567442 0.7601114255208652 -0.04536634394994122 0.25449087622787137
Ni 0.250474918651051 5.278864024734399 1.5355787092254531 0.41225145221152876 -0.6509549836981563 -0.5624383296129862
Ni 6.624591371268135 2.269383368087883 7.020793098321858 1.2918718664340203 -1.1355482800072056 -0.49366311982080135
Ni 3.8620361093924243 4.214924287354862 -0.04434565412237189 -1.290423821133584 0.8805987189753607 0.6554677839668455
Ni 6.150566172590345 5.570284614178747 4.652012969893446 -0.36822028213324326 0.3845979521603183 -0.08402390842113916
Ni 5.865173076527547 3.1618468820358347 8.974986268742779 0.030248257361580162 1.706122351353449 2.2206360893710144
P 0.21112098317236458 6.369069688371741 12.588907998368585 0.012584007312597682 -0.4360534397271329 0.05476963954171213
P 4.128365078747671 6.379032942271837 12.734555908075546 0.4446432382786729 0.23616610977675453 -0.004807191580656237
P 2.594868010691584 8.755654316656429 1.2743662285443167 0.41668711938537917 -0.1133033741115468 0.45980400517951137
P 6.914956920014038 8.392307474378974 6.015075093815978 -0.3525743480658702 -0.19520123732861866 1.2358511280940265
P 4.893526464594576 1.2659846182651933 12.616877585997704 0.5202400989783814 0.7007173998332642 -0.18105374218364303
P 4.464409302602764 6.5993988342426615 8.010061642198941 -0.3974012745725737 -1.8170479692614383 1.5769025631219615
P 4.955902305540023 1.211929837437046 3.5098057263697995 0.00957530239326093 -0.039528654222241597 0.6210201438119369
P 0.23286124354718812 6.093979294085931 3.6736076755035665 0.4520989232257698 -0.22905958063896034 -0.7044771239860125
Ni 1.1254807200331711 -0.03413744729489745 4.424203077725073 -1.74638556974887 0.6465604541748865 0.13073185400063939
Ni 2.1199162110525513 6.683627779046331 4.6843063895328 -0.23933936529841363 -0.699547290784563 0.37896415091330865
Ni 6.545123871007882 5.9254296618091615 9.274311406585214 -0.9547344217485105 0.6557642321613416 -1.1526939385485568
Ni 8.965075308164257 2.922765485501294 10.480353199498243 -0.37596161664155897 -1.223479236792235 -0.38791621790027386
Ni 2.3953460532152526 5.5662846337916 7.108836703320425 0.4351486685246764 0.10558312264915365 -1.1255664862041455
Ni 0.8484325371817248 0.023965937535195006 9.280031562024172 0.7358026735721714 1.7460520976688512 -0.572325249709395
Ni 1.8486973574166865 1.1473888694930516 11.247276044598204 -1.185999494679222 0.7611583787281407 1.4204581348465666
Ni 4.528014495318572 7.09823125073432 1.6846504553555417 -0.7128982581701723 0.39972323783753094 -0.03102087386154657
Ni 5.736063617838729 8.367628696302308 8.19842218651242 0.9294512217016895 -0.026212139618993567 0.028109613752022557
Ni 5.479954781857984 2.937545229546464 4.868490807533827 0.10954056463500489 -0.37693169386431213 -0.8780651539202298
Ni 0.8104859342520945 7.653503757459304 6.475583845006648 0.4422294866308577 -1.2901852227602166 0.5897383029795198
Ni 5.434707297295114 4.702105384828911 7.055100269555201 -0.30676500304123944 0.446464864868444 -0.08932449469844617
Ni 1.3458007406692802 7.798695706099198 11.248712734801478 -0.34446277470232933 -1.7239313545104116 1.034923786914908
Ni 5.044342238870528 0.5045002786090423 10.477627524789478 -0.1206824401844373 0.3889986523311752 0.20717383630946257
Ni 8.111565731656276 7.773989405221704 4.319952212745003 0.8606646990555952 -0.29162609051727195 0.5780346413893465
Ni 7.440642415847853 6.418500638660617 6.986619871385882 -0.6630635940362323 0.11678567623319243 -0.7664450810483768
Ni 2.659464024237237 5.285689679339989 2.486914411573321 -0.24195880519913165 0.4564849681086074 0.006958947816336402
Ni 2.7217664710471396 5.55857824955948 11.14236738467832 0.023551304957378796 -0.08722158942283044 0.7187927692777363
Ni 1.2441039916061418 3.4664417188103287 3.978021779219283 0.2734283365623226 0.9126284937173961 -0.7515869329896216
Ni 1.827458929443645 1.3516814457797421 2.4219119780020932 0.049421487855921334 -0.10738572307553118 0.5444190102174301
Ni 1.4611763217444294 3.733972517135108 8.386191908034771 -0.5980159696072798 -0.11731943724947537 -0.4315334403695923
Ni 3.925503688104088 2.5614002848835256 6.818977574109777 -0.00859622630944326 1.0388431765739723 0.9119993447738292
Ni 4.31242839642505 7.399624268345707 6.121421361365828 -0.22525717617373464 -0.08217631368943912 -1.49961237388023
Ni 7.912291479387406 7.720044715596873 0.20795402622364148 0.6127630460094673 -0.286147583901204 0.5351537828654203
P 0.24908501720918674 5.890072037010845 8.014612996029364 0.5361004630494057 -0.6604325841712884 -0.45304483207880686
P 9.004231079476973 1.9235777242054404 8.30858127940378 -0.11656121892721216 0.08545729843355605 -0.1269047669450653
P 2.1507233994471404 3.501597509735899 10.387314206149213 0.5397182623076511 -0.02125942359940855 0.3380134195325598
P 4.121255021866847 6.340785423386476 3.8792085022563287 0.9108438910131476 0.23915218898827204 -0.381852013984065
P 7.083717560430495 4.273309322180104 10.52448876290762 1.0051671244777658 -0.273501098781787 0.055384133197259454
P 6.7762787009036725 8.176253487871358 10.419794780834204 0.4242117098971985 -0.370457141883562 -0.39817003441779814
P 2.6903170839665407 8.935442425938371 5.866796004349764 -0.5112126986687905 0.3962669038578143 -0.24892212389084228
P 7.458458842251156 4.366107032308534 1.3841968826791176 -0.7613627814294629 -0.9920642685472204 0.512619092098014
Ni 2.6565833044171354 1.735551123208686 0.14899559971446158 1.347496911997492 1.25417743720704 -0.04329840567731898
Ni 1.6945146271726537 1.5957536435312747 7.085567092646204 0.21565950518297053 0.2782650958293337 -0.35622762854774137
Ni 7.339863093479014 0.9996189518421745 9.55451553726505 0.2700010560483285 -0.16809641069202663 -0.775497163948316
Ni 3.118727827403742 1.7015237671171044 9.408800655409406 0.08312453653532136 1.2733473252672713 -1.0325419169462928
Ni 6.696453404232643 2.0813200700233567 2.347872891492013 -0.741484297337981 -0.18900719270276484 -0.05018150595039744
Ni 4.671830303917017 7.354844671396931 10.659891768719335 -0.5686308315769432 -1.4284102998141077 -1.2964728555411413
Ni 7.406211392010779 6.312207581859036 11.461739213217903 0.0959509988760283 1.5909934939973889 0.47616084927097996
Ni 8.063382481671649 4.031420599961006 7.984938829602234 0.31175011496065663 0.37850932276407717 0.3357112537619444
Ni 3.4433500889148014 8.76003044198824 12.455197644807852 -0.6020109496992858 -0.05046227041560987 0.5559383237109393
Ni 0.39259624014512384 5.238222022176915 10.378961953524307 -0.13902006215136056 0.8876864790600778 -0.3099621698222984
Ni 8.74974608874514 2.538409571924371 5.564825925347662 1.5692401614806974 0.8305689081114792 1.6879263971707124
Ni 4.115007346078665 2.9010958669819313 11.368029580955339 -0.5248904532661992 -0.3302432886688377 -0.26718081299071406
Ni 1.195278542935504 3.6155052081001684 12.321044174153775 1.193543368464751 -0.5997229249960575 1.5809595068001547
Ni 3.1946540606239977 -0.14056811810062317 8.01473409635301 0.765279857095682 -1.2244665404061685 -0.5754992765620024
Ni 5.6764767540439545 8.11463911108218 4.153088810732358 -0.3743634189165036 0.15956857572667357 -1.140969965243409
Ni 3.1449203595260027 8.4849125249016 3.501252557298842 1.741045645593195 0.5345626862486407 -0.7616494594319463
Ni 3.9817694672654977 4.746747367773542 9.140855180218804 -0.5997830888100315 0.28145994861754753 -0.13459519361078753
Ni 5.202240547226475 5.051654129624098 11.32339677227765 0.1399508014957461 -0.4890171364083578 0.2722772536770149
Ni 8.159391185230128 9.308394725705147 2.3760709183680127 0.4383887727285289 0.30721571742541287 -0.15744947250114175
Ni 4.7809490349370405 0.5992869698107144 1.251879182840333 -0.3794061235467337 -0.7310852134918441 0.7225728051454589
Ni 6.089887571029353 5.677550143276285 0.36430188346622205 0.12449949993768236 1.0028032522312793 -1.6263973274179795
Ni 8.632709965353307 8.952653350723438 11.563600181659321 -1.8568861843042987 0.13964149778544338 -0.4454878456671553
Ni 9.067313338977034 5.19203876238586 5.628109101293772 0.5639835626129189 -0.2557592014173337 0.13538735049477973
Ni 7.346789665020977 6.446271144697073 2.473070442756336 0.24692283407262633 -1.006543178889686 -0.10493880419693541
P 8.987790793115122 1.783229788511449 3.570322860832595 0.5944285093663375 -0.4298203143332275 -0.8377893371193185
P 1.9725683096810525 3.688624115635866 1.23982144379715 0.5322993441357607 -1.261892803573427 -0.45174642498235756
P 5.085167726766871 1.3704519959451174 8.414000028565694 -0.3838189079024486 -1.3375557416243804 -1.0056337797015389
P 8.80889258772665 1.6901568503747293 12.527988113586991 0.7844335472059975 1.9227835583280561 -1.628307399956499
P 6.371537566179407 8.245721037163744 1.7940306529834413 0.192656616529894 0.40072442540853564 -1.0424411783378758
P 2.2231817597629426 3.6413307695447092 5.947374508336814 -2.337583745103368 -0.9780265595072318 1.631844209465164
P 7.142946627814494 3.982466711553166 5.804143100542639 0.25013131370759506 1.2400140012224645 0.2488683878347714
P 2.923627866593936 8.662434590248623 10.217375589857273 0.5046784970946986 0.8097982512230312 -0.710850374502208
