# total energy = -340894.1306616887 ev
CRYSTAL
PRIMVEC
9.04327152452564 0.00000000000000 0.00000000000000
0.00000000000000 9.04327152452564 0.00000000000000
0.00000000000000 0.00000000000000 13.23574198404140
PRIMCOORD
 96 1
Ni 6.45298897345406 2.0945301388510162 11.50567170714766 -0.14903708006773042 -0.7755889523311739 -0.5188301060047323
Ni 4.581927110258655 0.4592851381918725 5.780617234992139 -0.6947493551752874 -1.5336679208030426 1.7693023264460432
Ni 2.5801266747208453 1.5789551588146875 4.659391771715739 0.5632806230086235 0.06017024173199314 0.42300509118360696
Ni 3.475654695980537 4.147560705973506 4.630325793617535 -0.07544182317908298 -0.2567529327891707 0.9351014780089314
Ni 5.107965155121723 4.624457614908744 2.5397538945890457 -0.0632059432345234 0.062397845510931256 -0.2546811378618065
Ni 7.362398416069882 6.105130501867772 2.4274346571118968 0.14482998396491834 -0.9249494771765941 0.5597263299984618
Ni 5.068898223357236 4.21374840819209 11.575701895316875 0.688328282140292 0.8962341115197726 -0.18973044402203454
Ni 5.422517258724536 7.987315588690566 12.540441688698403 0.40295382895968673 0.48793495908777257 -0.6867331697390302
Ni 1.9990331945378252 6.351161739271624 0.4878428844462877 -0.26469275646153767 0.7605878509366514 -0.6697392062841949
Ni 2.631347763034284 1.6265498953601725 0.4941831219138993 0.8561102469156935 0.036476240549162986 -0.06366025716312262
Ni 0.5745958897958019 -0.18978389893423134 4.737865662243403 -0.5287422229121217 0.8696874713794958 -0.31385096335374335
Ni 8.76311974198034 2.2264533797260944 1.4560643372558986 -0.5447735653433714 0.926868805686494 -0.37529518670215367
Ni 6.98580042847722 0.6180687033092839 4.885603775866105 0.3765683969876224 0.01707958119010607 -0.6216945441711422
Ni 1.0249462760007964 7.577031415722276 2.564398617377143 -0.8935851039326999 -0.9170795875102141 0.4854319901602607
Ni 7.649024898078082 4.058990907431518 3.844599363121281 -0.10247671580968802 -0.29025646386325493 -0.4209862609813653
Ni 7.88269398369442 3.78349669232195 12.506650601376368 -1.1141196778197844 0.6416948985524691 0.16486479112860636
Ni 7.696366423028797 8.551217810242964 6.921207959305686 -0.04062111595547197 0.8442073248305203 1.0414456471938258
Ni 6.987753775065444 0.6990439626624253 0.41711636439145505 -0.8056063246288707 -0.07899714463050911 0.183067173069246
Ni 1.9233410142441316 6.5064256632217345 9.172990637452882 -0.7023132835654743 -0.5176934212971278 0.39840760434990097
Ni 0.06673753311008379 4.682850017316914 1.364075277857394 0.23646512907441214 0.390057946833625 1.1387996970649676
Ni 6.427541208179693 2.034509947619326 7.139835371865574 0.2422637380340602 -0.3677885939124634 -0.49101076979961894
Ni 3.2720002276156643 4.292415824724329 0.2871139143281307 0.728967652928209 -0.8307756248056466 0.9392103579709825
Ni 5.779789775673516 5.441851772639461 4.7376413891166065 0.5485906250966165 0.04582271476106947 0.9421162187638678
Ni 5.201020416199633 2.935726186490096 9.205682967319039 1.1352096657208641 -1.0734368553884417 0.6768616762615891
P 0.3677753721691823 5.4193611570611555 12.576892402092643 -0.2131915032584522 1.0326828133995312 -0.9351007066779831
P 4.15362874097674 6.011279432920586 12.544041814979755 -0.6464817784181511 0.49860657986900586 -0.05995889705213545
P 2.4272592176498065 8.488330902027629 1.2683450171461654 0.676665501090383 0.1441499271787582 0.2143410434818631
P 6.0799088183744505 7.553699775918485 5.933264940572004 -0.5323949891733605 0.4305080844288715 -0.6064859547515038
P 4.723164920512766 1.087236328314173 12.571612036014567 0.2928936443757859 0.8570682399535885 0.03204854379511255
P 3.872310659187466 5.975070174868501 8.245522686494349 0.8894520556009328 1.1569426865225818 -0.36693010256691
P 5.084488822978063 0.8189921037591392 3.7519619011747407 -0.7006279254432515 0.1146899700464283 -1.5747448933490107
P 0.13123323927933048 5.80471303121586 3.7440336652770734 0.896701023853862 -0.33769923072625063 -1.3708772385946455
Ni 1.4775077420244058 1.0828141686769428 2.6244224259173294 -0.25892345807792827 0.17893181074463377 0.2251869850574315
Ni 2.025358157122645 6.601190102564342 4.761187354448828 -0.871283612222022 0.14521462099784666 -0.6306131868170106
Ni 5.967727038620176 5.611838142171189 9.338213011694439 -1.2954115041561627 0.11242971325734186 -0.12887937417293288
Ni 8.587653150076093 2.400554437672832 10.04910456401072 0.10334574867820265 -0.12420099486065705 0.198958904598838
Ni 2.171732545442087 5.538026962295786 6.839278634836537 -0.5217061420009467 -2.215879548522635 1.1604059624808336
Ni 0.5728333562307791 0.08123570556490456 9.14101363034195 -0.33971420427375043 -0.6411667939631409 -0.022335687382722822
Ni 1.3707338384727161 1.2394164967708372 11.357364771763852 -0.4551179125577517 -0.8607158640085049 0.2523501757357847
Ni 4.137766843218659 6.842681617804819 1.5667675421621412 0.7707768756545113 0.30197195252797027 -0.11195997270977491
Ni 5.497413631148953 7.747696030597137 8.104416908000369 -0.30622584270831776 0.23742852142894594 0.2401963139820702
Ni 5.438433416110068 2.559146285439917 5.0033878621546615 -0.8870125929215045 1.7137734401408034 -0.2755718652678867
Ni 0.7431398575644659 7.6313814758853695 6.979682655482157 0.46455051872556125 -0.6242463640587185 0.04975290305341109
Ni 4.980102343034203 4.373624400475508 6.968670664091042 0.25785490760409785 0.5293351193011142 0.13310961020419657
Ni 7.942524266230032 7.049546447460523 9.144375014262518 0.6043953907710623 1.2737607586556063 -0.45678887250227135
Ni 4.527007324007329 0.39086103499519687 10.450783160065333 0.32920302032978144 -0.3407192484994971 0.1414204440627371
Ni 7.883779176243434 7.185159343002248 4.781451516647407 0.847563900007579 -2.3139928451573053e-05 0.21526586928897765
Ni 7.106482883198766 5.935442560287023 6.935965673645146 0.16617322552738478 0.7745687385967757 0.1739580116791262
Ni 2.491927650299771 5.26153798734962 2.660846913824969 -0.9733096136475368 -0.5159347867348083 -0.663842638294102
Ni 2.3539635042351836 5.102873793412601 11.339602882717873 -0.49230737712385536 0.6096926346142597 0.6274221906835388
Ni 0.9584420592887504 3.5670369518787175 4.027927270716006 1.1578901380375155 -0.04643875107851357 -1.374165422427614
Ni 3.8253037352726964 2.5547150825314455 2.629558099655536 -0.1748859228100343 -0.2996888129207484 0.24899000101430024
Ni 0.7689801008107264 3.3175059685042982 8.045835501223245 0.7500985213695534 0.2363841393248316 -0.41592941528374816
Ni 3.5762249154603656 2.5775041260607297 7.4131537759143695 -0.23799262146253206 0.22445422065646506 -0.8766410198791934
Ni 4.014100108987326 6.703704625361152 6.174142417695164 1.418133600478448 1.4723131718446452 -0.6836504170486484
Ni 0.7458103355621634 7.135412307901219 11.214604074632623 -0.05244716205612258 -0.1728786625720184 0.4992714671465143
P 0.19922145680215234 5.639772807037045 7.9693457044060265 -0.0751623442654512 0.28750949724573716 -0.9736574839052587
P 8.465695594109455 1.4346245497958878 7.825248411785265 0.24168523982277085 0.1346098488988069 0.5709970178162747
P 1.7576773283659743 3.241298321749823 10.249943862038027 -1.6536875305925003 0.3280048862566222 -0.07084983293302637
P 3.9738846817751323 6.225324619942263 3.9083155393094864 0.2571303707332475 0.0923303714043055 -1.3282295791274479
P 7.0334855977351225 4.012363800908903 10.370733027360226 -1.1466233068744447 -0.30361797277182545 0.9128318679774537
P 6.283834584876576 7.920431554586365 10.36226219518805 0.3769226950032476 -0.7912372003913922 0.41460863958979566
P 2.4592181382182545 8.506896737887002 5.7112354493709585 0.47266132075815365 0.4628350786963513 0.5445203116819848
P 6.923718371402404 3.996836504186769 1.4611728811803795 0.7094545225959459 0.9245522417381755 -0.026923306753405242
Ni 5.329335391849241 2.8568326881768122 13.803158173823684 -0.4670941110830214 -0.09169685158536466 -0.8066386225481269
Ni 1.6152005899517392 1.1615087150229073 6.874644155681764 -0.5806998469263354 -0.6907250645072427 1.0342254752963027
Ni 6.7321909297727585 0.7332736486396846 9.239593425821463 0.7589148341096027 -0.282136662969598 0.21117987214506212
Ni 2.660928303266145 1.4972401598739684 9.409037199078684 0.4216784019523835 -0.4711369136938273 -1.7582640663540103
Ni 6.4035946259314604 2.2346737132848715 2.715630146680544 0.7247245613811389 -0.6493256756248494 -0.36006834245007024
Ni 4.1397925359768175 6.895946485418899 10.417494878624343 -0.025296569783259656 0.12429149769193432 0.33383666244705085
Ni 8.446668551416751 7.344592214994819 0.5411602030335708 0.0583208472280802 -1.23357493046534 -0.6200189562409323
Ni 7.352378471533991 4.05269679064724 8.222479527043172 1.087026421147418 -1.277413267806529 -0.21318584683149736
Ni 3.0563815113979174 8.538322105452187 12.398474990782203 -0.16783955748621418 -0.35992230379050916 0.2808061170836325
Ni 9.022544064093266 4.960903478187905 9.968472044637641 0.9019435031997242 -0.758675464405287 1.0796131594024827
Ni 8.778258178039078 2.3551843458528245 5.750824177886097 -0.6497985014962099 -0.0013112626122558063 0.4337291624693304
Ni 3.3694143454321117 2.579584078446339 11.55190362271701 0.9462430964480478 0.20734198645621066 0.40543211529685014
Ni 1.171971779849646 3.3110309862951843 12.697086520167131 0.015523806667211976 -0.12762364738896084 0.003844827667386927
Ni 3.0033246390223973 8.23458575425454 8.027675708242628 0.6528167194972435 1.3136943616257504 -0.32422253639605453
Ni 5.867952627009624 7.636545183764426 3.613900087780743 -1.700236581996633 0.986405013378914 -0.6223792289429927
Ni 3.2859992114979386 8.581585115072858 3.3176976858546237 0.38536285535080084 -0.4823104138121436 0.9603468828392816
Ni 3.4791092255948963 4.327973967247005 9.41811664340543 -0.36107158690360397 -0.28981089168540414 0.011205124687200058
Ni 7.335286688887027 6.161804682740004 11.382049284945413 0.8033897765935261 0.0037746365510838223 -0.47244817630608305
Ni 0.6130198449749985 0.2519301632348637 0.2366063401156685 0.8764397025016648 -1.1567678515076143 1.2662094286709096
Ni 4.717350097104303 0.4451740177461999 1.414927400704168 -0.13128592673189649 -0.9055867563792661 0.6621050867777049
Ni 6.197444214703856 5.93705226256806 0.03944946213801438 -0.024960269489763463 -1.864782042112608 2.3899134077450195
Ni 8.144849373722364 8.717152794258373 11.660251959791893 -1.3691165471497968 -0.1438881888769393 -1.6060920402017242
Ni 0.02799254180180403 5.0217194772888725 5.766521488107577 -0.2585658176281934 -0.4391991844449662 0.7379120066056905
Ni 7.95221865300122 8.918881045848748 2.557661380302017 0.501822258592826 0.050950522905938066 0.4115593112405106
P 8.501733030007946 1.8113672297284187 3.585125303016525 -0.10069057044354271 -0.8870354757396401 0.8771670675859926
P 1.8504070316791803 3.231459242638767 1.8636717019366225 0.11504529650331799 0.02903392533850484 -0.5232320917271698
P 4.75515097089494 0.9185974061974703 8.214114501144524 -0.37856203037888353 -0.057694269387674836 -0.04148294973513501
P 8.500738270171352 1.6167289027916 12.422894536116381 -0.3404976194069942 2.0555805223878405 -1.00929503060321
P 6.4587585805063155 7.739231528714831 1.3897789677079038 -0.8904532431719374 0.702220466741352 -0.6885349988344593
P 1.9308107562898413 3.2115911757205775 6.024895886429333 -0.07139799212701252 0.7099862267296998 -0.06451720584677921
P 6.941370836866358 3.9097136290434653 5.946328850207877 -0.1056869952168696 0.0940758933405025 0.19409566296926573
P 2.355889721009683 8.41602090517836 10.36477712892039 -0.41924588125149087 0.42072786511365606 -1.135431037703051
