# total energy = -340869.9318030552 ev
CRYSTAL
PRIMVEC
9.22884350687059 0.00000000000000 0.00000000000000
0.00000000000000 9.22884350687059 0.00000000000000
0.00000000000000 0.00000000000000 13.50734533810135
PRIMCOORD
 96 1
Ni 3.7032396274812167 0.541037266528194 5.734799742867553 -0.06286038696964658 -0.30658965380563974 1.031386720295927
Ni 1.3940352886606775 3.846231330752332 10.198572685224017 -1.1924804744178752 -1.128172299258109 -0.07259998285491367
Ni 8.875074371345283 4.335646137527247 0.2973911801586906 -0.5347997419601113 1.997201311117999 -0.26744640794727487
Ni 8.281613581436345 7.649243986764853 9.772929187962681 -0.25898233634032175 0.6757273055468298 1.108494104102891
Ni 8.337346568144378 0.8986697235103134 12.002762702874444 -1.5476256685347154 1.068956708129901 -0.10606160494746895
Ni 3.6394775468112712 8.989558176629792 11.558114247916826 0.3673998431144769 -0.33717164035755476 -2.2380511995236683
Ni 4.166250712618164 5.888140671390264 8.200512349346123 0.3128885994404741 0.7658920367583842 -0.9940206209426429
Ni 8.323863227594547 5.995102969112752 5.831674914497661 0.015617394822282782 0.8538533325607165 3.1798524581502785
Ni 6.2814001563385515 6.194482906989941 2.9912288037824606 -1.9156441190697973 -1.408760386793664 1.4416859338770913
Ni 8.514309644833654 1.731100344719213 6.47511081557114 0.12671553375239467 -0.8021137380945799 1.9756102152107846
Ni 0.6066386557344718 2.275426771118701 2.9209225500913747 -0.9413569720003401 0.11304317847162466 0.2777603882787732
Ni 2.8351561375439718 1.967054189919459 2.200698055558019 1.2819114127871987 -0.8152294495409315 -0.3851936767627882
Ni 0.08768693490771762 8.963403633769953 3.2000932242627047 -2.1877815047348386 -0.41634593399587655 -0.622107720449161
Ni 5.21988010382466 8.140144637364903 7.14538603970213 -0.29590646306018076 -0.5389651861917105 -0.34957335645601734
Ni 8.403692725031952 8.283523952068663 7.4244201269876715 -0.06680600188095592 0.07565753873431486 -0.5134037927828384
Ni 8.747790159939886 2.1207974960246294 0.6958538871480432 0.598310360919247 -2.970891448033406 0.9916408078565567
Ni 6.086367003813156 0.9181758074159433 5.81776243271883 -0.594931160034369 -0.5376402967326999 0.1484614100699185
Ni 1.9639071542401345 0.451428886375798 4.0768684391348105 1.7638369324560976 1.0418644798987993 -0.004349535217947348
Ni 2.348196203175803 3.6810073431659904 3.8093953242700596 1.1477034273125009 0.6034186286800898 -1.378056015731272
Ni 1.1450595450923184 6.247594902105811 0.2325631680489739 -0.0023307050157056635 1.2359457446903617 0.3086452507830878
Ni 8.373459033285716 4.227650209317708 7.257051356140699 -0.2558286212026884 -1.1772811409696178 0.5589655405730374
Ni 8.697031519950784 5.463558491146883 2.313768001997741 0.7394340996771717 0.6721920387000617 1.1592476805066745
Ni 3.837399327394228 6.213152857662297 2.3705927609077215 -0.6461611618539388 -0.17842453209091205 0.49615040501902946
Ni 6.332564865447566 1.8131447646288694 2.3258430210089664 -0.8151456315778736 0.6072994517917347 -0.8609241233645689
P 8.399475143491038 -0.10157911323055291 5.311885214668904 3.3256134385698983 2.387085451377921 -0.6329688315333809
P 2.6297959089917025 3.805624418761051 12.075553361271906 0.6678515023431788 -0.6625411458738589 -0.32042990212284167
P 8.795807833369576 6.285700797472173 8.223582612663352 1.0587131760250217 -0.8623081481962891 -0.8674737515576287
P 4.1079428785361385 7.201368205188292 10.3952670296036 -1.3141350487075947 -0.4151244028839496 -0.24326364005348425
P 3.033022545065123 1.106150740329764 8.907432542896153 -0.9852205061525099 1.1908105429146203 0.25373522900876944
P 2.0778372289065814 2.038023997467857 5.686794989818951 -0.25633230031198434 -0.24483304142313317 0.23190887716229736
P 7.802987292870024 3.4963658685729087 2.123489549712779 -0.04249416460846875 0.04107183033964539 0.7256280470320149
P 9.025541437960248 3.191435646049291 12.061303103816057 0.1600642844161695 -1.0474417168762606 -1.515443427375216
Ni 3.7136313054135304 8.940054659374967 2.220553912637392 1.1522974744410865 -1.4336178121569763 -0.8583249951788251
Ni 4.183720913618049 7.750336739935873 4.2937693366518745 -0.5830902015353828 -0.9033357555615603 1.4744469303581962
Ni 3.9806217517562033 3.0241905417070196 8.85691477572591 -0.6866894609852884 1.018604480929594 0.9235731656543578
Ni 3.399555298848241 5.1236048070307865 0.20804305339678422 -0.10498534116415467 -0.23129155529327264 0.26150304587964646
Ni 0.4366433559891545 3.384973725905917 5.324649628299618 -1.436003024559701 -1.0804742218511973 -0.49186411893884974
Ni 0.8611775462456364 5.431156021146568 4.567171060667352 0.6361893953532076 1.1355395382564573 -1.2528052394498617
Ni 0.522249186657319 8.593050138722203 13.09331854323083 0.18569715449292537 -0.3441311023945235 1.8742686414468044
Ni 6.88709839290668 2.6689723502196543 13.03749234520209 -1.1885492576842691 -0.5872361053829563 -1.283891419331705
Ni 1.595630149010119 7.109273574560794 2.9713323397910965 0.19910622880997966 -0.015420705430444409 -0.7602988589413229
Ni 4.977235346989487 6.153589900845994 12.183003864822654 -0.659622172454851 1.8122934852955883 1.7101283871890482
Ni 7.63449629463711 1.6900135328589443 4.192301892429298 1.4881637657236564 0.3156687332887725 -0.4648711352897736
Ni 4.577552586871668 3.802745019547124 6.736410756928854 0.7672742618178915 -1.0672536093958653 -0.44403542949134495
Ni 6.094534530429584 8.760092208504517 3.2606731996475156 0.903820665617779 0.10612485408523659 -0.17887678913698227
Ni 6.180104368607575 4.293055024154573 8.418547471745853 -0.37870241261148974 -2.116041812997691 0.8165695085085938
Ni 7.486041115934441 4.432512080313721 4.407460384268191 -0.3418163382184178 -1.197498496457757 -0.7861965526436911
Ni 1.6392364351825741 1.6027548162958618 12.231887203785247 -0.7656806920785264 0.5623213444191476 -0.5867702214901314
Ni 5.980429107734085 6.1722506226747145 10.149108851996818 0.7220449576664468 -1.748647112089537 -0.6223447761606314
Ni 6.634375738822762 1.5612896218465833 10.219009036567991 -1.0146704359825105 0.835285082640226 -0.12106784854831408
Ni 1.5290255845007836 6.302248114108621 7.110847092400456 -0.49213177077793957 -0.30922837698006744 -0.030777133281856668
Ni 8.2539270505332 4.882612013206168 9.740363367430037 0.018597046275897002 0.268398487447899 0.2964973025666442
Ni 1.445476863078723 6.607206023163141 9.537037176014787 -1.5322610131531869 0.16591354410809492 -1.6071639331096643
Ni 0.4793433697167134 0.5039788449143329 9.133167289540049 0.3772325129341826 -0.1038478851256018 -1.4418337723088652
Ni 3.1436117783359236 5.298417563153251 10.20001792213716 1.4203138959592183 -0.8876299147905294 1.745202348074046
Ni 6.896364151915599 7.9239312886986 5.478660570870186 -3.0161757737925026 -2.37328968314541 -0.05556462463918172
P 5.79719041737343 0.4325485180685792 11.732466484741936 -0.9584028717390334 0.8182083296635974 0.8913688130076713
P 7.635834476964096 0.2342778871962421 1.6953201179487138 1.3317633033123193 2.4514545616826102 -0.4199022838885672
P 7.183362731257613 0.5166721964490619 8.438012025855128 0.5206705016475807 -0.011581277079696183 -0.2728248986503688
P 1.8250315152299537 5.092974275008272 1.8661340161244009 0.30215347241115703 -0.16899526835721218 1.8796643585410788
P 6.776878313381256 2.917089811330016 5.956212622037467 0.9023379104246653 1.9580081858583054 1.734494731848555
P 8.151108503602549 6.85759377980756 4.035049779974335 0.31847817771310954 0.22175867610217295 -3.0596968370035884
P 4.462635025936343 5.1434283631574385 4.25837948996711 -0.6656655504354536 -0.7611542649630827 -0.8729134345159612
P 2.390916520359358 4.534666150502695 8.106582101719747 -0.04987631600515281 -0.7008238435041414 1.7662943928576549
Ni 0.5022475138485227 5.707873668679879 11.565637601247575 -1.0321621650093709 -1.2672206435442432 -0.08805616950898384
Ni 5.348041055375323 2.9598193573572047 4.468526719712533 -1.373613663689202 -0.36767186582894096 -0.5395022896421031
Ni 3.634429369343264 1.0464308931716775 13.329670151591717 -0.4646263662688192 1.1023967329559015 2.22203965458676
Ni 1.256479374290213 7.796757823416816 5.316031734113833 -0.5129438224272843 -1.7912428352728762 -2.151181337013302
Ni 1.6703376382304418 3.303169255930755 0.7090022206739474 0.8089724128876262 -0.1395759346548306 -0.7286105266991064
Ni 4.928322475727262 3.942968069727925 12.135215066715096 -0.3687319316623392 -0.12578376596674468 0.7118592753826966
Ni 5.639977066061731 8.476997430019848 9.624902227604647 0.5536281875205239 1.158487148191566 -0.2819435731221854
Ni 6.660945579646148 6.346924946142664 7.950207652294413 1.077858381494905 2.0198714990220052 -0.9818582745484962
Ni 5.093943303589882 1.1262234752345448 8.014691428536567 0.009749366077279985 0.2628341059862441 -0.009225375253009918
Ni 7.385705127941439 4.972094881085136 12.028102338841368 -0.23405343430912595 0.31398748893160766 -0.9251996455141873
Ni 1.2664926696335175 0.025781697577009693 6.81942697407321 1.1915253095934577 2.9473524843712013 1.462855625976171
Ni 1.1596780334091796 2.5307058148893424 7.961905211600992 1.6410220193096898 0.1570864327347682 -0.7883627070570746
Ni 3.1123075407280996 8.296222840909572 8.631977401172026 -0.0683239811873791 -0.8775506761776565 -0.4359225705762235
Ni 5.505143660563409 5.813414724482672 5.9374374625476785 0.18233183756511825 0.5745381982003138 -0.21541319350011934
Ni 1.957345446416089 7.372240245078876 11.568636052544386 0.7923036939826935 0.5643805409410215 0.08032383386173263
Ni 3.212200544226651 7.831873573445639 13.499767891501376 0.2107463841520693 -0.5054662831033166 1.6832629302567719
Ni 8.556143993028307 2.5754657065160957 9.41075706279681 -0.34840993227553546 0.04689460766900956 -0.003470989267735958
Ni 7.461972291735972 7.483577014684061 1.6877155507939832 0.8890638190235784 -0.9043261444992877 -2.574660796730166
Ni 6.659570481944625 7.800800056928675 11.756063715030686 1.3290770147294078 -0.6662023967755301 0.7291941671167184
Ni 4.178008259408367 2.0518026610139892 11.247377236978457 -0.5235771337714143 -0.8372393781531193 -1.3557370405190974
Ni 5.742767926461478 0.10019847822284936 0.441511571006291 0.37772127964514307 -0.6728116745619316 0.29012533760202935
Ni 2.417181809342809 4.2552998248463165 6.0060548378536724 0.5582561732108385 0.2351880621342014 0.4641250011523684
Ni 4.892791427734892 3.8185355710055515 2.3469013964138994 -0.7896289753640079 1.1230478335473497 -0.048733974870593486
Ni 6.331355886931462 4.7436902299778145 0.5435207483502061 -0.4538634713253603 1.1535292899656586 2.0654206484067137
P 1.766437586995262 8.96375432982806 1.5361502517865266 -0.8740187517649979 0.38982860443163836 -0.31812927901412313
P 5.155998048187468 6.974052557629828 0.866029149344231 0.7256218763844278 -0.13151732601641222 -0.46613354694196496
P 4.553788314513135 0.8802775610313535 3.7465995035286337 -0.42497738441862937 1.3515199171139562 1.1738356056231785
P 3.3228820659337948 7.283994042246914 6.444746074245296 0.6495593889022103 1.0641988817299413 -0.4003156200058912
P 4.986842573212878 2.5236457495090403 0.67582083627089 -0.5886813224699151 0.06335095345281992 -0.7703847824224151
P 6.367735988538196 3.720091495957598 10.565391533159799 -0.11820286829569321 9.513081696757811e-05 -1.2439501030520772
P 8.283200942541459 6.795363687180923 12.850158816920857 0.7119747179146383 0.06764623839406415 0.9138487392777424
P 0.5987267680867162 9.090826277829866 11.031138047549977 1.445347956109711 -1.4178906312297066 0.25010765955851116
