# total energy = -340857.7080586673 ev
CRYSTAL
PRIMVEC
9.38845788264290 0.00000000000000 0.00000000000000

0.00000000000000 9.38845788264290 0.00000000000000

0.00000000000000 0.00000000000000 13.74095711111035

PRIMCOORD
 96 1
Ni 2.3525973013881583 5.64899748529854 7.6162549260484464 -0.9345214371357454 -1.3992663312602998 1.7666376351296866
Ni 6.862089501986219 4.339626834197907 12.62148116795221 -2.8707678058369264 0.6865174541837983 -0.22212171586854648
Ni 5.839292135802309 3.786327464086449 3.793933053724473 -0.36905409088844826 0.7653827012221335 -1.2964399454206768
Ni 0.1615002505286814 1.8859721733927786 0.7904536910278983 0.16158637748765073 0.7499774224106568 -0.18130879561724259
Ni 8.263870742899304 7.699784034812176 5.341549903379987 -0.0855215760125882 -0.42049338050534674 0.03782966925326388
Ni 7.377938314060303 4.505060848531468 10.29741820625896 -0.3959421735285439 -0.1063138301675911 1.112455402743484
Ni 1.8300920727564158 5.844268018419458 3.7746275680157106 -1.9272266817010748 -0.2769162951109231 -0.039750026204428315
Ni 2.443806168606281 1.3083660861194346 6.28004361303429 1.3564867742009283 1.6740185288403684 0.3917150228210738
Ni 0.3430354699347146 -0.02202344423265788 9.487361415411048 0.5460444616359951 -0.13141885276533496 -1.3853569202680593
Ni 0.457815938071472 0.5486370619837674 6.199480318079536 -1.1592340536599197 -2.217274886208265 -0.925305317854116
Ni 3.712121093886548 6.731965477318882 11.631115290282791 -0.8780839229733071 0.26432148916504805 -1.408182402803007
Ni 1.2185185452777019 3.39427485614393 12.388558224951902 -0.0847139925096283 -0.9841786951515566 0.6755565842969204
Ni 0.32453457505668765 2.8271087339088314 10.296346044381831 -1.126865407521227 0.6126933691137963 -0.7862019519603298
Ni 3.6401303997199435 8.676634288678486 5.923671838839838 -0.8031987436286425 -1.3382036596210243 0.04302304052874526
Ni 4.689065232330539 0.16639820894635451 0.8718732133311122 2.0421686198573084 1.4768902496923664 -0.6734801613838659
Ni 3.2122702138494863 6.26587549141629 5.771105644723382 0.684421233776402 -0.7576876465707209 0.5449304026362098
Ni 2.410974731790864 0.5520187844718752 1.028194790554851 -0.618576824477767 0.731538756089495 0.6536772677253259
Ni 9.094542709314645 8.256519580466799 12.261660074373719 -1.6314521162330677 -0.5508074302422772 1.396703198518814
Ni 7.472508249159443 5.724011262866506 8.316123143454032 -1.5126072434780014 1.5315310769656978 -1.3161865319199848
Ni 8.791107754246223 1.575364436589448 7.871122450236162 -1.7144259861231377 0.5326996648979729 1.3201833117842037
Ni 2.030169496254656 4.554584963258755 0.5188681400923395 -0.5520125062939718 -0.22741921682205993 0.696556069366723
Ni 4.097892823582137 5.740046748734603 9.452363122542728 0.6869810240837781 -0.5552911770452438 -0.39763138830550876
Ni 4.121288860340506 7.728569046329497 8.209960340702711 -0.9511006816506653 0.29009756968788747 -0.6822419667368961
Ni 4.628387629774623 0.04371735359765172 3.5840259149429206 1.3063296937305633 1.0516403283386404 0.3889207479053883
P 4.880833870703917 2.1674475257413657 1.9890039254784029 0.8674840359702738 -1.5240802771146076 0.8704325770756364
P 6.197668345730272 6.790399238468197 10.305154295459962 -0.91555569466652 -0.8625313199506888 -1.7025127796253194
P 7.663807464644411 8.710038421417762 7.824375441316709 1.671586265249792 0.2489180101257842 -0.8822390827922613
P 0.006626373492799868 4.881106135979194 6.747235803878869 0.45517653370982897 0.7528999953740905 0.2742965980998889
P 3.4765834653977934 8.20700485419728 2.003954105628494 -0.3904235577031599 0.723181128153419 -0.763104446710918
P 8.27399150037343 2.933808556444494 12.178953394510486 1.269952954873742 -1.627572064452371 -0.9925131831591809
P 7.821984201123148 3.627362097155183 8.345708051573203 0.40169630240350174 -1.8534589037903046 0.08380047955642342
P 6.916204572562158 6.20218419391678 3.6659223709007596 -1.188172591071141 2.431314853509942 0.30589468462114416
Ni 3.9000686299482656 1.0719647195160047 8.192812322589083 -0.8155467236710341 0.1148231531901829 0.8768217684314318
Ni 0.3599713089027816 6.459146283032581 0.2941647918680946 -2.5582165351312134 -1.7537368679076184 0.6585011714765305
Ni 4.119720987893216 4.971789249562297 13.00666799672884 -0.572295167802408 -0.0434542145288929 -1.2250746063038127
Ni 7.484957344160085 4.875576334353721 2.0627925093076187 -2.7565861428854848 2.4862238468429956 0.17014043770524892
Ni 0.21154542466210405 0.5318486218026612 3.0324371218368293 -2.0820119771064918 1.321725459460343 0.30468780879723656
Ni 8.386981589613791 4.950392954308556 4.414790827090165 1.0726953492367268 -0.03817085464276652 1.7992507931790171
Ni 3.6202925884557238 8.736354268542044 10.257830835233541 0.012971729669319594 0.24827600566641117 0.2722062912297635
Ni 7.38412530772955 1.1192449928366908 2.114870284547858 -0.19097640061399368 -0.7815248581996347 -1.2122892816136863
Ni 5.956807461686945 8.192358860078878 6.600482003966709 0.14624769024805134 -0.41167192555897486 -0.37286240889094496
Ni 2.277189208593927 9.426293253011973 3.3899355109634652 0.8475021935317082 -0.27241275081361466 1.486845304022549
Ni 1.3728272371559376 7.793208578063596 5.487424004799266 -0.18123911872157175 -0.3203247440035451 -0.3370690533414195
Ni 2.2893284844882174 1.2129793551944605 10.314910780772683 0.9937699383844174 0.805240970869652 -1.4593470986022803
Ni 4.506431563365625 4.203850957954111 1.2430346250478186 -0.17808077559824814 -1.2174435721211163 2.037414393001775
Ni 8.61250173366387 7.407859328967576 10.176456377527618 -1.0954742948044551 -1.549474805928312 -1.3594540843593683
Ni 4.009228228419198 2.3122926521892495 4.120445776832922 1.2854219970436185 -1.1673124597926798 2.0871480127814763
Ni 4.899845497684534 4.154261124022446 10.988972944310799 0.42530134341695136 -0.7139063877197124 0.6091107939688606
Ni 3.229131884001185 6.1470645583596415 1.8435551211960235 -0.2573190897052859 0.33876032500091335 -1.774424735274273
Ni 7.08874564942625 9.151540036425423 3.8988180873735407 -0.036721009570117404 -0.6423029644501133 -0.18453732985686927
Ni 0.15624177533270917 5.172223434455729 9.233359507029562 1.4563440501098983 -1.0809964129032545 1.0595760382459496
Ni 8.53242757735884 3.03211509773538 3.1136594865269105 1.185957842808009 -1.515096071338126 -1.4388952585058314
Ni 6.164160939955545 1.223804247001202 7.843516629014528 -0.11502344212644705 0.8739105083219078 -0.4673075126454081
Ni 8.724374596429813 4.310926318800501 13.858991624449216 1.6910999098026875 -0.5909852880127435 0.5825070753384032
Ni 5.969735368033764 8.856094658917746 9.27298818726916 0.07412284725734332 -0.869962065197121 -0.14768210870173273
Ni 3.2612310211106816 0.4443097027261307 12.58976695761121 0.6959696007356337 0.43906702974247613 -0.47862165210664676
P 0.0763863700936785 4.958438862615908 2.0850938518902153 3.993549273096767 0.4432705263008624 0.4656828325577915
P 3.8068506327677474 4.931982188625104 3.427228342910334 0.2837911678538855 -0.9547549905738009 1.9113339217302179
P 4.519481519663432 1.6227949252344251 10.31418223644987 0.4463396521444894 0.42942642132891845 0.7505731470131267
P 2.1031178131136175 8.355595975294678 7.688326360951858 -1.1497721369160714 0.28282906105093225 -0.5347100104597823
P 2.856147233785893 2.4165890295362513 13.810761239202387 -0.5964969618595921 1.1554424478279715 -0.5783210622815137
P 4.659613640311676 1.0521738505406264 5.987196021791075 2.086118285965381 1.3108988011584843 -0.2644608429563897
P 5.192155130297631 6.066117275482169 7.361181794635608 0.1666259967940872 -0.40953122506688827 -0.43452003380174203
P 1.7615563310485112 4.998846784850267 11.121491025709028 -0.29216885039461943 2.04380692679168 -0.5519644266648559
Ni 7.363930735070139 0.9024213772173012 5.999178510440636 0.5365583765224308 -0.22333784766383472 -1.671783725972579
Ni 5.62413684912833 3.4017199031541177 8.92020374278794 -0.8501236903149552 -0.14840330313847344 -0.9757699022625711
Ni 7.320246241074677 1.8626606327543227 9.886536107416529 -0.24342896198675495 1.1712002248828604 0.7823080162225623
Ni 4.595668854452424 7.24020963860072 13.685704165192552 0.46207531771219135 0.6920378697813953 0.5148011873509973
Ni 1.3381932164490251 2.844608819188767 8.131087906992011 -2.4834629962684067 -0.3491704645906438 0.3713644841891798
Ni 5.882169222429707 1.6772573687477887 12.553449586426458 0.1948058016624129 0.7169240915001137 -0.28363638744357605
Ni 2.72092527655042 3.4847044813672916 10.06832857056541 0.7102734189528155 0.21036277556040542 -0.8220811823554424
Ni 9.516610216742116 2.844946803668423 5.849484245555474 -0.8391250252116065 0.7876283999942113 -0.6553875655482132
Ni 9.670393154985334 6.887137907311793 7.731692586228978 -0.554366094127813 1.5238437356237693 -1.1395167777366504
Ni 5.414755463981797 5.648086804895024 5.200306189331987 0.261024306471015 0.5427436793975362 -0.16088086678019387
Ni 2.531353537294802 3.747712737285817 5.384503975361084 0.3918438350894542 1.6239372959132614 0.7335030789047173
Ni 0.46005977947807325 8.948974671618608 0.9052416699308703 -1.3646528549514885 -1.0938866386023613 -1.0296910777610588
Ni 8.93938905623727 5.6883445118050915 11.78958964087278 1.2482541297440695 -0.737473119296059 0.1217047108013646
Ni 6.774147818071432 6.833961682512673 12.244539282787619 0.4612538502521605 0.2303649297139452 2.037547061924897
Ni 8.348789343412728 7.414703514680599 1.7557918179788325 -2.4249529158476557 -0.17108994610271178 0.7424710867312826
Ni 2.119444341172528 7.218165539760972 13.442008905749002 3.349665594423096 1.6806267781855058 -0.8598627719795902
Ni 6.657740330203445 3.0975150945487036 1.141664629987167 -0.38675845014674687 -1.23766195605052 -1.135850898849289
Ni 5.9127474293807545 3.3759298096648553 6.336614704162392 -0.012511245093133292 -0.5157247276065311 0.013644844476944244
Ni 5.624831595003178 7.81836025642462 2.1364712481809467 2.188677791296863 -1.524017285087156 0.7567790187135225
Ni 3.6795713108041777 7.327081038329931 3.95581541448432 0.9359036621952528 0.30061312450723066 -1.049206264975851
Ni 0.5543180177793089 0.9626830710940857 11.59012622251258 -2.1496466455363303 0.9760362685500804 2.6801930115367263
Ni 5.514404554733537 8.954241596426572 11.537553675547958 0.7359731377117646 -0.3189972834413732 1.4592977334215835
Ni 2.8278128682414465 2.910403131228356 2.4060007268652686 -2.088037357364965 0.1290102433238423 -1.448747725819879
Ni 1.8637027515665936 7.251851326233296 9.709525185808992 -0.21945008257365428 -0.46029277189047185 0.46693316002512486
P 7.332338574680126 2.7311305301444606 4.765583979678749 1.0232887737791407 -0.9963852645200776 1.626088023707677
P 3.1240844300327266 3.3536322224653663 7.576928554148985 3.341889550022102 0.9630953921186962 -0.5401730904568827
P 7.40951169753478 8.803012318696307 0.06032178000650104 -0.13805692690714289 0.19346908512886038 0.49508699675152157
P 5.913949151975084 5.5893807784704315 0.469450114937833 0.8082468475755112 0.6488909020802761 -0.28900639350623775
P 1.6878193837370206 2.0751589858799 4.426732006525547 -1.3417957478476568 -1.084236774217423 -1.7838252026525665
P 0.17164541799300492 7.811102978569797 3.4694538705686173 0.7860155469811366 0.12212662883013162 1.5326261098020892
P 1.6991700291787817 8.573201649446158 11.781991562000972 1.7852012570644868 -0.9308612146753388 -1.2089460761730664
P 7.745017624339393 9.335600750971103 10.50628040969091 0.5490608798648157 -0.3727197126654936 1.5617240556093104
