# total energy = -381170.6882501379 ev
CRYSTAL
PRIMVEC
9.18235686348335 0.00000000000000 0.00000000000000

0.00000000000000 9.18235686348335 0.00000000000000

0.00000000000000 0.00000000000000 13.43930743656120

PRIMCOORD
 96 1
Ni 6.319316454976795 5.295042895876775 11.115194487043336 1.1055658747125023 -1.376466559756965 0.3396260154353183
Ni 8.68430596025419 9.105629229033058 6.590865380425112 -1.170381585636307 -2.1426907830437876 1.7707688836892408
Ni 6.342474359341286 0.5224026546806603 2.813895656261059 -0.16213299401974013 0.16338280726644122 -1.0192166605922963
Ni 7.455091375178326 0.6591472334223087 4.70450990693235 0.21879522259847478 0.5340345816593125 1.6656531875948088
Ni 1.0901753353188743 8.345183151376558 2.2422544486169924 0.07997442094211388 -0.0959833947758605 -0.748938182512865
Ni 1.2220798936836301 1.309220461653107 8.229869275646918 0.7659611994334228 0.5196865404677565 0.6883359954497758
Ni 1.4895986826428222 1.90038978793792 3.8433728570753356 0.5354265769108327 -0.6411806779202118 -0.1974805202810986
Ni 5.314344210299519 0.7572772462543639 8.11899506952879 0.3350692493025713 -0.16152004302608958 0.5777839588311211
Ni 7.84335815874222 4.770840499223299 4.292944728941802 -0.13275299819572622 0.7874049711294955 -1.4412645300689564
Ni 8.292972269450905 1.4282054437130096 8.930218663182593 -0.1283407280606435 -0.406399621416442 1.7217045220624219
Ni 1.8391067372921572 3.70531061010359 8.902479680908726 0.5802907844133749 -0.27567059562928004 1.2908567949059446
Ni 2.109582245206689 7.091745508523722 6.3829988555077435 -1.5575640106943498 -0.6143872118764516 1.771471309072904
Ni 7.115849195659641 4.34346605717869 6.371683436971518 0.28639158159121 0.4296945873886406 0.8206015124861222
Ni 4.2515873929950665 1.258790956986261 3.6274442227083146 -1.6480102777020649 0.47861239613526596 -1.3068462283556654
Ni 5.071783067677634 8.28035571092719 4.346446650262239 0.6209052155006274 -0.1028811503369583 -0.6826250611079276
Ni 5.887442658000146 3.2425840935929644 3.8045470969546464 0.8585581942355536 0.11094053030632507 2.29655125264209
Ni 4.8059171029791905 7.442337081299549 8.559683010993732 1.0088000932446628 2.0639368647723355 -1.5956448767264713
Ni 8.860102185098828 1.7922308047859214 11.758224847451944 0.5260235384293779 -1.2289927104112963 -0.17676694188283107
Ni 0.3299973824868963 1.9166333774782787 6.272407465985343 0.5475395581242828 2.7319266924655916 -2.045677918562148
Ni 3.270544370670631 7.53756730578969 0.8166448572290587 1.6509796447430338 0.2991259984387429 -2.2027394115962515
Ni 4.255820459573983 1.7352175501470932 10.071484632872611 -1.13354564775488 1.4257124412669706 0.11394897811534568
Ni 3.3279616490176425 2.1495071334607756 7.4671211810894755 -0.10066100275718794 -1.677943832036704 1.7249135159180229
Ni 5.709607949900582 2.572942344350601 1.848187170133571 -0.9687039965547252 -0.29306616539790814 -1.8263142250547126
Ni 2.2956351628249747 1.4183252275765335 12.686450952288451 -0.6540567625519317 -0.091389604757591 -0.6545529854620599
P 2.1227864745786706 5.456239173084801 4.926890065330493 3.333048554691705 4.175923019643414 -0.18259074765345973
Ni 2.4155200158712855 6.183858324451429 8.593751391950565 -0.48328537613090317 0.24534289118001615 0.8988178130865488
P 2.412535749844934 5.7172201238570315 0.27195662209930255 0.11811467945726112 -2.6253331262740534 -0.6068669922400064
Ni 0.9912629856700647 3.978338813265278 4.780872224250344 -2.531449037229382 -2.926330887814212 0.7133235186330489
P 6.190028868358224 6.293468120010084 5.439694402234705 2.286195106218747 -0.23681325644245022 -0.4665485229921965
P 4.226115534665527 3.9433540330794297 9.281428208584797 0.4175983183457389 0.6769213258549309 0.08236966064716782
P 4.673819715117347 8.857641313421713 10.446091742157119 -0.1951457015003349 -1.5427778535241108 0.1244233952841083
Ni 7.493455262741706 6.615511744859977 7.689300245869228 0.1506159945190761 0.6198505489838679 -0.12075031730789526
Ni 4.682653142555349 4.507490500343996 5.410355853370715 0.9222251362668956 -1.637770345141612 1.6968656086418714
Ni 6.063257247558794 3.604525059625932 13.347624731901579 -0.0832525774727534 0.8904414160973956 -0.072506651810159
Ni 0.5339558962632942 7.563020799405221 8.22117358356398 -0.24783274748140546 0.5284827986031478 0.811513691252241
Ni 6.546726708541817 0.8687418779278598 10.58924744255907 -0.09587232311929296 0.10064403347632345 0.1872470154785485
Ni 4.636392427968392 2.03574691253624 12.65969356397833 0.2690646602769882 -2.034364036211225 -0.7620767767773521
Ni 2.4281182096809926 6.0165741445496455 2.465763118690947 0.6740689440078003 -0.02821451476100302 -0.4348635331840898
Ni 3.268000857780479 4.457951684306554 7.268393856098347 0.6992539279138602 0.9295471238496056 -0.5745839638365846
Ni 4.909631825341175 5.201190024937257 1.5033079416500328 0.5209358394938254 0.2530726557241061 -0.15621328610119548
Ni 6.663590566133759 7.223604155103457 10.18390422967454 -0.7769572934336103 0.9210845949045492 -0.3722358310505396
Ni 5.319339412509782 1.402779497168491 5.545300690139547 1.6478380137902588 1.4567122320825945 0.7933354776813175
Ni 3.2572207706575953 2.6880248246837364 5.390465949864003 -0.640647174014245 0.17364305154186868 -1.648104122967452
Ni 4.606026373355634 5.970974559666987 3.8728996442579118 0.7207568349826425 2.8002069648992287 -1.765953464578468
Ni 8.763320142274983 6.782805107118765 5.746957187015003 -0.35121423449354994 -0.20180691557059438 -0.5483764522032814
Ni 8.819745726065547 6.2420836502148065 11.711254336668565 -0.8083054687275886 0.1945443204709101 -0.23312166652347593
Ni 2.2828257748041723 5.261508928097584 11.372758682774318 -0.5798547253172207 0.38928892987808444 0.6968427473692064
Ni 1.0775036826531337 3.7731774107213356 13.29162337300461 0.715976897095496 1.2359945956504261 -0.19715810394467337
Ni 4.4564549601148755 4.19056144834542 11.65396285661251 -1.0978962739823865 -1.3314683977797197 -1.016307200254985
Ni 8.436979174347144 5.20777377490924 9.559419475707235 -0.7069901202158534 0.6008292706863588 -1.6082939329490495
Ni 0.4023653745080807 6.33171263693241 3.4367000388966034 -0.345873796117243 -0.05690905448221812 1.094324240360412
Ni 2.890853908548623 8.891983328617272 8.35732773675026 0.3710137857179804 -0.6351414137046675 0.5534027017732791
Ni 4.361940959471059 6.752025846440822 6.309513370639154 -0.6284380335425629 -0.48427422240673373 0.825583796192062
Ni -0.15663631871975983 5.619565757117791 1.2214251916292334 1.1513109421581011 1.828686067720999 -1.0587036629433253
Ni 6.063982653762122 8.393923102354638 6.501238230178909 2.345800990806837 -0.22165737463761825 0.020632845759003177
Ni 5.854891202420399 5.214761548589406 8.276906817636426 -1.2038442361701265 0.07820138820209113 1.1482904101642226
P 7.338172423444359 8.602775812414253 8.596292150133616 -0.12303551379764618 0.2716398772033322 -1.1400950188376238
Ni 0.615061819209637 8.824024704429485 4.54297020957237 -0.32272641146650227 -0.06593028414422195 0.07501656271620628
P 1.2092705056628272 6.995844971972277 10.511339734557277 0.5608900112892597 0.9374347541277984 -1.1027214632851718
Ni 7.518027250084838 7.626544345159998 3.594450177520968 -0.4504881270952242 -0.7474338300531966 2.20729540639805
P 3.2014287695003203 8.611792886992339 2.477804861666202 0.43765523699661396 1.692578037010111 2.8722263926603246
P 9.041499647716005 3.4382142095665897 8.256398023267636 -1.5477164284763087 -0.3944681600861787 -0.7690727484792109
P 7.046513217921231 2.868871345880664 11.461337207850647 -0.5392732043504325 0.2974432114196813 2.152041371020752
Ni 0.07956512344104483 2.017262827886866 0.7705227962328643 0.005400602190281022 -0.8206765886984319 -0.02609618286641957
Ni 5.2658521829605505 8.6351068914259 12.788039040768274 -0.8634983118496484 0.04627085804208161 -0.48873971437725505
Ni 1.19989531916158 3.897322877417576 2.422717147291146 0.47983469857814137 -0.5067945149964368 -0.7753650092458259
Ni 7.244319552504842 1.8134328671085265 7.015291367635688 -0.28392743632143363 0.012673738812926562 -1.1500690993312
Ni 0.34386733274167974 3.843817283154337 10.942902249631485 1.0254230465133243 -0.4869355712889807 0.07722102656669282
Ni 3.8513192688267357 9.129328892460794 6.205452473418111 -1.6491256222534305 -0.2846964532769742 -0.01746190423018928
Ni 0.7330918361411074 5.145342929637958 7.158729884633368 -0.6087097018757001 -0.3291744810846911 -0.18356468153095482
Ni 8.753338920211462 1.0454939861366326 2.7856323614022553 -0.35805671133668016 -0.6560794494089153 -1.0430464160220423
Ni 5.654513807875623 7.615791805108127 1.8342777357436697 -2.0747426971385883 0.8295517797008745 -0.14222854178632924
Ni 2.987672680800484 8.013975534236513 11.718001532595222 -0.1843450113404051 0.23197855405796824 -0.8426700622503875
Ni 4.085212266436694 6.23471939989747 10.105283970769223 0.5671041105197717 -1.8648612320899753 1.8591929780606045
Ni 4.446822667617512 0.651051149251741 1.271850105117577 1.6571006700391075 -0.2980649041640802 -1.2384803381867573
Ni 7.915412114153862 8.161912487930532 1.4925829486691742 1.6716878238246629 -0.017412539049492592 -1.693530887841683
Ni 8.561152188114397 8.509675894749076 10.472634263313342 1.3211083947016344 -0.46763815651194945 -2.523696389867157
Ni 2.6729657591969147 7.677497244176082 4.339659970200465 0.7711131759480074 0.0895209269799684 -1.4693646307392823
Ni 1.095556196523312 7.361633345589987 13.206109000460568 -0.5977760856823318 0.1893000413528353 0.10801127247467204
Ni 3.6489033910270363 4.127726579365954 3.2125458491252568 -1.2096379600337683 -2.637663622814948 -0.1980507909622718
Ni 2.4022882394282914 1.3991616485088523 1.567722176034214 -1.49954398253614 0.9444685210461283 1.334801575918011
Ni 1.3730837546170382 0.23272867474183137 10.294509392732449 1.2920536434275232 0.39817003441779814 0.6116505296715788
Ni 3.3886019346731135 3.631080436081962 0.32707647472387313 0.04045296580872387 0.30249928578635005 0.8223161811843838
Ni 6.806045652696294 6.342997753690522 13.40464808713311 -0.28303860595857705 0.33563052112268005 -1.7092418708190371
Ni 4.51131954321473 6.368965459298287 12.412544915797167 0.23675823483479874 -0.21278706873118192 1.414056859305913
Ni 7.491582061912857 8.566275943322719 12.255251140315908 0.21036817487704415 -1.4564407235887626 1.808697540414214
Ni 5.469994343877032 3.0997525303932587 7.459528290082736 -1.4700765692046425 -0.14469242994578949 -0.4256157893335767
Ni 7.015834963170333 0.7948560422938878 0.4421598732927085 -0.7913032777426372 2.0531318037370316 0.9594387692027153
P 8.429523100459766 2.6347120599175846 4.1496687396630945 -0.4992377856951014 0.4630561935682219 0.38606039563845773
Ni 6.722017903751227 3.253749839710023 9.534624357088902 -0.298884314741582 0.4666307982933577 -1.7888247127496868
P 1.7204890495124208 0.06451432207552646 6.4573989031339485 -0.487607914765657 0.704240325384858 -0.0630089967323689
Ni 8.038859721717786 4.381490197532915 12.795981779576872 0.904438758817752 -0.7248798560120806 -0.14083654653480904
P 2.092576520034985 2.2850387228421747 10.678456795561585 -0.622589802291902 0.22841911884148405 0.043377852765002715
P 7.028341333409999 6.077113424278071 1.9945144566447606 0.8181849326248297 -1.903789276613741 1.7872239439214705
P 9.447910768720119 9.313389238609178 -0.35711288272018027 -0.5088488264223043 0.40274968336868056 0.9589836839431678
Ni 8.065543651171875 3.7868683050145377 1.9178830962665447 -1.7564763783259685 -1.4494102991045426 0.7483038913629758
