# total energy = -340883.61356944573 ev
CRYSTAL
PRIMVEC
9.12111363523359 0.00000000000000 0.00000000000000
0.00000000000000 9.12111363523359 0.00000000000000
0.00000000000000 0.00000000000000 13.34967178146133
PRIMCOORD
 96 1
Ni 5.367985220608731 3.4777620939372653 9.842353037602708 0.8164715494781488 -1.7599522526897111 -0.8760998026637428
Ni 4.567799033460933 0.5106902460963476 6.298508474631418 -0.1304073807816851 -0.1735075544052689 -0.12145094291934566
Ni 2.9163301800033508 1.882324242174093 4.726184437192486 -1.235000607168273 0.22936734168736628 0.44350989600517815
Ni 3.8758987086142977 2.662152103457993 2.4214833084704397 0.42893842594890647 -1.2669758745232889 1.0140687978427696
Ni 5.5428825765407375 3.005598520160146 0.39153110410775155 -0.5277456633268072 0.2958732958294001 1.478849430301266
Ni 4.696333768261133 4.631409680671875 3.052789338419391 0.17853946040222154 1.4120891940565812 2.005847416828771
Ni 4.9459421668236 4.7711907487114065 11.867271299293224 1.2535431460571507 0.45832690641335266 0.4143265895730025
Ni 5.865204493824976 8.196989857681546 12.55799591257899 -0.8146545508740679 -0.20883502606196938 -0.16450637934792314
Ni 2.4259699843183125 5.478122668998769 11.821869131438062 -1.289780016901998 -0.04412450112304014 0.20573299009787796
Ni 0.9568686789444085 7.425808812221559 11.598035176077298 -0.4916820848350306 2.3506434065008035 0.2069951446397532
Ni 8.368101951412156 -0.06436769965122147 6.8166360768699805 0.7170667877255651 -0.5361901945497347 0.9630632533291802
Ni 8.63224940527348 2.4826850695430953 1.2191189411481664 -0.3500497818718036 0.7354882276555462 0.25788858905551076
Ni 1.321266293903449 1.3655675433303984 2.562790338838389 0.10224197409106264 -0.014119984341149876 0.31720368187606013
Ni 1.8575148128059022 6.931946108861012 0.5363497632649484 0.016917087470312803 -1.1329488947111457 -0.0871331434740822
Ni 7.015039455016973 4.038181564246228 4.092422091313809 0.7002448310722198 -1.3003973874065282 1.7172063770817525
Ni 7.444397642020226 4.703740112616638 13.190757672280576 -0.39710251238523225 -0.921492114755613 0.3883149960005893
Ni 6.785679928953545 1.0905659641204897 9.48215204707466 1.7351817306132504 0.27664735772025256 -0.4976519292652204
Ni 7.0009382131775535 0.8530913831640907 0.24477147194704324 -0.44770979301913866 0.6580954513976796 0.8078305859736992
Ni 1.8232103040361356 6.900441782008904 9.406285359333557 0.8228062334469248 -0.9746802687428183 -0.5768552763692646
Ni 9.316031938893024 4.960280557620216 1.4106732749890667 -0.22458894646211644 0.005849516802241539 0.7331148423273633
Ni 6.629499098412541 1.7017261901556455 6.86896664272076 -0.41280192539836 1.6077452595344313 2.228373824334904
Ni 3.661789684721316 4.423685436395707 0.7721852800825739 -2.550077450963847 -0.5378210452849382 -0.9426978022989507
Ni 5.84682544964229 5.99985037482984 5.488517090214942 0.595401157692252 0.14642561058681233 -1.6238601628184228
Ni 6.508899732564667 2.6574091243140745 11.765652971134763 1.3037148818155353 -1.3920656997468026 -0.551101050223296
P 0.12647518731809085 5.837047615714826 12.710796458368579 1.5492994566927125 -1.191520424497451 1.6409613412750836
P 3.885256971309799 6.382700002881472 12.877721048781934 1.5191180480133255 1.477292113116475 1.8751482158382802
P 2.0966248094555797 8.74243245923221 1.5235315516072414 1.2872994165719895 0.6373402211281991 0.9910759364920221
P 6.667278751516601 7.924578674773315 6.037602664592686 -0.662916784045723 1.0863972722038515 0.048590250203877604
P 4.776262087949904 1.2356737625831908 12.778532585323356 -0.09040872890156043 -0.25653721723393885 1.6345389826885077
P 4.046016600947432 6.60695170525145 8.448713442519924 -0.3132200146379638 -0.07206905005210815 -0.4525596649122722
P 4.6065455246212546 0.864791947867589 3.9768539318039835 2.258912873464026 0.6571675402667715 -0.9395291747629818
P 0.3034786084122723 5.506735602795834 3.681999336431279 -0.554238053190381 1.181414703522017 0.533535787646023
Ni 0.25267765333540637 0.3483107066587912 4.661959026915582 1.4757839040020648 0.3116411001866181 0.02516981439740826
Ni 1.8603879636334686 6.684681836529289 4.897593879230965 1.0261411556262716 -0.11098115373627339 -0.5815297990267985
Ni 8.510163297886264 7.564805464479596 9.469482820092155 0.2663220645348445 -0.12056108411522462 -0.7364549624441896
Ni 8.75185456972388 2.586300921610245 10.242335765700373 -0.28244031025294586 1.3815540015822012 0.9104939638728965
Ni 3.7566219042584774 4.69000371532675 5.720228039400105 -0.17219577757238086 0.25401573636366576 -2.0420048405859346
Ni 1.4525464839388793 1.4363929915083404 7.144917729870826 0.15495473110374602 -2.051800486520118 -1.1502364781469996
Ni 1.8571043626876786 1.3384687144138931 11.570481203585251 -1.7303652830612133 -0.6401694630468783 -0.5906042505242409
Ni 4.133962379612174 7.403589779155047 2.097767685006989 -1.203454714041192 -2.859624130515282 0.16734462012766665
Ni 5.541441440570085 8.186482334655018 8.414498320664794 0.3004534590009148 0.7210244868217325 -0.26190850884818123
Ni 7.090580518997619 0.7946013292058334 4.9167509544155275 -1.2117172111603 -0.4279089562431276 -2.089677721181866
Ni 0.9319862806663114 7.20683823470606 7.034662619113564 -1.6072840036272964 -0.689985872348373 1.795558946149727
Ni 5.212150992389782 4.636034085337196 7.63587900695122 -0.8926124556067854 0.4194155740601358 0.40446743739073565
Ni 0.5939422996313567 9.766158901878397 9.463916204377666 0.7895788388523628 -1.4227528444180142 -0.22772209277445943
Ni 4.877132484781823 0.9395476839553665 10.703580454221365 -1.4751089894222271 -1.0991368312577072 0.011531654788683366
Ni 8.458911759790723 7.20425695951812 4.8601352893304925 -0.8466179911545418 -0.06952211526053834 1.1594042606891968
Ni 7.305063508553872 6.423526107974127 7.514837267087037 1.029063728589705 -0.5041974436932221 -0.5082433316278215
Ni 2.246612403768274 5.568503785031638 2.544714115631815 0.6807466131382921 0.2050786443433307 1.1997736656451787
Ni 3.7324327106244914 4.9500101835508845 9.70934986918211 0.2190101668227583 0.8917760757484189 -0.5738082620128248
Ni 1.0936489005640369 3.431381230577982 3.8987854072064536 -0.10562374607910195 0.9458633445111257 0.06766526455745767
Ni 0.4603964249433314 0.3153296714924526 0.2523556780204442 0.5101829718526955 -1.9438000126787232 0.784092876037127
Ni 2.394456536352467 5.193571283704855 7.514476983094374 0.5080456137947186 0.879143474586073 0.7990716088341463
Ni 5.17787384696123 2.813991283859564 5.078749231298822 0.10091425641857459 -0.28505435083702524 -0.032589761010563226
Ni 3.9495881865060674 7.194588578955517 6.265387886424883 -0.7562789391486524 1.0026348449742153 1.7929973560701382
Ni 0.5869792414035343 7.687502686487281 2.953133873937413 0.6268418927000365 -0.38826974458495067 -1.4026946402155585
P 0.1394718622838023 5.493272838918094 8.454240837445338 -0.4950114063185797 1.0896741431829104 -1.8319698806785933
P 8.463809797868194 1.7620805997620126 8.073748105183684 0.35224576108185784 0.3398311894675889 -0.22509159713014784
P 2.1303546880598327 3.961646298868107 10.441512614292373 -2.269076701370905 -2.3382396335198115 -0.6962249112795493
P 4.04441128492949 6.693894161404978 4.269077997974561 -0.1013955669303673 -1.5956798437294648 -2.525170403309522
P 7.275921550159985 4.36941480965279 10.804437169382679 -0.5686953662662915 0.47395278587606754 -0.7933010248989564
P 6.697579091355253 8.171259195825787 10.414439324494335 -1.5369185665298564 -0.4594175683743701 -0.26812980716754464
P 2.0292380211569787 8.610677971282389 6.076557117146241 0.8519100927914168 2.0169116450627325 -0.9035334733946633
P 6.763360563635912 4.1678655593774545 2.03597213942997 0.22772543520856908 -0.7052700522009531 -2.1145392603102358
Ni 2.612843362588714 1.8869942524081056 0.48634599352881036 0.8828949712087052 -1.4654547541619147 0.6141758671965939
Ni 0.9014332859771095 3.429283374418172 8.024954707240619 -0.9479827048469738 0.8870948682226657 1.3184069366100712
Ni 8.073125133115358 9.343486491245324 11.618460086071485 0.32823217177607983 -1.0085218998826115 -1.1379568894486982
Ni 2.6679166473406024 2.153650012547465 9.400344777955798 0.6191892612507852 -0.40588668633576547 0.0023510167306798222
Ni 6.5333716807245406 2.052934674649096 2.4640022922729243 -0.8368789094899071 -0.24853080198969452 1.0107237926299368
Ni 4.2101692848957155 7.239427974093025 10.824848397706257 0.32869882699985326 0.2038432292743328 -0.4784920685073178
Ni 7.5954159221853494 6.4385212189599015 11.518577505857424 -1.2749187835194493 0.7069332988359889 -0.057051750707669484
Ni 7.479586898822609 3.8982180739319308 8.279947299242808 0.5453309805087382 -0.2565806688773645 0.44787382940082865
Ni 3.084496153996488 8.769093474689278 12.673511169629135 1.0693891676816292 -0.7909451230722702 0.6788205997601728
Ni 0.39851149245167666 5.342473465482691 10.545185929376075 -0.5413979640029193 -2.0411226950912975 0.16253460033353298
Ni 8.732818805352036 2.820950693641891 5.707037996823142 -1.101373948118342 -0.9360625563706202 0.5546527721302964
Ni 3.414571017958285 2.918583095096712 11.815834602588797 1.8490538327440735 0.8955306576948449 0.13241772634349455
Ni 1.230638907799646 3.508126281572084 13.01570343319227 -0.5694445857274902 1.5264683177308098 -0.7698677335766806
Ni 2.9160018199087716 -0.4456256933555196 8.25063112757652 0.5698953001116636 0.6554299887503744 -0.28403927930894957
Ni 6.042473339328942 8.04124684059998 3.5070791777149264 -0.6475508431126139 0.5327117490828309 0.6862994246357212
Ni 2.746777796721991 8.767944214358252 3.8499920092633886 0.26662596892850854 -0.7400208254185772 -0.024657393537363986
Ni 3.505143677379658 2.8479491903072747 7.255386274689565 1.3499502586339913 -0.560220496026061 0.5900293518573774
Ni 6.06159119372443 5.962709199687461 9.557844521543363 0.27798304581254063 0.2526432814961713 0.6191866901476241
Ni 7.898565258391668 9.184140634237128 2.3729443896006734 0.4124514840374768 -0.10477939580093566 0.235723108702065
Ni 4.415968974173101 0.3884664098916809 1.7137377848376198 0.5318501724134841 1.936083874981388 -0.7154925012599096
Ni 5.482655862526707 5.573538639815182 1.0934838084053735 1.0557638635887105 1.3879362509594613 -1.5336591790522942
Ni 8.284671124047875 7.257670201569637 0.7128642926627567 0.28496641910890924 0.43646635889483537 -0.16185968575369544
Ni 0.5342446102141476 5.063750471867553 5.972562738858952 -0.9290832968393097 -0.3483063168181356 -0.35924584654877484
Ni 7.342897888340363 6.029329814432043 3.0258765802231467 0.627016727715004 1.1814154748529653 -1.4012746199395802
P 8.50517404867141 2.100574251704266 3.487308251575776 -0.86048240784146 -1.376238502906559 0.987344494474048
P 1.9504589617992347 3.48333509443137 1.9301352961675424 -0.005751557771796546 -0.03562032030677091 -1.7362507953077129
P 4.885624241672186 1.3389521334420234 8.496892989508401 -1.163805732191002 0.5883704760977158 -1.1867921657838463
P 8.977821041476659 1.9040416139849983 12.497241998190887 -0.8362317628242114 1.9148028541154247 -1.241028558529908
P 6.285031116971698 7.511665855840229 1.3069178698817208 0.036081576213905606 1.690794976967759 1.1489527263385697
P 1.8901501577615591 3.340772086701656 5.986393083620344 -0.29913911106486546 0.5887134612594312 0.21649794192386584
P 6.715036903050369 4.1883150963787354 6.258873586992986 0.7171601187703197 -1.266320243217161 -0.47827172496639564
P 2.4913136431395326 8.598172924347173 10.535867799581021 -0.39692896292184543 1.546301807516969 -0.47491900644407886
