# total energy = -340868.7059449062 ev
CRYSTAL
PRIMVEC
9.30509544953018 0.00000000000000 0.00000000000000
0.00000000000000 9.30509544953018 0.00000000000000
0.00000000000000 0.00000000000000 13.61894776385162
PRIMCOORD
 96 1
Ni 5.703595460657195 7.554527822061291 13.381296691867968 0.0002493970066447318 0.8112666082384415 0.7814577524071251
Ni 2.730245268802015 4.828460541104751 2.0946756140033633 0.24896557553426799 0.04180279496839897 -3.106071567613386
Ni 1.7707224388473222 7.007574313025655 12.065747883849035 -2.40441057291993 -1.3081343510394696 -0.247675910188567
Ni 0.5386040469114848 5.032698080570951 7.549894815049573 0.5430226440905357 0.12497721090504928 0.3549135377220081
Ni 0.2050843031498034 7.35026236730882 8.68581061692303 0.01563899208883758 1.3243531268911772 -1.669906306444208
Ni 5.39411729194307 2.0760412299068207 5.732664578762458 -0.4050101972680832 -1.1212516608788754 -0.7496290379323025
Ni 1.9711728044758643 1.1389250697336495 9.297750912401417 0.2571771648107829 -0.10312052004127403 -1.2932672041196502
Ni 0.9548516720517343 8.785015030769262 10.516442051640107 -0.6552536110735102 -0.03198143800260299 0.7201652241452307
Ni 2.4674135434495037 0.08151728846387715 12.488507214767154 -1.041184423112639 0.779303939288916 1.027161626470986
Ni 7.807170467924283 1.7462872582633213 5.4182435433589875 -0.2607738810231057 0.48464960346828145 0.20817348121857052
Ni 4.7137007992378495 2.9482543494960596 1.2126512017988273 -0.92800009107746 1.8620697853877675 2.6536808241788106
Ni 2.7641065110507506 6.851416201616399 6.97663300972104 0.5911974040235496 1.3300128962801159 3.769670465327798
Ni 3.244389011371853 2.1264562369152435 11.700801110801592 0.848063465351817 1.3476671190267695 -0.20731036188732685
Ni 0.5445351147348824 3.68853982616071 4.727858501925799 -1.2006367849764223 -0.35449264813450565 -0.17069425332618993
Ni 0.6421260250345567 6.026044932392683 3.6109818557998388 1.5324281348586704 0.6362477593949687 -2.0120664011552893
Ni 6.822942609618287 3.026445066345778 3.348027303187728 1.114666294351874 0.16750608540619538 -0.8376700379326347
Ni 1.1217478635805398 3.519773310451637 9.468586881332836 0.5437903754944957 1.1419001903671624 -0.4305862459649746
Ni 5.109604694252127 2.503070669115114 10.446713388569172 1.5495200573439507 0.2472275097972387 -0.8736562262192566
Ni 1.9000353499577043 8.253200911988833 4.021866023937568 -0.08667471578042493 -0.8977130100581443 -0.6202765807776931
Ni 7.798712136183666 8.4557356189924 4.858982184605734 0.42190414480994437 0.2014374480463176 -1.1587599422369785
Ni 5.162960111414604 9.043826954898512 4.396509636926589 1.8469241879955804 -2.5282724392736133 0.5764786097561362
Ni 7.508337328375465 4.008951481998293 12.86402178468788 0.3961208651982533 -0.7706511487099245 -1.6287565716787755
Ni 1.0108497363146887 0.12065731134677271 6.8456591390774335 0.45459932105012035 -0.3036465120169157 0.2420436516034541
Ni 1.7406576755316683 5.5997878161046 5.5929746252349855 -0.09350973642438734 -1.180236881163832 -1.5864231010178873
P 8.969842141180541 6.694951022058144 12.894011176730597 0.0008309805417276012 -0.5352262879745685 0.5354952253652391
P 7.51024487293743 2.484302291644463 1.2091980808868996 -4.0739767224159 1.0799394323936498 0.3465291703130548
P 0.23701287707892862 9.060752923475167 2.7845302649973704 0.09578799093560278 -0.7939492000059165 -0.6593318949079419
P 3.39230280823525 9.043724598848845 8.00234391393775 -1.5844387235980066 -0.3738808228531303 0.5682317963663117
P 3.0888357311651715 4.446551509608501 13.019863522852713 -0.013706036732182847 1.212926143866737 -0.2244382798168651
P 0.7047967732262193 7.472280083606614 6.200243762810416 -1.2536210504829377 -1.3993249524123772 -0.5273039478036984
P 5.71915358020649 8.63080168430367 1.8723191927271232 0.058131614035409555 -0.29019861404212605 0.36581038714017
P 9.27582159401516 0.5654892591206829 8.771528225461399 -0.9087211882431898 -0.3564849959741861 -0.28286119984044833
Ni 8.020089661421279 1.4547679237179407 10.462688376393475 -0.18316924586474906 0.27325118755451006 0.9485648026026888
Ni 4.12700522764537 7.1257583300086695 2.6583773642930537 0.29582367353838734 -0.4736509383649326 -0.24139341961396493
Ni 1.041044770966282 0.8180835184874675 0.9052704015933217 1.811722186173151 -2.3079839199590637 -1.4342826994344848
Ni 0.5438800360170174 0.9522741606192254 4.490602761856299 -0.21904667648764858 0.494146230104807 0.3943082374695467
Ni 7.637445527386514 7.79038407577899 6.988522130144564 0.5782195037066429 -0.7505250673840106 0.8811021409743407
Ni 3.4474727190054497 9.276742798462156 2.1416337780616885 0.3995882549215634 1.1546963136905661 -1.3897519640119613
Ni 7.488061525446089 5.462909862414327 7.845262737062411 -1.0965721558543244 0.9981107318516166 -0.4189059814135689
Ni 2.1941042806493214 2.1682082000837175 5.6583326849851625 1.2235216599943959 -0.9147707368713793 0.3485665124580578
Ni 3.481464232590124 7.4341571076535855 9.796885536051988 -2.402019189869618 -1.6730103992908283 -0.9730540459933049
Ni 9.15500423502709 1.9747459611187645 2.2443071314820715 -0.4689316785123924 -0.34989140191706836 3.0643957851411545
Ni 3.2241597339195995 4.555960821606476 10.861928148117332 0.23815254407916409 0.4235288248975609 -0.6412734947443343
Ni 5.406865272674252 7.178034356101937 11.033636004490004 0.07641344306373292 0.840781586978423 -0.08662406504814758
Ni 3.473536291288689 2.7594818786249133 8.910836670076478 -0.12752286014503844 1.3025512005247375 -0.9142012375211547
Ni 1.6486209766907107 7.749711503679725 1.5003172963290385 -0.40827164162817425 0.15969970198789915 0.4670671144998279
Ni 7.393977705611804 1.7656046363640014 8.158811885024631 0.5743862460034818 1.8800749637159362 -1.9908334599184425
Ni 7.245598653977195 0.5493644592600525 3.049186719562571 -0.39203126850991193 1.2094415277522461 -0.053101507810669836
Ni 5.0839691563584015 5.593683673506311 9.228921121548463 0.6612957035025321 -0.5243209539159743 -0.3765858804891192
Ni 7.530232217908654 8.635128553675932 11.811631310870847 -0.155310571781268 -0.3226549347986185 0.006280947912705312
Ni 2.437609322805728 2.8532121048330787 3.4446542056014535 0.39591080606997625 -1.2875711821761373 -0.2922657809837999
Ni 4.08711428356174 0.2779627410218349 10.185788277269085 0.31917648933171483 0.6235210558569196 1.2070352323035987
Ni 7.248138945028009 6.0772043470350425 11.71899536388457 0.28481343847081275 -0.34144095715687006 0.4449679686079433
Ni 5.031721045551408 1.0720307387289336 8.130471355891085 0.9363044971780973 0.41932661389075526 -0.665528253526641
Ni 4.527654721326 3.8818345734080277 3.43637360118344 0.614232174355826 1.7459952762889868 0.41317550668769487
Ni 5.6798116367528895 3.418412905995611 7.486431272727767 -0.4989097129317215 1.041174138699994 0.6889990829550715
P 3.316838484344828 0.8344977068157912 4.082960488964368 -2.567514672603688 0.2898008643830751 1.0862314360499485
P 3.793706014645242 1.5456042652491737 0.04296348659270745 -0.9697933729641621 -1.8225421596067901 0.24149523529915184
P 2.3824580222263774 3.6903636248638576 7.1651328412962565 -0.9459188803394096 0.00333754901366522 0.5370872524427073
P 8.8597163368349 3.4114992200954157 11.055113095238646 -1.8510256117584638 0.9340311277628881 -0.5666917055727014
P 5.832796710622487 4.785350034004341 1.99072280996215 0.9224367380570694 1.023285174234715 0.4277222941536183
P 3.103435425885772 5.653375860652681 3.8118481591938433 0.043842965326879334 1.1342979525398722 3.9583171893673503
P 5.747710918063421 4.408986839380925 11.107450534961712 -0.27861322319737175 0.7476821986185768 -0.004255432842244285
P 7.10595708694593 6.939442404329517 9.645483258914053 0.8632265462455004 0.12482808692169468 -1.1965991245719392
Ni 8.426480398978653 5.8985651250808715 5.206782458314966 -0.6117826843740689 0.2503269746581689 1.349685692118695
Ni 8.903766658573156 2.2905422896259346 13.386812752435446 2.029840951529891 -0.7435488931764936 -2.0001277407361746
Ni 0.8083643463168699 4.6262794277273045 12.245790314193178 0.7146260394945564 0.27369881661489 0.8523919175238417
Ni 5.03682023784388 1.6986265595004675 3.421978618562172 0.10670566628937106 0.37543531182444373 -2.3337679709017034
Ni 3.2911471158785575 8.800396353505498 5.7786689705398 -0.14811482536377718 1.6575845516540615 1.5980902529431704
Ni 5.175149786420331 7.7901421432979605 7.906834553484472 0.36167399637429326 -0.7982288012178769 -0.3774690544250209
Ni 2.143028611865779 3.0676945543613443 0.5864703882832135 -0.9233687629530355 -1.4063700321846166 -0.23969083510056138
Ni 5.923940120302719 2.316764048531386 13.170380885415808 0.7391579631976496 -1.1642896138059562 -2.394183238764967
Ni 7.304378941771992 0.4451492515278761 0.4961979355346881 -0.25069901328560695 -0.47171515479480053 -0.5970880584763717
Ni 7.174963674611943 5.704535275295042 0.5324040618303272 1.3090401506831906 2.514441189817476 1.6898069020228768
Ni 7.900677371842266 7.960081101030486 1.9379080188438211 0.599514151419361 -2.7254305432182866 -0.44437507221895084
Ni 6.405432283028969 6.613726844100129 3.606950888462067 0.10817402330478143 -0.24119955843560395 -0.2201203691678016
Ni 8.144954736918883 4.989708539711056 2.611759766727255 -0.13981376169724952 -0.27434262084647587 0.24479935997172036
Ni 3.5023820871037703 6.459988057501171 0.24249450879333648 -0.6920810643145049 0.22723795404918928 0.5933800134971653
Ni 5.2635202776641465 5.013473753424513 13.140023942103833 -0.7577462677227982 -0.5992084472534842 -0.25953332374778526
Ni 4.379796755035148 6.835792946399134 5.34885544678058 1.1786867630678928 -1.4547013723001525 -1.1922896985633078
Ni 0.35932928693983973 2.3266367547764832 7.215427812573706 -0.2710945462228234 1.0659474889899319 0.34603423295450725
Ni 7.062744223795853 9.085718494498348 8.920833134090717 -0.0075826974432643595 -2.434493765458556 1.6368365204734325
Ni 1.1046171829045512 2.068801865666778 11.307825529317316 -0.8562645131053706 -1.7826954599234976 1.0479076007690855
Ni 3.8896973790414933 4.228467988151062 5.651659070546913 -0.603383147456464 0.011611616096999356 0.6136017398606787
Ni 7.021280718585531 3.7986377152200785 9.373717711444748 0.9548087266298718 -0.5972950322808552 1.9685607645631709
Ni 6.313153651706983 4.480831481151325 5.205788674123659 0.4517561951743703 0.493828184643756 0.5103395520352179
Ni 0.7174163436405461 5.621812976973727 1.0396666863339548 -0.9214728314819033 -0.33150338632818394 -0.814272742054617
Ni 9.081419540412359 5.719674665550246 10.197037207127423 -0.2789407817401196 -1.206612028723251 0.3936022125414576
P 1.8331131036667159 5.885035516334057 9.437753517135143 -0.005801694283441621 -0.16748345969837608 -0.11074255536290604
P 0.15546488180015156 0.070112033002411 12.581960149131676 0.06917913009882279 0.9321228549965817 -0.05039850705720998
P 0.8490043505821497 3.717785741079033 2.346775772803122 -0.4188057083902787 3.039883916042719 0.306316345539595
P 8.211997949450387 3.901505545134828 6.310026209134902 -0.16371885044962126 -0.4314141411829086 -0.037706256301522155
P 5.862833558651868 0.8248427398036208 11.47859357105214 1.2825986686622104 -1.2443905330236051 0.07783963398729819
P 3.6112144831854445 7.767056201550471 12.066456001610817 3.501834021030956 -0.09701929223954259 -0.23377292695422963
P 5.113010359177392 5.508653711519791 6.961801618124375 0.3962013407272015 0.5415162347483384 0.42059905284527566
P 6.381183204353453 0.17477109378632266 6.3882811311430485 -0.03664284803401431 0.2883836723205743 -0.07735009594538936
