# total energy = -340887.34553046926 ev
CRYSTAL
PRIMVEC
9.14243068102390 0.00000000000000 0.00000000000000

0.00000000000000 9.14243068102390 0.00000000000000

0.00000000000000 0.00000000000000 13.38087143273523

PRIMCOORD
 96 1
Ni 5.144171416580861 3.1008381811038994 9.810185485442004 -0.3307271702837917 0.4265287880661493 -0.8597450154548031
Ni 4.6474814478247435 0.526877360300733 6.072012011967086 -0.17859499623050532 0.15738956579748378 0.2960113640691612
Ni 2.4740057129875366 1.9594880045930287 5.057180275333046 0.5973461972337648 -1.0437465274128606 -0.6118916991481075
Ni 3.494191256971444 3.0507559463659 3.1574572537093073 -0.27552044320466096 -0.6059089992021113 -0.3865154808980053
Ni 5.513799885083473 2.9402239606078844 0.5148212370898897 -0.4542689342938951 -0.6297935191291928 -0.44848215240878886
Ni 5.304566218742865 4.484243349751181 3.2659897898986485 0.7389157652798565 0.20682390916921153 -0.36211211235297636
Ni 5.551219853462923 4.87285150414574 11.93181632492466 -0.6352643124357769 -0.16282282099791312 -0.2861902642136813
Ni 5.457418515673243 8.061685579618613 13.185229844316328 0.9617059679703372 -0.6263369280391601 0.014822666835129311
Ni 2.4822613278046983 5.679698430456917 11.695390327298684 -0.9668404609834254 -0.34167775575802445 0.38434546982988005
Ni 8.261191699818069 7.337303377173217 9.426943937800132 1.1722263521545295 1.0123379311945921 -1.4937584862026145
Ni 8.241526331632336 8.905413070904798 6.862111833934879 -0.5052855345510782 1.0984156368209663 0.9861417324151984
Ni 8.831405095329021 2.5705589223829377 1.3248177307371836 0.0647581182129917 -0.41520076464783984 0.27653422918115594
Ni 1.3453086604046312 1.239320462646759 2.7590155009788253 1.4496311568660971 1.061532647751688 -0.9941797722283264
Ni 2.0154213949046533 6.942953776372038 0.6697863497281807 -0.49124242619445074 -1.117083902654431 -1.2062675008996386
Ni 7.8662295561677755 4.040424057061117 4.397583164490499 -2.729641753086157 0.44290362987974685 0.5454065709416801
Ni 7.849965172159215 4.179233580614794 12.922067722691121 -1.2378871846874486 -1.4186961578501374 -0.5609432331246984
Ni 4.656706160283787 0.41498589511490785 10.532805941513907 -0.5693887927888904 0.24491171717986854 0.217221964574084
Ni 0.4885778900991218 -0.19186670520364082 0.14418801546611998 0.6359968197264272 1.3145600520601552 1.1730046250814508
Ni 1.810036691839821 6.78761473832287 9.453318021548247 -0.336950011265052 2.5086176411571635 0.9484619584762376
Ni 9.037356629090048 5.089106557174698 1.5154639214578887 0.27652677298198824 0.35830945077743453 0.5038223197419903
Ni 6.46563661802297 2.102658467535173 7.424750725707162 0.2984001760163119 0.8090773138966065 -0.23059787166035772
Ni 3.715209516334556 4.363060432363051 1.000898672424345 0.5153784000107059 0.905614524293408 -0.80662448148074
Ni 6.059283005865276 6.1401752316706455 5.016943524090729 -0.8513336514626564 0.008944867898113627 -0.06198749744639002
Ni 6.981845676075478 0.8375755497463535 0.3024910295105527 0.23837237339945397 -0.25692673936287364 0.5897149059407522
P 0.20733661199447115 5.592123087894797 12.683071787828046 1.1025252881139658 2.3892264089803237 0.24872492027837165
P 4.014514408786658 6.181115035824855 -0.30319316817938774 1.0878214062448879 0.6613453257935449 0.8232374074470725
P 2.393534038989021 8.801143650096678 1.6267931271628107 -0.24114916481364276 0.5064882966099277 -1.1818294224619323
P 6.437852771478834 8.229988584235596 5.843493302553033 -0.5481368253886495 -0.42621742747331753 1.9441663948792065
P 4.794043752513473 1.121026553323106 12.64584655322003 1.3308847573621079 0.09628447095604707 1.1999451582260365
P 4.078200580233337 6.742908252768139 8.608784167884572 -0.02992635524578717 -1.6221015282561029 -0.038638795418120556
P 4.704237656888909 1.3619387416365443 4.003142139383482 -0.7173249264829582 0.7972656659736592 0.30916255673913856
P 9.155869956747713 5.768343437397341 3.772843398734765 -0.4279956024196629 0.5007418810444538 -0.4136408763598876
Ni 0.739285278540032 0.2920256892212888 4.832715319639845 -0.6672622054986121 -0.891808214537935 0.6723619886190226
Ni 1.6453083775811013 7.055369102830314 4.896636451552527 1.4949239672656254 -0.4703139035718997 0.2549264211033932
Ni 6.755323673500926 0.8554170030306187 9.417002458783319 0.8667237607654815 -0.3433985951038731 0.2988184945006531
Ni 0.19927207397651037 2.4106669539030428 10.232472525621127 -0.9544436299809692 0.8454005738076731 0.11492394043410531
Ni 3.290863600787965 4.6614602241873575 5.118209656452074 0.4103318665913127 0.523434437545963 -0.35967856321081926
Ni 1.4443028987659043 1.0041680056011082 7.281188052492974 -0.6202524124079769 0.9209190158609623 -0.5700624218171473
Ni 1.6503915689856883 1.243151141061367 11.82650923824528 0.2314116258109047 0.5029687134924434 -0.5799776240483302
Ni 4.1695426041959776 7.20045033376447 1.8848967419460065 0.5225052408634743 -0.707537250968575 -0.12891845494098442
Ni 5.683565678593861 8.073406175627031 8.045382797401599 1.055030584967112 0.7773393593633774 0.11815504577689327
Ni 6.941783545257313 1.2814853524991963 5.158245274221547 -0.4473917475580875 -0.4040804863649622 -0.19945461328833392
Ni 1.0839997094587586 7.817765531643108 7.444448092399938 -0.8454476249955245 -0.3174775043627371 -0.6368856500892838
Ni 4.705682160921148 4.771690509736108 7.53591902463381 0.16220832734236582 0.3357415927792476 0.10815499714138792
Ni 0.5972429915319275 0.17123955332049487 9.45029370551113 0.6328703582823036 -0.5800164477060656 -0.07161062235845086
Ni 6.657380814656787 2.1678805673199277 11.721884176887448 -0.06315169295782026 0.07817156340542021 -0.5978442199161059
Ni 8.246353534980578 7.5878791146137194 4.892755489769708 0.25689537190430595 -0.4060147272731975 -1.3073295957499873
Ni 7.418835573119451 6.3887944889662185 7.08341807986138 -0.6460431482188357 0.5338810868005838 0.9337917580585724
Ni 2.3731007066342515 5.456065435946842 2.6068744851478667 -0.8015648075696453 0.3626705559596076 1.1368762547900098
Ni 2.9344825142012643 4.969660701597487 9.378224839462176 1.333422179071981 -3.0551925213753317 -0.14991305491478055
Ni 0.8108293690734772 3.7140849973727503 3.63077916989326 1.6185744889394513 -0.4696557011626105 0.16865716829150307
Ni 0.5973079027890725 7.546317625179812 11.666902513599597 0.6657809929673952 -0.9139760088842258 -0.4128746876178244
Ni 2.4755507837561974 5.948495032050914 7.120068255585676 -1.19521304285769 -2.0392884700960363 0.6710854358994442
Ni 4.907611025225307 3.032873352144007 5.839613255013273 0.8970954310788034 -0.5212677689119475 -1.6636335860616187
Ni 4.086392198036411 7.262143455343882 6.350173205208058 1.268279680936377 0.16962724551425626 -1.4196202123263033
Ni 0.7555222352568423 7.525674016921616 2.764568613315419 -0.4459935816589803 0.5317614693544197 -0.9915623892101374
P 0.19876284059299332 5.836820242469925 8.325618408142034 0.1568617183184718 -0.43574053647240435 -1.1936662671958602
P 8.583992638870509 1.6442204283416302 8.21665800620137 -0.4530255488050972 0.3523686598129674 -0.043246469393461
P 2.048142153964036 3.5718287774889848 10.853024143926426 0.8427705923839937 -0.9436136292450008 -1.2878167225280404
P 3.932077112212628 6.372438680651819 3.925813633019674 0.5904260730751638 0.2439485819356508 0.22917939404627627
P 6.991993774023485 3.9345638533314187 10.519265087576255 0.8387509297016393 1.0926923611839439 0.3750730433890186
P 6.605479236232615 8.003000317701268 10.496169479435485 -2.138743368360265 0.4370646546004667 0.7689917587296304
P 2.548745083010016 8.771988438964973 5.993613841224973 -0.38519393387310435 0.4620118114641075 0.17008567320791354
P 6.99282573520661 3.79210649997481 1.7095805788282 0.14457930140669292 0.7310954979044892 1.2390248978363179
Ni 3.03927305355266 2.075862003494086 0.4747143083618633 -0.43901329368640524 -1.2962229443138644 0.9334415738080053
Ni 0.9217581363188292 3.6747999731542063 7.9724033452665 -0.6350905058620739 0.21085437048484332 0.7870445024662832
Ni 8.246207256091237 9.352615062910864 11.315413541618284 -0.593959540149719 -0.6454679924416561 0.14888281387805327
Ni 2.5243896479348007 1.9038288871989182 9.228920719841366 0.5848519214214959 0.33832760833886893 1.7333043110848796
Ni 6.46903760220014 1.73259116236454 2.8383370572099 0.6842875364120151 1.7432886759911008 -1.0552568420453052
Ni 4.313124476514393 7.185932153997412 10.968795656652011 0.4180192079332413 -0.6112646070870698 -0.6514200962600329
Ni 7.570938190741958 6.108661273448323 11.255025959126236 -0.4941014929098007 0.04128446057108374 2.122879661855131
Ni 7.6025070035477835 4.362493601666856 8.485573459392956 0.42853501986290066 -0.9795869620158162 -0.5960380199453025
Ni 3.2689766219703724 8.762507738449584 12.689588512348172 -1.2172720795402585 -0.2871708829593958 0.4670118357818602
Ni 0.3111827382665614 5.013388947079752 10.430924523574271 0.38843840895233106 -0.9981032756524488 -0.4172992990480813
Ni 8.809417549775008 2.3846567388921613 6.086476251393699 0.6279801200695379 0.775615177583419 0.4989359381839665
Ni 3.9572736509015516 2.9504177707088095 11.844814212760141 -0.7265197056083488 0.5357703334034967 -0.48335839546068377
Ni 1.2545883217216873 3.6300203481548055 12.821564069040464 -0.5736997614594184 -0.3133812228061764 0.8787706646276865
Ni 3.2667732961996796 8.756793719334715 8.412071974471523 -0.0622777749932992 0.4519557127796862 0.14694317365317922
Ni 5.871515766535406 8.571339514942544 3.821121831918583 -0.9393317140401952 -0.45314407666083256 -0.348348997130613
Ni 2.9767022586372045 8.63798783389837 3.6902305674935265 1.264892509631699 0.31208538681288833 0.8211306455167149
Ni 3.010254978879712 2.836164815703192 7.114421890457128 1.498110078303091 0.6894706232748512 1.391174812501417
Ni 6.095935010075688 5.938292079519405 9.375829522649223 -1.238417603269622 0.4101038097409066 0.28569044175912733
Ni 8.331195290798146 0.24801494263398433 2.4408982291144596 0.3504359615666287 -0.3038946234719799 0.29593731629811615
Ni 4.580193158728052 0.4954191709049715 1.8226751878788519 -0.0635512423890841 0.14316390911640506 -0.47031596045442875
Ni 6.156384761095705 5.590450023097965 0.7566403545172398 -1.0465716555664812 0.16968046734969486 -0.2621103404463422
Ni 7.98353608298838 7.317135175305376 0.3702912947199359 0.019388946049573058 -0.6331984310456836 0.028762416844673042
Ni 0.20030516863247858 5.707463992139887 6.006097830187138 0.27196872129766064 -2.023917901177237 0.5059537642626964
Ni 6.945577653949586 6.370207927589375 2.8276193858365235 1.2756026969603516 0.1945656606271488 -0.04192029438286974
P 8.723743832774316 1.9085098116578183 3.8934457717808253 -1.475274568465814 -0.26304930732084375 -0.2578819041872914
P 1.8164363932484737 3.4563324519239718 1.7410789949185301 0.15470687675899808 -0.2984958210539117 -0.9423059661771707
P 4.641145743430178 1.441359036117924 8.516108263299754 0.11034917657922931 -0.3725597900488616 -1.0988894911335914
P 8.8005676769699 1.7904170358070088 12.605034743093993 -0.27779972615714094 0.5645648890376859 0.648301091015077
P 6.619467155025812 8.330162196142176 1.8191160396525825 -1.0312077715159016 -0.8226439968374477 -1.4382367989862261
P 1.5424377486523013 3.7330281135423617 5.875928817778202 -1.0048069129248693 0.8170320499673089 0.2103031259670636
P 6.551410901760082 4.4220473944896606 6.349866019540443 0.4310395314523092 -0.5662577033590764 -0.13905965714004437
P 2.40740310618463 8.64396698350017 10.609344541875275 0.04156239682281874 0.22807356257660721 0.13464275901927134
