# total energy = -340891.4334426528 ev
CRYSTAL
PRIMVEC
9.02848428905696 0.00000000000000 0.00000000000000

0.00000000000000 9.02848428905696 0.00000000000000

0.00000000000000 0.00000000000000 13.21409937021530

PRIMCOORD
 96 1
Ni 6.636947255896725 1.8518414725976902 11.360399324631086 -0.7830816611637933 -0.08587535980758113 0.5177021630478761
Ni 4.570706363230012 0.12590582695205926 6.082569419943459 0.9596948510775795 0.8090395186801358 -1.5223129008015395
Ni 2.7945506757183805 1.4687989916170037 4.9612208179357635 0.5955605660882517 0.9361707998137102 -0.1392010678139151
Ni 3.4865930367623297 4.285397226345303 5.026498566155878 -1.369612255839293 0.4644885551393742 0.037087134660284515
Ni 4.881385541399681 4.780275544122005 2.4446616924610045 0.5460745435429822 -0.5330092257185918 1.2328617064483993
Ni 7.132385339708897 6.081704491133815 2.848272866699839 1.0366209721116728 -1.2560779966638624 -1.40990761302423
Ni 4.932522877285097 4.954949632641624 11.34726468546334 -0.3321929561960408 -0.8466352175457226 1.442290914450942
Ni 5.520719610265126 7.702191049878442 12.164106884115078 -0.21872014638616524 1.4165855392650377 1.1784862170213124
Ni 1.7712803059123872 6.505627949672615 0.29706241793266713 -0.5589583414841858 0.4847969276794231 -1.5325559186857862
Ni 2.9989104210867352 2.0746734971365184 0.48128683729614025 -0.19948906607069514 -1.0154613073149221 -0.6635567316225669
Ni 0.6184213903500163 9.220339737461137 4.54561078787212 -0.2607216876289316 -0.4781310856234733 0.07906862129839286
Ni 0.02869613495377868 2.4940014570938085 1.369932572723424 -1.1065536925470685 -0.9311517493325641 0.009897975840002309
Ni 6.983713286385251 0.5681444690320239 4.7237102833894316 -0.7751775758253682 0.29366831775828134 -0.5606889510220473
Ni 0.48287404486122787 7.368660777583421 2.3263822263179863 0.39468438986204285 0.20759806833107472 0.08325129192117275
Ni 7.683781970099069 3.765807946647983 3.8746914690311223 0.24811196928472107 0.11628071157231587 -1.20019995454932
Ni 7.680892855077295 3.7592352099734447 12.572197992334551 0.08929801233588493 0.2611145521919761 0.330237889352199
Ni 7.921547107906696 -0.48481968325870434 6.819638638601769 0.07379143205985356 0.801424168226723 0.9630126025969028
Ni 6.612389778211639 0.5837240217869448 0.5620168366405283 0.03425763563128938 -0.120347939663154 -1.8321783971449737
Ni 1.8625673121160293 6.491660884239223 9.23929865194309 0.10673626241699036 0.1254577500858936 -0.8530935715765565
Ni 9.038415775933752 4.90968081164419 1.3081930875565397 -0.7907240082003995 0.6351267584166481 0.26261170556279284
Ni 6.540342472356128 1.8631541636048272 6.717096723691426 -0.9212254913577876 -0.19049097633714293 1.695317804538777
Ni 3.478855625594639 4.5935755143242485 0.564102416546872 -0.10668689723629368 -0.6257095788678063 -1.2002855722845909
Ni 5.66535593104273 5.440149415095381 4.852204576831312 0.8898271795521643 1.3407307969182523 -0.29124659569066613
Ni 5.429279119825953 2.7842491749688643 9.15388286917276 0.03619136231889251 0.5346562744037113 0.6888206483956781
P 0.03710075112181057 5.6852547107552045 12.37772624312822 0.5025611936413796 0.4509581247531072 0.2918397491899748
P 3.849312399261719 6.412815129598099 12.622437896866328 -0.5633667549645265 -1.0550897203398215 -1.1918592958941088
P 2.2636667619828086 8.323260494715603 1.3872293432194123 0.0297314656261617 0.9790064069219978 0.8035869802059966
P 6.156803424731074 7.605694608151161 5.763369158156442 1.2263971817699781 -0.5877241007629684 0.734344086748774
P 4.817653469716218 1.0222230656105995 12.505083850378723 -0.6311320354349582 -0.03075013669866317 0.3073327026192514
P 4.102516245466955 6.104384044054747 8.227349098780232 -1.131308016673613 0.8399966291832823 -0.4504806708960564
P 4.730420253027503 1.1474300878667671 3.871321135788533 0.41676502381116615 -1.1752157738001567 -0.20082089750824125
P 0.1990726648785073 5.629142679941671 3.5836375074953026 -0.6023395366832982 -0.4688054373471733 0.46170610729823064
Ni 1.715583585383234 1.0293555683206062 2.556690738824101 -0.5488369367794678 0.2071095587304304 -0.44519345435518815
Ni 1.843435953581214 6.49722243065614 4.857185591698541 -0.8163599636009489 -1.2736455732339806 -1.2182503842931276
Ni 5.832166209612455 5.444428916721384 9.26958470300729 1.593104883913437 0.4260917005287307 -0.020460581847197023
Ni 8.734210021109746 2.213540616355015 10.079623035782745 0.29920133176136854 0.41460683981758273 0.4191227254100653
Ni 2.4304318981303186 5.202357191834424 7.241485545718669 -0.4164642047412957 -1.2756947424535254 -0.7517250012293828
Ni 0.6062338392003481 8.828006945988555 8.913596978508634 0.7608683582915476 -0.1284980795741142 0.18229609923117637
Ni 1.6445926122075603 1.4993152690345004 11.602970324707746 -0.206738805654573 -0.9880587469322532 -0.6172143969126015
Ni 3.90737458271495 6.90386536997095 1.5841460060129202 1.2688769482007438 -0.23188368035131676 0.2680020233404288
Ni 5.718885815305552 7.834404176062413 8.123024058192387 -0.6650929657614352 -0.32228186772991596 -1.2025939087027935
Ni 5.31327212321725 3.0758421370259335 4.5844468137038845 0.7715672327662906 -1.2389747613246727 -0.15770504015537357
Ni 0.6523585605229835 6.8781522462771525 6.8830790902377235 -0.3792796252711984 1.0046246217107344 0.7705565321135891
Ni 5.321650556780396 4.5763130520691435 7.124646122844317 -0.5419134701867571 0.09162126115242285 0.2585879291153805
Ni 8.265387909435676 6.978494822377171 9.268448919664353 -0.4721496712290578 0.10302667477588709 -0.3231730120856176
Ni 4.615541816974181 0.3597634366927357 10.342028713332333 0.14303715373055365 0.387088836902972 -0.19139420487770265
Ni 8.268213825066349 7.326416498874407 4.809139608886425 -0.48416340786048234 -0.9237166332107575 -0.47329175525330097
Ni 7.426957701632171 5.874139633788178 6.992888032276276 -0.8217032301907332 1.04007859164297 -0.6931619560835095
Ni 2.1089365955978794 5.610887084397832 2.314819446291777 0.27596164450713767 -1.167406819278699 3.2890868043987744
Ni 2.1455290430455465 5.2282960276392965 11.446925610987908 1.7863963058138526 1.3082863032363017 -0.3171908263602537
Ni 1.1826231202257618 3.1923637572478905 4.1894777047739336 0.49912491426632105 -0.09928443412463546 -2.0522594284344073
Ni 3.4740344149020523 2.6630146858676373 2.7429167731885977 0.8946899069611043 0.6060007875849692 0.7735523815171194
Ni 1.1581468989006631 3.2699094101292165 8.175418159112274 -1.089575412821517 0.016769249038538863 0.5796459517405244
Ni 3.8501520483149223 2.8557638002422343 7.13121344242819 -0.2775906954701284 -0.6404085756408777 -0.030454459835115293
Ni 3.9103449540967126 6.790250921739653 6.047776349445291 0.7998861343156417 0.3298493956645287 0.5895989491881781
Ni 0.9518550578614958 7.494770648283893 11.135415812249478 -1.171293555927615 -0.5007405954928731 1.059859116704007
P 0.19518409662888722 5.27100978753935 8.222433991849439 0.8915181941013419 0.6700482528841816 -1.0878005803092814
P 8.560511008909977 1.4055273726401345 8.075968500123674 -1.043103751622539 1.23940130733913 -1.5334023258464817
P 1.8890478569874845 3.3462633030640596 10.35347141451545 -1.148995663761363 -0.8327947121182044 0.7557546912140661
P 3.7633160849417018 6.179925373389716 3.9065900074168494 0.5432360456529226 -0.37048593823896836 -1.3591877180718592
P 6.925317049007627 3.85556913898075 10.52976069890193 -0.5676514983828096 0.43349930584671154 -0.8592320803741267
P 6.363925886339002 7.557292903051989 10.139204713167741 -0.69589812406775 1.4306433029096846 -0.27896649277173247
P 2.0450871536166555 8.258273463694556 5.9754816631160415 1.4374397570062276 1.3553788858487303 0.38385027536101635
P 7.0458744017756265 3.949212579624027 1.5496833780453678 -1.3579893268883838 0.23669755680019233 0.5857309815923396
Ni 5.30707858288932 2.9517727038095902 0.2875111842403683 0.5750020252106097 0.10445415125103302 0.1807045863743404
Ni 1.2364599729596475 1.1043913025267649 6.734711296839809 0.462322657836307 -1.1040211559332018 1.9306220805358687
Ni 6.968852400991997 0.5145865964674283 9.273654743794213 -0.29305793786779205 0.626009112386096 -0.8944919320176853
Ni 2.7670769975581897 1.6735740472697391 9.151926396593952 0.31096644271709667 -0.5233290223163503 -0.12020010123138009
Ni 6.488537028621929 1.9696541660950027 2.3886859917625607 -0.20057355738412552 0.5651282177403235 1.2943894906495514
Ni 4.035208893944044 7.013534370500634 10.214789379228035 -0.06884977178386206 0.35347500550326866 0.467309312417621
Ni 7.800240390929925 7.141151998103095 0.32464895214839534 0.3038033493097542 0.3715781428618827 0.3457005037641724
Ni 7.548932526457728 3.903636790155529 8.317429899462283 0.2589550826468121 -1.4683899255308388 0.20116054023584712
Ni 2.8689363590446395 8.440278681581926 12.302974003333574 1.6033329893993484 0.5395621963457612 0.5806846774176838
Ni 0.06092060162789989 4.886567891469991 10.321097074999576 -0.6919080290717504 -1.3877043374543132 0.3954773180769834
Ni 8.571552845383822 2.3165917377879466 5.763791691228376 0.05005577900581056 0.5645949709446728 -0.3912882196963003
Ni 3.823490933754606 2.7403346266378863 11.41402220228367 0.3752507066174634 0.05261994018856099 -0.005267933267158669
Ni 1.1321177782513603 3.580371904672253 12.621896187799745 -0.43645453182029353 -0.48784934135250174 0.7463578233801985
Ni 3.290232528610513 8.435412328467125 7.882699345045156 -1.3610198861845917 -0.33101179140374604 1.5299868724070296
Ni 5.737385179929355 7.69445363871075 3.5947371262695835 -1.8766592531661679 1.0469136122869325 0.7466218756748626
Ni 3.0537855495315713 8.440359937941915 3.897657224908899 0.6375950174514826 -1.1068557971685193 -0.5419250401509828
Ni 3.5208561352236907 4.35962942543603 9.561510816140308 0.41134076747180126 0.28477152948928375 -1.7436200911885906
Ni 7.076742790086401 6.11458623147539 11.419241569140196 1.4845338822805532 -1.7391491999014306 0.2948515394331051
Ni 0.6022604031969633 8.897463076808911 0.1606013898182423 -0.6573742569609389 0.4180914559320735 -0.0715741126935606
Ni 4.2571561270074545 0.19880813028432603 1.8363242163854263 0.5922394721348188 1.5165520870583624 -0.2925771415766316
Ni 5.909188210396084 5.433396108731982 0.3337460530732089 0.3246578241612602 0.9361098646687877 0.4123257570928899
Ni 7.917384976578452 8.787469050839276 11.323214608603955 0.42894768192028704 -0.3736494235686145 1.041937756338896
Ni 9.198851944486686 4.786559369294366 5.6348360422314565 -0.14486700785044082 -0.03032101958104456 0.7717718925779289
Ni 7.785235049785582 8.762965744060848 2.4796389440418105 -0.4056609434782046 0.6856080549956515 0.40799421959707155
P 8.609255796417983 1.685852786112282 3.375898400399915 -0.6945817192491716 -0.19783173297293027 0.6454564224774303
P 1.8658717374221843 3.5953591888477097 1.6502029124404691 0.08583422215700055 -0.7288609521470157 -0.28420768656601375
P 4.831178139411901 1.132244177033563 8.006396804702447 0.1087779754373675 -1.436560439725068 0.6594959312896319
P 8.614799285866015 1.63934706274615 12.521085936205576 -0.2472632481311806 -0.3522429328683805 -0.5856715891093139
P 5.967476105960392 7.694589065977397 1.4286420985112218 1.1612130317631615 -0.38072767057163465 -0.3671265348484322
P 1.959397807767702 3.077774232696745 6.208248631935997 -0.37489306616772855 1.1215815334144683 -1.0785847181379682
P 6.889040598515467 3.88650975516707 5.912728279146203 1.3824258626641932 -0.010951871025813397 -0.037273282529161615
P 2.3700223087218952 8.786286319377238 10.186365904504436 0.800786277532408 -0.13116508488331602 -0.6130952325379054
