# total energy = -340865.27190989576 ev
CRYSTAL
PRIMVEC
9.29089039373343 0.00000000000000 0.00000000000000

0.00000000000000 9.29089039373343 0.00000000000000

0.00000000000000 0.00000000000000 13.59815722882357

PRIMCOORD
 96 1
Ni 7.820662563816335 3.2817096515689563 7.983423165453513 -0.11781643149055193 -2.0483662640275884 2.030173395168646
Ni 5.181445841642111 6.350081882566689 10.386856605443501 -0.8437154727957663 -0.5150773238305193 0.581504859326134
Ni 7.476676645375913 7.845506404187708 8.563711726839863 -1.706818348979209 -0.1654872552039537 0.6958204767522791
Ni 7.5393251179354355 1.0351352397666702 1.9082159855506973 3.558773414530478 1.7704133001220348 0.47017557822182254
Ni 3.77766666086747 8.598310072823015 9.82867943362328 -0.22012319738127897 -1.3633058540052907 0.0532989685334566
Ni 7.402219451383327 5.840318610443995 4.594314539629914 0.7215145390842735 1.9461679986902676 -1.9902377353159724
Ni 5.304652336468127 4.877066988086939 4.4887923251939 0.11148971794157572 -0.21091067764407545 0.6036597981566184
Ni 8.276603709061185 2.186908314994151 4.5412951456645905 0.7080617560134773 -0.6164690341061447 0.29457411740200234
Ni 2.990839752351846 8.493768976391198 6.91524766198876 -0.5157247276065311 -0.7372118952148724 -0.31397231942295606
Ni 4.538153895690932 8.667508622967361 3.036835233332592 0.4666241134251384 -0.7121184425813543 0.6417290942245141
Ni 1.5376980719911546 4.527264972386801 7.407378682706521 0.5754439978440348 -1.027740124682275 0.36964107374016986
Ni 6.209585041094777 2.158524645459917 11.699731858409024 0.3473195274248341 0.970182895093097 0.6794152959213783
Ni 7.532914403703481 0.0495455301228187 6.361775396961383 1.0598506320635748 -1.2954847805962593 -0.5926127963138373
Ni 2.654063564699825 9.232153183449704 1.9178840858837003 -0.9301392489076497 -0.674546140754535 0.160949001013968
Ni 0.3902276080112364 8.160114527843433 8.115135470249609 1.3551354023793565 0.43921075440919194 -1.075706882369541
Ni 3.610532837217277 1.9730598954624097 3.78032850090726 0.7821115839410401 1.0608803588796696 -1.2355112282561045
Ni 7.658508657308646 8.519894959608962 3.7734616039669158 -1.8487306450766998 -1.0115092646457096 -0.07599949545476589
Ni 3.6508553006472533 1.1019460311318678 8.42514646143871 -0.37970205752059766 0.756566131371768 -1.0928018901786147
Ni 1.5260937501422975 7.555212540162454 4.60362865704663 -0.39902029823323537 0.6493063923511397 -0.020975059589770327
Ni 2.1858956079633063 2.5439665159336458 5.421068119653367 -1.6707082335202128 0.2559875153780559 1.9366986257472516
Ni 5.540148530145455 1.478357156339713 2.723139475093647 -0.39255037423817557 2.179471699317563 -1.8740254150877467
Ni 8.982627745583606 2.191293615164416 10.034188350119367 -0.14042079915362912 -0.8232065542091371 0.011042630967406788
Ni 0.45351622290493543 7.446518415815153 2.342078259345086 -0.6034188857904059 1.3555974296174396 -1.7725218618246055
Ni 6.117475155738837 7.161167305371638 12.466803547111017 0.8359373715122442 1.4087773560745287 2.1270998705840656
P 1.2638769562749672 7.66213210448323 10.21161740919047 0.5842338282215228 0.6382100253276622 -0.7571222609855541
P 5.183870763982023 8.85754449093896 8.166903381306172 -0.26639559808525737 -1.8922414238751413 -1.25936823737936
P 4.300688033293063 6.217277898173123 12.67511366699976 -1.5357366304066133 -2.1113814314075445 -0.9232165536458874
P 2.392822314302575 0.4231359410686039 13.114062703173852 1.1400867913075075 0.3740422881316591 0.5957783385260127
P 5.9467550484748255 0.05079143849746381 1.1879443689200115 -2.6824784651367928 -1.829281535213153 -1.3107532767195555
P 4.406855035508348 2.874666461400597 12.585149048188978 0.200858435614396 -0.10435207845552995 1.1272641856215426
P 9.39736379283031 2.5370912571921296 2.609472866315994 -0.22209343373377233 0.049773471878701375 0.8468933563031158
P 7.000137596577089 7.480300092550497 10.697873800040313 1.6324617884445047 0.8675094898915704 -1.7389165150653343
Ni 7.0604819283691835 3.6475570346293633 3.0973477302371495 -0.7996259386757196 -0.856005603017029 -0.15102788524551408
Ni 0.2433432795328479 0.23804189758972713 3.4167815422582035 2.024062140064585 1.8712098000158226 -0.28434446925419415
Ni 0.4608467352658227 1.0419919167278044 12.312967774591543 0.06384769058358036 0.6682343396038943 -1.0678498482189673
Ni 4.070840700852008 0.9594144847080746 5.818243455349611 -0.8360332736601602 1.7481105228597764 1.2694629026112008
Ni 0.5010995170193645 4.426365904909948 9.70425676127123 -0.12390583221774146 1.1543826391048893 -2.5020754691632714
Ni 2.333211962835587 5.015399052144292 11.829498650799074 0.6038755137118503 1.031043220913579 0.6011552865672098
Ni 2.5674074318861417 4.795130627490404 4.2359481813514925 -1.5649865284106659 -0.793324421937724 0.6254779224729744
Ni 2.244892760677672 6.727059752076201 8.42759368191508 0.3959018072089117 -0.990051608992566 0.7103150708240282
Ni 8.477091828497924 5.416393872798155 7.817512022952487 0.7844556586931845 1.7003299130413878 -1.0404393174164985
Ni 6.18148009826628 1.3044409828499155 7.719455967874152 0.958978027516213 0.07997596360401066 -2.120669027357057
Ni 6.130315165983128 4.9346333437118535 8.000012978978988 -0.1441686962318356 1.5679803209316674 0.41722910793177825
Ni 2.778022621631332 4.101584256494816 9.623143573545642 1.8349582738829562 0.4490359680297299 -1.7757745644339482
Ni 1.1017416315476605 7.97580184822964 13.309127730005967 0.24459598571166263 -0.36854784067599106 -0.7536615561304633
Ni 6.039329478340329 0.8328911420837859 4.644695320780924 1.4949170252870898 1.3156283454236697 1.4887319795223009
Ni 5.221879795754381 8.354387041742234 5.672321663095036 -0.7617438189179655 -0.44952344918910975 -0.023771391387984866
Ni 3.6663060510352827 2.0089227316005913 10.573314551602452 0.04377123154867945 0.1942303887749171 1.1072124091769897
Ni 1.1577192449498737 1.7698959996505927 7.866438779788568 -0.28674253717272546 0.3807652086777894 -0.2929455806596439
Ni 4.150500793351688 5.028071826365141 6.680923978653566 -0.9635818448368115 -0.594429537807602 0.27346356067563227
Ni 8.88988607969466 3.257033047221026 0.4946748664521229 -0.45588898639582126 -0.40067248912467773 0.9196859147848095
Ni 3.9520473788668298 1.924115485934964 1.1134918203725201 0.23639648062000576 -0.8455867216765501 -1.205884663638923
Ni 6.253373006566086 3.0814259317164234 0.5019524207389202 -0.16691473167909965 0.11910018329898198 0.2009093434569895
Ni 1.6694336040127287 0.6043352433793135 9.970127662250775 0.592557774706186 0.09549179985142264 0.3574509594318811
Ni 0.9434527353595265 1.1620673815593734 1.1428213025282226 -1.0092798610945586 0.6548550900835108 -0.5950394034774591
Ni 7.757596001198207 5.596107561767285 9.972180948983038 -1.3621200612273057 -0.0390951662292488 -0.5454333104145574
P 1.5854625384643128 3.0950835402975443 11.035230668329286 0.3847547894531567 -2.3228796061239736 0.12450464214400493
P 7.862257879202511 1.6526542563273514 13.213737231323499 -0.7583941857194423 -0.06516358118152649 0.0027935035847371247
P 5.5738651706494595 2.9041464559773975 5.477595753754901 -0.2179624422845343 -1.2322639249634004 0.23489881302855672
P 2.5762059048972445 0.29022511143783847 4.230509294233541 -1.9242981952003697 -1.9265216852142502 0.8659935674676763
P 4.3599081673720175 6.391063999200243 8.447773495410452 0.8467504029673482 -0.28670345640467393 -0.6070014609353417
P 9.300738534841429 3.1957874990803807 6.4531958982651325 0.5602132969372093 -0.2697732563082386 -1.4966910864683773
P 5.77293178388694 7.088698361879976 3.8071847480940546 0.3330023394712136 -0.5560643077658424 -0.2278370210857689
P 2.1568244125549203 6.246339802691318 6.236753462191998 1.1098922700019982 0.6539058387963641 0.1312897833866384
Ni 5.7687415924106915 5.550526454489067 0.5525691905007887 -0.36601607539307285 -1.7380317984675357 0.6496702034484617
Ni 8.077081842204333 5.2451999301343895 1.788402523822521 1.0878525165931394 0.449993961067625 -0.21412995591232156
Ni 2.3619858497578536 3.2828803037330525 2.223584104024066 -2.3071300565992012 0.2590335012932313 0.28033354832258817
Ni 8.767887400593505 9.01304612006972 10.238311065798918 -0.1193845473086202 -0.6675242009107472 1.0385978933323854
Ni 7.205856487191497 9.276433566101147 11.929730632360194 -0.7544835378111264 0.48604237005075007 0.1223359166274603
Ni 6.493421736437121 6.997062311923788 6.702015228476697 0.9480109869817481 -1.8935421449644354 0.23824510379297034
Ni 8.432216828874243 8.822127617529956 0.2986482324852155 -1.2230763449268613 -0.23412979607301612 0.9298296880870309
Ni 9.194896713782835 4.124569918827942 11.802330229701854 -1.5467988017580458 -1.12872277244494 2.442986376310599
Ni 4.119199784297406 7.815868464477656 0.4904419368809945 0.2661168905025739 0.34251567827828755 0.8577542102770195
Ni 1.1103728685353211 4.986495092759347 0.5192827182126377 0.2261534627357589 0.8785945440611386 0.2797193117773569
Ni 3.848556153026622 6.616005741620324 4.824231553747403 -0.3346383324127398 1.93371151809447 0.9051108451841122
Ni 5.818577927396496 0.7196036016259356 9.995161965871068 -0.13335283656325422 -1.1432057965524633 -0.03868250417186241
Ni 7.28943733535188 4.065935110831034 5.853938126375332 0.2216290925028441 -0.7304159553389614 0.6891674902121357
Ni 6.51179911723539 4.8555957408549855 11.973014102494117 0.07980678501599804 -1.0492689998929863 0.25471070554816133
Ni 0.5821996974986872 0.446598226068539 5.822608315561455 0.5745672516660362 -0.24804614904379216 -0.21366510046076104
Ni 2.2905017406264627 2.9371476979366777 13.167408207384888 -1.4687627354892254 -1.447037942217624 -0.7032931309802404
Ni 6.693640420058315 7.254605788024926 1.524761436488874 0.7542588233948301 1.9816286534907226 1.0850258457776216
Ni 4.474176825834063 0.37854152632869636 12.464057159970487 0.4003135631233622 0.3653653291829514 -0.177910568568971
Ni 5.3910018699055 2.976903417064988 8.776848464182955 -1.3032070889411813 1.2537076966594731 1.8836405695800076
Ni 3.6682664288656346 4.415421236264669 0.6659440653264365 1.185733385502029 0.7406597445541566 -0.8833276878707498
Ni 9.407119227531112 6.301936489595691 11.373620683607525 0.3946789905454041 1.8422213832032726 1.4946845975613097
Ni 3.814105532197509 5.84245551518798 2.6166119863389414 0.7087826933399018 1.4385602437639162 -1.8018216392299873
Ni 0.2765303392959526 5.445037687257743 5.584327642093814 -0.14693983121906953 -0.13275814040204878 -0.9819618900058961
Ni 2.849608930554826 7.611701152525185 11.744632872525242 0.2021373023268196 0.09131941364128789 0.3891434054391556
P 8.360212429892142 0.6227265605128705 8.325716283701091 0.3154175365099149 1.793285833844834 -0.38803757396948657
P 8.510148815798352 7.507029983630691 5.470593209817765 0.7995848010251391 0.3079515671501729 0.7583625611505584
P 2.1835357218547315 6.8264908589028375 1.048402630959759 1.7772372650224038 -0.6065628307360263 1.553311663175899
P 0.740922478258752 5.60694073973027 3.096191943497359 0.2266990508265838 -2.286951524768797 1.5030733358456372
P 4.467375894214076 3.7723243990075077 2.9755488052751056 -0.15229158244928612 -0.5103187260996114 -2.4368635512423125
P 3.2462556145991894 3.02342290425252 7.6005678788090245 0.14050436000637093 0.5375073706992615 -0.33984430209371147
P 7.219523386662808 3.5234214507842228 10.336625407624568 -0.19065784093231034 -0.020460324736880888 -0.9113066895821789
P 8.680710977929111 6.562508795899172 0.11127977908752346 -1.004340257701096 -0.136201618865959 -0.09696504196283946
