# total energy = -340893.6274597985 ev
CRYSTAL
PRIMVEC
9.04682169566609 0.00000000000000 0.00000000000000

0.00000000000000 9.04682169566609 0.00000000000000

0.00000000000000 0.00000000000000 13.24093801836177

PRIMCOORD
 96 1
Ni 6.445199894846175 2.0505344656589997 11.510043003950491 -0.7131160306079332 -0.4428586355744244 -0.21111739433824286
Ni 4.549366076694736 0.11234614333000889 5.925332439966685 0.19083781815360037 0.30759212692822513 0.2718489078903447
Ni 2.728358519100903 1.4767850466572712 4.780693302236745 -0.7273931093522377 1.3207029317330996 0.30166367725893206
Ni 3.423054894624771 4.449226809603438 4.817490343971965 -0.5225296663435065 -0.2692369241887944 0.04705555872690606
Ni 4.99954496094174 4.436588399979574 2.6050349625729012 0.21897442848881643 0.5865989860195898 -0.12692584999098785
Ni 7.3027933381490575 6.076089577986028 2.641329001033184 -0.074100221549524 0.21444825848368873 0.22541452768720538
Ni 5.180617093097521 4.596771421311089 11.719077051972729 0.09834341036760483 -0.8078218442229507 -0.7972908627846398
Ni 5.55948893034718 7.921849239181071 12.563081264712972 -1.3054349498304356 -0.2554560683546181 -0.5850743218449472
Ni 1.692008929944107 6.371124520472378 0.5277689487703143 1.3638933510776445 0.663366984209264 -0.6261708347749411
Ni 2.69557283801509 1.659304670251719 0.3602353849768184 0.8838228823396134 -0.6132214737031245 0.09834521013981773
Ni 0.6757016691199573 9.119286531818547 4.447935828176577 -0.3232311190170627 0.11821083871549319 0.9291025801130194
Ni 8.498991216242175 2.1440966935258534 1.2867393722639031 0.5027547977094246 1.4517880553080995 -0.16085258464541977
Ni 6.7870249980874435 0.589178773055772 4.608018429789533 0.24867966886273302 0.599498210579761 0.9996508226452269
Ni 0.8106585334040978 7.554448771582849 2.6401502001928194 0.7454759349958774 -0.6971379100121219 -0.46399541755303964
Ni 7.552322768532306 3.882235366255987 3.629936703814138 0.6230346031388044 -0.11514351264407911 0.689512018035748
Ni 7.713500940227905 3.7260781804882668 12.635098487197412 0.14802920762850635 0.5795942725669825 0.6568016722869204
Ni 8.023698355534295 9.097393223808705 6.7717991975169625 -0.041728747197353935 -1.3431844006650673 -0.2677153453379454
Ni 6.764453178465727 0.6420891085498056 0.3526713375276329 0.6068883323962451 0.2748038767536106 0.2633192731527788
Ni 1.856163505910464 6.2747487311216155 9.089466398817704 -0.1265250150081434 0.9562534294961982 1.095657871570171
Ni -0.1946152239288108 4.96698545039322 1.2062823700098828 0.8416218234915311 -2.674227280871594 0.6593766321029483
Ni 6.601456595650303 1.9541586763082364 6.983707420727101 -1.7386645469555282 1.015729216264328 -0.6119055831051784
Ni 3.4820582643934443 4.263178925627239 0.34780776629371096 -0.9257956272269734 0.22174427792446974 0.4164590625349731
Ni 5.848209191432344 5.464651100650001 4.628144893562052 0.4283838389970171 0.5240121644263039 0.6536027057336485
Ni 5.423171424110692 2.8893195670807 9.426051583050999 -0.2975542830762488 0.485610424719654 -0.40151658229252785
P 0.29005828598378297 5.573176771264077 12.227303961638885 -0.723676836842915 0.16321619978158985 1.9467866061108732
P 4.035868488827532 6.1322703394493 12.660812267923188 -0.6970497211736898 0.9566925739161459 0.6493480442223526
P 2.4730572166059677 8.514090361311773 1.3969586078612204 -0.6957533709597695 0.3822747033437804 0.27308715117282
P 6.224502684556878 7.661192218363067 5.742118020481676 1.439849651999301 -0.03929982604088716 0.17146635560552403
P 4.651848470552377 0.9333786669386049 12.516009747809663 -0.2180002375010052 0.4687445022022508 0.562899842630437
P 4.318979720587861 6.116863602448985 8.124308057343159 -1.7367896985303186 0.6506094274332794 0.8738344036683339
P 4.65841646295533 1.2110165716964738 3.9436940433775 1.4526293202624723 -1.144826362875022 -1.8740444412511401
P 0.29788107252763024 5.598281700903462 3.5919880017030286 -0.36374270597786384 -0.3364669009810463 -0.8545187340588574
Ni 1.4165513091657307 1.2188511191082605 2.387698646467761 0.3362907804144983 0.12000264050859331 0.868778072191349
Ni 1.8224821894969756 6.714930877620323 4.9354934647807145 0.7278507657149464 -0.27805503670105663 -1.3541874366437905
Ni 6.071792337777484 5.664812026153205 9.327710824072243 0.08042590665723569 -0.39762881720234744 0.6825746674859664
Ni 8.628514559538418 2.363961596237916 10.260522255303322 0.7029393471852475 -0.18886346803604892 -0.02574676994680082
Ni 2.281029383623775 5.337271854047283 6.960601838637375 1.1121268157594717 -0.3173435498880341 0.5157589232785763
Ni 0.5829201819478346 9.11177766998046 9.229079662123608 -0.7357890467254167 -0.33634477358088527 -0.17850989271586676
Ni 1.7610633183900262 0.9821410347787077 11.568739686470598 -1.691012492295204 0.9246535432027301 -1.807289604323094
Ni 4.038591582096524 6.959249338824371 1.7618123952095364 0.24451062508670793 -0.5202681240028395 -1.4932779470217703
Ni 5.855084775766015 7.882441284763355 8.025531241568507 -0.810146121480753 0.5743443370219529 0.1092986238275279
Ni 5.106921685226375 2.9251721206521895 4.997685839125202 1.1573970004511809 0.2467287157839493 0.25268981846339056
Ni 0.8340952291604188 7.518370047474068 7.054930332284574 -0.5124807667479369 -0.15442328408030823 0.570465827903153
Ni 5.168322462690341 4.486481620506137 7.067059405858457 -0.4031985979806411 -1.174679184570396 0.1259434314730605
Ni 8.143333522940143 7.049129510344114 9.333285475475412 0.17286092196020553 0.7163065125207727 -0.14023747949822946
Ni 4.9037934022739025 0.4188877380716151 10.430773484272914 -1.50245884219009 -0.6653847859702411 -0.3144279189031359
Ni 8.243291853601606 7.2406235808582995 4.666239249499177 -0.7161000529369216 0.17437015951588034 0.772184040414683
Ni 7.115171307233308 6.047040234176274 7.088377336021428 0.6033561508732705 -0.29104553542345357 -1.104873476631168
Ni 2.3779932163714967 5.136911898471262 2.480808533260031 -0.9889324077864582 -0.3349959728624747 0.6052572245507254
Ni 2.28490142322221 5.175786090420969 11.508321393820628 0.1030798966113257 -0.06850627240151427 -0.5491177012446801
Ni 1.0077616332431178 3.3216400257031475 3.912101638046438 0.8222634735695774 0.8877862378627356 -0.5468605297793872
Ni 3.6729733383321626 2.538275752739419 2.4831127586939594 -0.2963111546977671 0.11584465247616178 0.32390243405247443
Ni 1.2060046325900886 3.225490406889676 8.073780654630031 -0.7973754520786461 0.8973448280854481 0.028678855991931252
Ni 3.55412524439609 2.561553224437487 7.041080553262976 0.582794524671835 0.1709768175636152 0.1609168622244519
Ni 4.193210808210661 6.625349251209804 6.002077531362673 -0.17094467877409913 1.1177112518257846 -0.1344257579124588
Ni 0.521608968016636 7.561514339167844 11.357705386216555 0.7906874985355093 -0.526971247054628 0.3045859931120496
P 0.027986342284481974 5.5447154708512825 7.998559047973241 1.4806337758951982 0.9933912148887601 -0.07740511755304089
P 8.555913817067765 1.6840658206744206 8.100647000413845 -0.025644440040981643 0.029481040178252454 -0.10015012455904042
P 1.834876334940564 3.3612470101936798 10.175872051287913 0.33182040334797047 -0.5253008013307404 1.1977178115574147
P 3.7836792929257315 6.248250590972512 3.774435250725543 0.8257043809303263 0.20989766299852883 -0.08722724584978526
P 6.9950566582884015 4.012681485344381 10.676009293176216 -0.5914354881762847 0.4835129187606769 -2.2993265013943818
P 6.2595048369081505 7.7305903860256695 10.345104608157543 -0.1861733227983955 -0.9068453113767155 -0.6336386039068957
P 2.346953571833576 8.559650154343824 5.811990241590443 0.7636780598262009 0.06055205055144411 0.34560845827099834
P 6.740623850656667 3.7839687912134647 1.423957037238812 1.2189682362957586 1.1013592928303226 0.653053775208714
Ni 5.237060212384051 2.787615199871343 0.30871102253530874 -0.008728638122249483 -0.631033819294197 0.32897959146506567
Ni 1.3485101647268785 1.0634900536318068 6.890981119166078 0.43479951271537376 -0.3179667852943298 0.7162574044503923
Ni 6.7410219108023 0.9787484767193314 9.12168213014954 1.2862912870224492 -1.2723096280313766 0.4698436488037005
Ni 2.595379289994842 1.5349108747412528 9.099185399146204 1.0028719006856857 -0.2547559569638 0.9478199540168645
Ni 6.442702972114473 1.962309862472231 2.590311260595208 -1.1090795442927157 -0.36861417513755224 0.2128513463102141
Ni 3.9937555347838067 6.584394290317014 10.482704953681548 0.3509267851601182 1.4124437491825224 -0.4485348600235952
Ni 8.42703279809743 7.054421900916742 13.89782035776523 -1.3912928261365203 1.763225267014028 -0.7459081374372896
Ni 7.77657537966783 3.8977506651142018 8.344770050273672 -1.1379021249513628 -0.8425376504375812 -0.3647300095917977
Ni 2.862296711285081 8.26296869034599 12.443608035411826 1.7216199327684154 -1.3862110407382384 0.5901648489939771
Ni 0.05369107618876471 4.796887112706834 10.218866165744924 -0.03291654822236266 0.10916158402903134 0.06204560437783508
Ni 8.739953306672813 2.460563556125971 5.970365707987922 -0.15276312276906595 1.0532529242413988 -1.2276027720423053
Ni 3.5834007587431347 2.678664328647158 11.466413802624762 0.21494525272476528 0.057799941727603686 -0.4969507894331377
Ni 1.0274565636304842 3.182798456270484 12.442085455354778 0.32271792682607003 0.5839684903752781 0.0012618974315591169
Ni 3.19859420659494 8.39745873864116 8.080269035003859 -0.036082090434537854 -0.9785099269015535 0.07027801958995639
Ni 5.745934874469012 7.796749791594254 3.5336486686318436 -0.753952605008321 -0.19310913068628033 0.2570956608405701
Ni 3.3526253893121183 8.49836698555925 3.533542820820391 -1.0095752808477902 -0.3087645499697715 0.747052792564694
Ni 3.5674421656318285 4.306142280891181 9.21831394454852 -0.3165526785556226 0.35758337124468736 -0.13990837829358485
Ni 7.185727468046845 6.253588215652598 11.856941564684291 1.0541083302631589 -0.46840485947464494 -1.6533702564623978
Ni 0.5554567459455712 0.04652961229595852 0.34525203922231407 0.06997385808597627 -0.26548877000027177 -0.21187535555018996
Ni 4.629593289682868 0.3517693694249134 1.5520627436073102 -0.17737680755268806 -0.050073262507307315 -0.04162256063679283
Ni 5.989402934452843 5.760355507926735 0.5624960777482397 -0.4657314264075398 -0.6716765325162238 0.2983065878612411
Ni 7.697433785258698 8.957981704622066 11.337910036110632 0.23267943677973477 -0.5350969614855559 -0.4031559176681637
Ni 0.2793097573695295 5.111110363577018 5.762919377137474 -1.677913750129717 -1.04502102324991 0.0865253346867542
Ni 8.014226333432516 8.993906632765489 2.4866880625474677 -0.2921110005734905 -0.3473706923777437 -0.09477137674563033
P 8.587939565148277 1.785344987273669 3.6380797478387903 -1.1873801770768324 -0.6610730459687647 0.20913790201436885
P 1.7244327381702533 3.2937486750443283 1.4644478961890806 -0.4054344292896953 -0.21750838546625123 0.08312607919721812
P 4.724955835026565 0.9910612007694947 8.084439619711517 0.46671410203578334 0.43819054067479374 0.5343024906087185
P 8.549056326377078 1.5407189341389051 12.33658142311892 0.35863238133449205 0.5781379997364301 0.8933950994090808
P 6.325628055190768 7.735177124521946 1.4412500365201397 0.6513830723745103 0.49475815265719314 -0.14585482568500688
P 1.8994796872125814 3.4099370034618492 5.964737680337953 -0.800168441442751 -0.698643548023371 -0.4047841973002061
P 6.932624543174385 3.972133631418715 5.953364016358625 0.8067779763394686 -0.19538095743959255 -0.4456889059343679
P 2.2955947662253644 8.333787208982784 10.287559586013327 0.7890018833029702 -0.47918806613307796 -1.1585041174724307
