# total energy = -340889.1273473953 ev
CRYSTAL
PRIMVEC
9.06589581990716 0.00000000000000 0.00000000000000
0.00000000000000 9.06589581990716 0.00000000000000
0.00000000000000 0.00000000000000 13.26885492722963
PRIMCOORD
 96 1
Ni 6.503529059769892 2.151989790336955 11.62806829835321 0.18845363419213995 0.3863324183529217 0.5135071511299221
Ni 4.9267431529049075 0.6081910515083027 6.271603503198947 -0.7233945297158058 -0.0570473798322953 -0.9176480584191745
Ni 3.000376308459279 2.044187224756782 5.000234929678864 0.09027168910306389 -1.0936284998449681 0.2777693871398378
Ni 3.7410599858539557 4.5238547487014875 5.085235861023842 -0.9608950420332677 0.906290210204194 -0.19229511942541722
Ni 3.6095138394770063 3.073692206856962 2.970273001840074 0.8755899529068598 -0.02036442258896493 -0.5038979101749322
Ni 4.807798601528921 5.006885670752753 2.6169369702670555 0.9898166101636244 -0.1492455965341107 0.023654663304462486
Ni 5.703817335575744 2.79849694336473 0.5526878249508279 -1.2970850352038434 1.5281557327355617 0.38826048861357004
Ni 5.602904850715523 8.135979566135527 12.875247249008856 1.244426528467863 -0.1215383604268294 0.035505134885145305
Ni 2.3676221191843525 5.677372117865092 11.340637702045655 0.1678830091296399 -1.908992160970919 2.5411019869381137
Ni 0.51255673111539 7.8310753624863505 11.00293218122167 1.0168597303243456 -0.5988513210243817 2.3182701323764205
Ni 0.6883489813788108 0.33717335274732413 4.361804583116094 1.5043244346439189 -0.6900406368457084 2.477692669443533
Ni 9.060673728231302 2.4908004438448357 1.4678537306825665 -0.791922656494191 0.08973381432172288 1.008595433433024
Ni 1.8456078456912621 1.627826899566722 2.880164344866648 -0.9550720075935876 -0.7284385198976164 -0.3999034721691371
Ni 1.8487899750763972 6.37036011806548 0.6318693578561536 0.20252733867638667 1.1412003360866603 -0.36767160871862486
Ni 7.780170358219875 4.2747058035098044 4.030016372405153 0.48155605214462227 -0.4710646656949952 -0.2464003859102531
Ni 7.9231757967415835 4.196213278676474 12.781277427063554 -0.7905648569147159 -0.09627727186719548 0.3715794284134633
Ni 7.853894221923344 0.07063511304388183 7.045549951858754 0.4262251407828014 -0.2182750884289467 -0.4240343037790697
Ni 7.258736302050569 1.0447266209538602 0.6187772978986793 -0.7451033821478071 -1.4049883213457417 -1.0999804102049249
Ni 1.996763524433018 6.867298124096225 9.569697479798583 1.1247429618615854 0.6553022049232586 -2.2264493536186816
Ni 9.070881926771651 5.055750848490296 1.4917378328624473 -0.7849081728495708 0.6259995993043993 1.1515387418981908
Ni 6.706686716155905 2.148381563854665 7.1190190638935 1.6589240964010916 1.513700219431864 0.23320008516989515
Ni 3.392149924553937 4.426613951593344 0.6440566414243502 0.9423401618492159 0.12956174495193817 0.7252776056711315
Ni 5.894473121813322 5.8297698243155756 4.752717845710326 0.43346279618182115 0.4958907235997395 1.0739906710093825
Ni 5.619794614375085 2.96991489896055 9.613417761735374 -0.6904026481708174 1.2272479598060477 -0.23182711608176848
P 0.26332437968341277 6.206856689401918 12.419117559221156 -0.15793772499146996 -1.0897525618293298 0.18473376213839154
P 3.88140911694021 6.332238026713648 12.9803898807953 0.45970861725222767 0.08646954174815431 -1.5328312838343603
P 2.1965033381461088 8.739777284595293 1.51085780686031 0.5793970689545118 0.6107706981697869 -0.10714866736406062
P 6.358483794719249 7.915478851305744 5.812580886098437 0.1760776291252903 0.36806190217850804 1.4153208136200013
P 4.794109099045861 1.1744505222982962 12.653232529599821 0.36569520171854436 0.8878091206808709 0.8929024760433784
P 4.129470154649796 6.571623002253507 8.487184205633204 0.37385305493898835 0.3902330389589086 -0.09577307853726733
P 4.942563140873742 1.303594206318947 3.8927632446950335 -0.9152759586425722 0.5163117104582527 -0.2763437104369047
P 0.3462637263498167 5.96784341558511 3.7809336082519636 -1.2793801617249128 -1.9895558787575995 0.722257073677253
Ni 0.6585620745189829 7.675232615675892 2.6953161714043343 1.8838179756981364 -0.8798806098624137 -1.0001488453275678
Ni 1.791593239205124 6.892782356864357 5.053350199313135 1.5899323997227264 0.15316267220032978 -0.5923736837198379
Ni 6.190737526875508 5.949040747936192 9.395025774241722 -1.0412150192402585 1.131680055301051 0.8064972118742562
Ni 8.755760458686442 2.7532853215878967 10.558492057329106 -0.16683862702552557 0.22761204955915637 -0.6597080473004381
Ni 2.349472196024694 5.736436428247299 7.330472014830507 0.6170292774849889 -0.36243221469655645 -0.2700069695855995
Ni 0.921421373753799 0.43747751600714013 9.25115182291347 -1.167078489405003 0.21225922125216992 -1.6027629758284911
Ni 1.5686719302276735 1.414098408812995 11.349156924220045 0.6175620100600074 1.036989154084369 0.8125102508375555
Ni 4.1040675149428205 7.200016495704359 1.7243007218999864 -0.20150172562534974 0.7212723411664803 -0.022351885332638922
Ni 5.856332898670122 8.31630023129318 8.228945793428597 -1.3228945400677796 -1.0474815689752606 0.07073464751140077
Ni 6.887406280723659 1.0888322034572273 4.821609587014148 0.41488991827564026 -0.7496467785441153 0.8876787657505938
Ni 0.6658918511796142 7.705775618235777 7.011674326045377 0.4501410281684506 0.9348474530165964 0.0029487982156787924
Ni 5.1854475521476795 4.957394946213004 7.2434675205393315 0.22643705541444875 0.31184858821173383 0.066068352383983
Ni 8.247263435658413 7.7572608398260385 9.236529439764514 -1.20708562592556 -0.21195814507198335 -0.6776471482773619
Ni 4.775016322735051 0.4477555219442557 10.4927715663356 -0.02736347961461739 0.8503640884605356 -0.17011626933553284
Ni 8.107177215546997 7.803660093937495 4.570523259914763 0.07517417133999311 -0.7112311548803945 1.3751164734869736
Ni 7.408396108004441 6.53882259166827 7.281536123106626 -0.09510639148754589 -0.5132076176116322 -0.9798034489019964
Ni 2.4062790983815487 5.5082931633557815 2.91568452415713 -0.6986206652052356 0.43655994704990625 -0.07919846200803779
Ni 3.7003722460235116 4.6236521283925605 9.30762419371958 -0.3056172625900414 -0.4766354749145533 0.5767498611396519
Ni 1.1729727813017805 3.7447044759189816 4.102876256249924 0.656828668870114 0.35059536996262847 -0.6665052727279296
Ni 0.7140245045458788 0.21260975922630357 -0.1151740453609512 1.0522116274610782 -0.0406753662321751 1.1057980453279666
Ni 0.8742252274117066 3.8099607930534605 8.46223848706871 0.9628681065992385 -0.3403353827975171 -0.6730615857892085
Ni 5.434378915842944 3.0104666503557325 5.428156085045346 0.45817212600304313 0.09372005266298053 -1.98914475936211
Ni 4.2508987614432385 7.316966550029835 6.2839304015606805 -0.2969459600682886 -0.6304949160715915 -0.897486495869635
Ni 8.459079022422785 7.579868458974366 0.6491698065902082 -0.6662419917642138 -0.9893376136446768 -0.3478990540773879
P 0.3812118476226287 6.095736006001348 8.363717585489963 -0.9400955887894132 -1.1932525766972095 -0.24854545727771388
P 8.681084675936136 1.9358497713312453 8.178364441638044 0.5531777302466667 0.6173684059919626 -0.39030991494343104
P 2.08919033093288 3.4711864031283164 10.537713024421047 -0.8094778917691349 1.1703029098795716 0.003881594442593315
P 4.008440447266455 6.4634124713675485 4.047982257882423 -1.065971400249332 1.2253556278793412 -0.40322096657814427
P 6.9743663521259815 4.353171130656083 10.836355413921185 0.7686618861940374 -0.7563607002291812 -2.2116732237507715
P 6.509440023755955 8.174690940706828 10.675947988633759 -0.02029654546550698 -0.8104083740032043 -0.48059317401072066
P 2.309419068892139 8.880706633005333 5.768607665672057 0.8890681898989526 0.9455154742534038 1.3140000657916273
P 6.81324725402735 4.393605025407371 1.9845698947378423 0.547344154284025 -0.4708389228374343 -0.8188477630198091
Ni 2.7504204985517067 1.9031400197028487 0.7516225871271666 0.03716118243132955 -0.9501339468620217 -0.2800044471179436
Ni 1.9223415867618687 1.6423867280354594 7.147772458645335 -1.418423878025357 -0.585199791679218 0.047885510827369145
Ni 7.099203735696663 0.9375224044888412 9.376993707725957 -0.03635231337678901 0.7759975006235023 -0.3617940668919253
Ni 3.134615025854419 2.0071893044697853 9.31918139753773 -0.1019612096258502 -0.6759317082481521 0.4511650985575907
Ni 6.637649920521138 2.2880235550775563 2.6688845525372087 0.01225824854206276 0.4384887886415029 0.7426353802232887
Ni 4.2178989011529495 7.193072019610304 10.786225543735704 0.49642371328507406 -0.49226983901770055 0.048275032956303955
Ni 7.1118959896544665 6.316109798291555 11.731817501973001 0.5452654173781254 1.081721463994737 0.15517944552004242
Ni 7.4337080887545754 4.261632781933267 8.422883433903834 1.0895800408072074 -0.6303164815121984 -0.4781508831178152
Ni 3.3394952024204207 8.689987385497968 12.777322883366129 -1.974399739842451 -0.3838579886705002 -0.0716551024431411
Ni 0.0680703711548371 5.139138956993065 10.386487538282521 -0.15302588951214935 0.8533190573238014 0.26022083673311314
Ni 9.013204698429117 2.8867987673283055 5.825929510903772 -1.0127225682275205 -1.3835473778631462 1.8932636944920687
Ni 3.5616912397431397 2.9300068261589423 12.132908139062256 -0.26634880400772193 -0.5525611797085903 -1.8993106720170967
Ni 1.2333516465581886 3.8389716592427257 12.849413072667316 0.12310544780363315 -0.3441254459675686 -0.8064951549917272
Ni 3.110536006917329 8.592284227709932 8.055800784704946 0.12337592785620041 0.5678993527275574 0.15614900852216332
Ni 5.780034320592354 8.117031844155663 3.692668954460693 -1.409815567531056 0.7282294892106038 0.1964788184894616
Ni 3.27633310718898 8.708382087841098 3.499129306805989 -0.3566534032312503 -0.053516740971217516 1.2749622351628753
Ni 3.9582516487590262 2.9087473007796216 7.21026911713356 -0.13913396202140554 0.4648981318729671 0.5081613134369765
Ni 5.2091095398833 4.463702530837184 11.87880921482703 -0.7304370383848839 1.107686263489615 0.05646271097341889
Ni 8.296736028406793 0.24912265409419906 2.5691687659072935 -1.2563230227951332 1.2427344854774212 -0.6179327631358649
Ni 4.929979677664147 0.5780578274333402 1.767836059564821 0.09126439203363636 0.03344773813548433 -0.5194032048993829
Ni 5.861165021069771 5.803759769597764 0.5556478398917014 0.6460282358205003 0.186156353517531 0.45840686772166866
Ni 8.144700957783675 0.4517028129251326 11.346502429963728 0.11732997877243664 -0.2770548775713164 0.876470041518968
Ni 0.21398414901202004 5.280965829075837 6.10084735798807 -0.3568452075270822 -0.00880422855519129 -0.16605546900259788
Ni 7.271065920181006 6.386270764991155 2.8540908288790456 0.7989319979324885 -0.8560901923110352 -1.0941188092178253
P 8.56467857535171 1.963899652577991 3.864673473507278 0.4491745504901232 2.2362881940859745 -0.5969996125276235
P 1.6869093417402974 3.707343919804619 1.8307570019710637 1.7194416941701742 -0.4877896917591599 -0.017466532215879595
P 5.1596913425090225 1.408858321107559 8.277722125388435 -1.6183757426650838 -1.4150490480158533 1.0788986498339612
P 8.722071590324157 2.0887732997314092 12.713380214516283 -0.024032358358855383 0.09031771184965091 -1.4758008732829293
P 6.657576759234889 8.081384742325604 1.709891387299606 -1.2188000861490105 0.2896558541647785 -1.4306209343121814
P 2.1118550701432435 3.780251852896516 6.293457751335149 -1.1737157922158625 -0.5852252456005147 0.1456535083074782
P 7.004147819448399 4.514235833380609 6.053477146448842 0.8353976969586904 -0.7426826885214564 1.5467165264568847
P 2.581042369484819 8.886934903340341 10.37726570919261 1.221468119899477 -0.8289707103864239 0.3452916983615279
