# total energy = -381162.74727674853 ev
CRYSTAL
PRIMVEC
9.30399555390325 0.00000000000000 0.00000000000000

0.00000000000000 9.30399555390325 0.00000000000000

0.00000000000000 0.00000000000000 13.61733795542885

PRIMCOORD
 96 1
Ni 4.418141711420956 7.568251212197096 12.840672743238947 0.4108046924626732 -2.0982320385097797 1.6781387216563293
Ni 1.514085669417812 2.533254614719662 9.990604994558879 -0.9726200437796798 -0.48598811977404693 0.9858242011747798
Ni 2.5086920672205806 8.634730973420472 0.6453567451506773 -0.0865171071566381 -0.6245721228292533 0.35581393804909045
Ni 3.9310682553132237 0.5282324703601708 8.792769567387953 0.918254838765238 -0.18837881509014653 0.6185801669118767
Ni 1.9789225768426641 4.3303026921259455 11.992502857308448 0.5997607202125285 -0.3985269035365846 -0.9997935188706781
Ni 6.3786144656535155 4.383689016955389 1.4156447475185576 -0.017410225056647435 0.695664410790389 -1.319845725939127
Ni 6.719652412084891 6.460536143960111 2.418466573140148 -0.45510685681415813 0.4024398654377456 1.4713001571990985
Ni 9.036682176850517 2.264201679652072 1.6889179748382628 0.40357475037313717 0.23879711964169842 0.1692716619470504
Ni 4.400938624176335 2.62974634961094 6.484616744504476 -1.6333241364448001 0.6867164575684819 0.7469959711848296
Ni 3.5675146403410234 0.14101228263288967 3.556194469302337 -0.5186406157017456 0.3561121860157996 -0.2437688618246769
Ni 1.330713226743798 0.30161691849440275 2.5810985495698615 -0.08081620011711889 0.3030829262039619 -0.007531789600670899
Ni 1.7640002862257012 8.561154978866405 7.3704789760517455 1.198748052594142 -0.6574344207749129 0.585925614101649
Ni 2.6559836162576866 6.483489100278381 8.064350474111215 1.8767273873999422 -0.8944847329288338 -0.04938934906640527
Ni 7.817682021251216 7.349532891512093 7.669434021500889 2.072569343636353 0.26985450316813525 2.1559232225736613
Ni 7.986261111454192 1.8638135474265143 9.187780920749981 -0.1616390851024571 -1.1281756416922184 1.23975663379602
Ni 6.647127768995747 8.592528050899324 4.151912538916234 0.03530227484571985 -1.11757806868203 -1.7203472367035793
Ni 6.069079847188765 6.514741220372856 11.497771282698258 0.6264158609062115 -0.5259458911139071 0.08228455713252926
Ni 7.7524424064544135 6.0462571468042015 4.850169009944005 -0.057613536748410465 0.7370995380067241 0.15193111378607382
Ni 5.237097982619498 4.081020746996063 5.002110695814459 1.3607332081821082 1.0330479100484338 -0.7245651529851392
Ni 0.26961582678111085 5.881325222745029 10.892263549266733 -0.04254301556853319 0.189315467971803 0.17767325574718434
Ni 9.07517280526101 7.041766032147656 2.9357621970665417 -0.0433696252348866 0.5767084663787553 -0.07088197172254243
Ni 0.30718908125849365 5.439701783505861 13.345494500713821 -1.4650606040472898 -0.09807138765314077 -0.4920857480313525
Ni 2.334521275863457 5.889456914606466 3.9561220537622868 0.12783679184103147 -0.07014303667398887 0.340911052795329
Ni 0.43938861957656133 0.7107405718740845 0.09726861849588912 3.081156549539261 -1.8378247967974735 1.9992281117400406
P 4.829694637964278 4.730662912365709 7.74706655799041 -0.14311171572223094 -1.0243570671426552 -0.23120799444053086
Ni 1.536536209991783 2.9855776485133534 2.8796172376410847 0.6277520632191318 0.10877411878262558 -0.5291443434465467
P 1.9012063043957599 4.652081368359179 9.784234005989797 -0.19546374696138596 1.13989601545294 -0.4752475934280912
Ni 8.634842621363651 2.880833269822195 13.189726081590951 0.6320095529439052 1.842398275100769 -1.4995154432910498
P 7.349458459549975 1.180323447283513 6.538242182012224 -0.5790995923187511 -0.03982767351989915 -0.5388070633472914
P 8.796406499136964 2.4085624701807644 3.788316125565816 -0.06759507344115456 0.18906812784768728 -0.46048560462756816
P 8.989510920857963 4.2605599436209785 7.020159363944202 3.2321294131771237 1.908984190551119 2.2164755302354213
Ni 4.445662929414246 5.022566459803657 2.8478078082302476 0.02580821931235555 0.44811448465672504 -0.050152709594991046
Ni 8.93229134997942 4.05415080867131 9.325152550035753 0.9616774287252471 -0.2069252106337662 -0.6722869124067131
Ni 2.0619700385763013 6.533972578585206 12.577776261838078 3.3772087941486872 -0.4598294591008081 1.4443321132506868
Ni 7.147552458308473 5.190568702300215 7.263951021468324 -2.141494448742841 1.6839915808926802 1.7976536238952265
Ni 9.126261043260046 0.3858487788252491 4.7264416897140675 -1.0257269509069884 -0.10210827672667576 0.28932932406329526
Ni 5.3679679800142255 6.731710389948076 8.361794550729353 0.849857324027446 -2.188370287358773 -1.161651661962477
Ni 2.879446974527739 1.8053844571635476 1.1093283810159027 -3.454043641020555 -0.06438505114428911 1.4611743816190061
Ni 0.8278834546551206 8.146643381828877 11.96153730026813 -1.9050087508431384 1.2966505187695863 0.24366318948474808
Ni 4.930345258738924 4.652537264127154 12.558167161417979 -0.14203776593176182 0.9845659032876463 -0.6297025020772833
Ni 1.4016468866426608 7.956451110625761 4.433628211539222 0.14998658846519328 0.4073203334584985 -0.9086201438889513
Ni 0.6644913418122723 5.891838737394257 5.976704199802636 2.129339558547862 0.867892584262602 1.302032609017106
Ni 8.259147292570882 -0.005607517946097123 2.1163388653057074 -0.25578054157357244 -0.628086563740415 0.6099849690436979
Ni 3.29460054723854 7.957660630010186 5.621944721154727 1.054988418875267 0.03511124188083631 -0.6086395107593969
Ni 4.307014791978142 7.666975905951928 2.425615763101623 0.7774614867635384 -1.4155948932169942 -0.7075827594945299
Ni 9.069990479898514 0.1287468256752991 7.451080417430266 -1.7229517642059617 -2.7082319199518134 0.5351545541963687
Ni 4.613460484014978 2.3383266099267623 3.1980864827586264 -0.748310319120879 1.0537776863966175 0.3175242984402725
Ni 1.8250437991580777 4.109174636667359 6.890726833817887 1.1300553752134344 -0.9051118736253766 0.7930210317646924
Ni 7.489585932233182 5.732526426475024 9.670610824617437 -0.6243461228613765 1.8163324312516527 0.06150772959649407
Ni 6.872600790242997 1.5292697896899716 4.18324653416904 0.03370793377540646 1.228154787891033 1.0875411560003077
Ni 5.086689595168683 0.6330494202143951 5.609934193667392 0.7641963942235162 -1.2845843316336714 0.5146217243503396
Ni 2.1966267620438034 7.338442529156448 10.386760739338477 0.3463484217608164 1.139925583139295 -1.5157056798976671
Ni 3.698942877451639 5.629559110879443 6.029253165058246 0.1104651333318033 -0.2799759078728533 0.05413354861961
Ni 6.254387520877858 3.9268628494535323 10.482844028837631 -0.8877399580058324 -0.4417463763468521 -0.4383183245019096
Ni 5.9579901437270095 2.6169812681076294 13.355394882075098 0.7632754250711435 0.6824715662491988 -1.3975727456079607
Ni 5.009289658560783 7.915587963422744 10.080969118168758 -1.5255380926070565 1.6263178803302958 2.1968922087868554
P 3.077733721611233 1.4234926675244195 5.144098967550628 0.14602940358965819 0.5989770479689684 0.5806021450062065
Ni 1.1899530823825848 2.4259888533117415 5.078095494742584 -0.6282472576879955 -1.4617847615094954 2.1209353936445665
P 0.3476642518589687 7.61526430027015 0.47492522949047866 0.09331844634918768 0.3286270932216534 0.8438064898476758
Ni 7.529797799767663 4.826103295792064 12.233938743231525 0.13089254794821972 -0.11977175544470986 0.23255319561451562
P 5.664449093122457 9.02708045373724 11.894662973503301 -0.01570635499166327 0.699699242981395 0.2028176162232959
P 3.5947474344811035 6.060836507384148 0.8002347719267038 1.528032576894136 -0.6361459437097817 -0.4615726670441599
P 9.116826792061534 7.67108827185897 5.7815268479366395 -1.939899906293369 2.760564153696626 0.6189174956466372
Ni 4.550202620209578 0.854963663272858 0.31665031404327243 2.009435648400662 -1.670154417899272 -1.4529597070186977
Ni 8.74195021485207 4.983405943734098 1.7981692088356926 0.06737472990023234 -0.8879826701442579 0.42504011933576474
Ni 1.6806085766672667 3.9606921762363587 0.7897482388637437 0.31340359140367957 -0.4005508759451489 -0.2556740979026952
Ni 0.15543719689144114 4.495104360251411 4.43994655472355 0.9840115734460732 -1.375295165156683 -1.8101874946961793
Ni 6.296106635645237 -0.2027210312266995 8.486597412811903 0.8155377248099696 1.1677505757713629 -0.623543681564739
Ni 2.89432406295616 3.7231797851164528 4.549838833994725 1.6696178286695118 0.7652862848535852 0.4204221609477791
Ni 6.348469520995551 2.804661460589248 7.763897485424439 -0.8566041558329763 0.12317075382392982 1.1712989552442536
Ni 2.2956677916376376 1.6845627746548082 7.623026623519575 -1.1757248522260912 -0.048836561886728795 -2.1119941252908787
Ni 8.27101919052877 8.398148981827047 10.073152831746796 0.22279303090395822 -0.5452271079410222 -1.0569748531776764
Ni 4.192296530363114 3.5595411163990867 0.7513487896068461 -0.9807956376119368 1.239575885243781 1.2177508189488897
Ni 7.641613214860072 8.263054970582099 12.359463595346622 0.01734569036729916 0.5510480854981736 -1.153018411767511
Ni 1.7070040112335145 2.1669842331301394 12.496140216186111 0.5311760291645948 -0.7984761413419926 0.09095817364712722
Ni 3.7998912260747577 5.668384683119468 10.293658449922166 0.7934676323838077 -0.8006376677696856 -0.019216939248083032
Ni -0.03237511232293705 2.188076390395449 7.310277474690834 0.8176406300855855 3.00856839375889 -0.35028735180390647
Ni 7.613087165378185 6.742382072516806 0.31820035965438864 1.7855725243609766 -3.1019495750252126 0.08243882332220641
Ni 7.65954201373535 0.9776452144350316 0.028774466155458058 -3.2754000509403007 -0.7286802035947773 -0.13297565572949357
Ni 3.9654651258072025 1.875201637630634 11.450791689008158 1.0361982827519574 0.9297990919594117 -0.4802285915824504
Ni 0.49896489245567816 6.513568916969492 8.486039173096014 -0.9235240575839772 -0.47692215291703677 0.8932230926075906
Ni 6.848791866360365 1.6425645400294848 11.317927845428182 -0.09894196318355218 -0.7345572312008447 1.1199457975832583
Ni 6.342021852277042 8.360672488900418 0.7901352850667595 -2.2015402490818277 1.6315372197477065 0.9904357318048619
Ni 1.7733973214431529 6.233118587702516 1.78531480897784 -1.0218605259730467 0.5582145213396258 -0.6422330304441262
Ni 3.149365181154956 9.074595957554592 11.963307850567023 -1.514817877976075 1.1445039465385967 -1.2711395189826753
Ni 6.709650617175226 2.2092522836181416 1.9135359589206775 1.6481164642626263 1.6563457941509538 -0.5209818622404124
Ni 3.5493904575651865 3.039503605068155 8.925116108831205 2.0760133363208957 1.861731171101426 0.33014970051376685
Ni 9.071581463088796 0.7987786966677619 11.642837316068022 -0.09053856961120536 1.8876478909671877 -2.4752079553484663
P 5.6058432269494585 0.6385787846002678 2.2894694699922256 -1.5638218186786037 -3.5698636109063684 0.9274773858047705
Ni 7.33904728884866 4.119892839212413 3.6076818486982334 -1.403763962020337 -0.8010487871651752 -0.8493258770040082
P 5.6061967787695215 1.8840311291369325 9.640367257609665 -0.6723843572165259 -0.17212044424975517 -0.4457621823744646
Ni 6.378363257781365 7.4951590253967995 6.183224052295955 -2.689710206998542 1.0650347473676756 -0.31472256732541926
P 1.830868100193845 0.5221634742489394 9.40279904251817 -0.7663574064305769 -1.7945438746216513 0.0682779584407921
P 4.508074129650548 8.314394416453286 7.284377012672675 -0.4253653638856674 0.7985224211988957 0.37659847889460946
P 5.653302906795221 6.572398079028844 4.455647046732906 -1.5150883580286423 -1.3591427237665368 -1.8766140017505295
Ni 7.549810693582256 3.5088622541917016 5.974648016849114 -1.6511269689541759 -3.3670074281356532 -4.640780013865801
